MODEL 1
REMARK VINA RESULT:      -7.6      0.000      0.000
REMARK  Name = modded_pdb/CHEMBL2037209_nitrogen_modded_with_ethanol_version_2.pdb
REMARK                            x       y       z     vdW  Elec       q    Type
REMARK                         _______ _______ _______ _____ _____    ______ ____
ROOT
ATOM      1  C   LIG    1      -38.287  74.773  25.041  0.00  0.00    +0.035 A 
ATOM      2  C   LIG    1      -38.566  73.399  24.900  0.00  0.00    +0.046 A 
ATOM      3  C   LIG    1      -39.731  72.917  24.276  0.00  0.00    +0.036 A 
ATOM      4  C   LIG    1      -40.617  73.886  23.781  0.00  0.00    +0.023 A 
ATOM      5  C   LIG    1      -40.358  75.256  23.920  0.00  0.00    +0.004 A 
ATOM      6  C   LIG    1      -39.200  75.700  24.558  0.00  0.00    +0.023 A 
ENDROOT
BRANCH   1   8
ATOM      7  C   LIG    1      -36.858  75.694  26.904  0.00  0.00    +0.248 C 
ATOM      8  N   LIG    1      -37.066  75.101  25.668  0.00  0.00    -0.281 N 
ATOM      9  H   LIG    1      -36.265  74.893  25.097  0.00  0.00    +0.155 HD
ATOM     10  O   LIG    1      -37.737  76.019  27.695  0.00  0.00    -0.270 OA
BRANCH   7  15
ATOM     11  C   LIG    1      -33.374  75.170  28.365  0.00  0.00    +0.049 A 
ATOM     12  C   LIG    1      -32.756  76.402  28.113  0.00  0.00    +0.038 A 
ATOM     13  C   LIG    1      -33.445  77.411  27.428  0.00  0.00    +0.057 A 
ATOM     14  C   LIG    1      -34.773  77.181  27.029  0.00  0.00    +0.025 A 
ATOM     15  C   LIG    1      -35.421  75.964  27.290  0.00  0.00    +0.040 A 
ATOM     16  C   LIG    1      -34.699  74.951  27.951  0.00  0.00    +0.039 A 
BRANCH  11  21
ATOM     17  C   LIG    1      -30.004  72.647  31.059  0.00  0.00    +0.067 C 
ATOM     18  C   LIG    1      -31.143  73.051  30.207  0.00  0.00    +0.056 A 
ATOM     19  N   LIG    1      -32.081  72.132  29.810  0.00  0.00    -0.241 NA
ATOM     20  C   LIG    1      -32.968  72.816  29.121  0.00  0.00    +0.204 A 
ATOM     21  N   LIG    1      -32.648  74.150  29.033  0.00  0.00    -0.306 N 
ATOM     22  C   LIG    1      -31.465  74.300  29.718  0.00  0.00    +0.115 A 
ENDBRANCH  11  21
BRANCH  13  23
ATOM     23  C   LIG    1      -32.767  78.722  27.103  0.00  0.00    +0.418 C 
ATOM     24  F   LIG    1      -31.705  78.971  27.915  0.00  0.00    -0.166 F 
ATOM     25  F   LIG    1      -33.603  79.786  27.228  0.00  0.00    -0.166 F 
ATOM     26  F   LIG    1      -32.283  78.772  25.831  0.00  0.00    -0.166 F 
ENDBRANCH  13  23
ENDBRANCH   7  15
ENDBRANCH   1   8
BRANCH   3  27
ATOM     27  N   LIG    1      -40.029  71.527  24.167  0.00  0.00    -0.298 N 
BRANCH  27  28
ATOM     28  C   LIG    1      -39.274  70.545  23.465  0.00  0.00    +0.036 A 
ATOM     29  C   LIG    1      -37.982  70.201  23.900  0.00  0.00    +0.047 A 
ATOM     30  C   LIG    1      -37.271  69.238  23.207  0.00  0.00    +0.043 A 
ATOM     31  N   LIG    1      -35.986  68.808  23.513  0.00  0.00    -0.281 N 
ATOM     32  H   LIG    1      -35.417  69.155  24.271  0.00  0.00    +0.155 HD
ATOM     33  C   LIG    1      -35.564  67.836  22.632  0.00  0.00    +0.249 C 
ATOM     34  O   LIG    1      -34.475  67.285  22.662  0.00  0.00    -0.270 OA
ATOM     35  C   LIG    1      -36.713  67.618  21.668  0.00  0.00    +0.048 C 
ATOM     36  C   LIG    1      -36.826  66.764  20.630  0.00  0.00    +0.039 C 
ATOM     37  C   LIG    1      -37.771  68.562  22.094  0.00  0.00    +0.008 A 
ATOM     38  C   LIG    1      -39.041  68.869  21.641  0.00  0.00    +0.012 A 
ATOM     39  C   LIG    1      -39.776  69.866  22.321  0.00  0.00    +0.024 A 
BRANCH  36  40
ATOM     40  C   LIG    1      -35.884  65.807  20.146  0.00  0.00    +0.040 A 
ATOM     41  N   LIG    1      -35.404  64.770  20.912  0.00  0.00    -0.361 N 
ATOM     42  H   LIG    1      -35.651  64.589  21.880  0.00  0.00    +0.165 HD
ATOM     43  C   LIG    1      -34.529  64.000  20.192  0.00  0.00    +0.083 A 
ATOM     44  C   LIG    1      -34.427  64.541  18.935  0.00  0.00    +0.019 A 
ATOM     45  C   LIG    1      -35.277  65.676  18.904  0.00  0.00    +0.027 A 
ENDBRANCH  36  40
ENDBRANCH  27  28
BRANCH  27  46
ATOM     46  C   LIG    1      -41.198  71.034  24.936  0.00  0.00    +0.138 C 
BRANCH  46  47
ATOM     47  C   LIG    1      -41.009  71.223  26.447  0.00  0.00    +0.175 C 
BRANCH  47  48
ATOM     48  O   LIG    1      -39.820  70.563  26.875  0.00  0.00    -0.393 OA
ATOM     49  H   LIG    1      -39.122  71.240  26.918  0.00  0.00    +0.209 HD
ENDBRANCH  47  48
ENDBRANCH  46  47
ENDBRANCH  27  46
ENDBRANCH   3  27
TORSDOF 10
ENDMDL
MODEL 2
REMARK VINA RESULT:      -7.3      9.134     17.351
REMARK  Name = modded_pdb/CHEMBL2037209_nitrogen_modded_with_ethanol_version_2.pdb
REMARK                            x       y       z     vdW  Elec       q    Type
REMARK                         _______ _______ _______ _____ _____    ______ ____
ROOT
ATOM      1  C   LIG    1      -27.402  74.550  32.185  0.00  0.00    +0.035 A 
ATOM      2  C   LIG    1      -26.366  75.461  31.896  0.00  0.00    +0.046 A 
ATOM      3  C   LIG    1      -25.141  75.470  32.589  0.00  0.00    +0.036 A 
ATOM      4  C   LIG    1      -24.990  74.502  33.594  0.00  0.00    +0.023 A 
ATOM      5  C   LIG    1      -26.013  73.595  33.899  0.00  0.00    +0.004 A 
ATOM      6  C   LIG    1      -27.221  73.624  33.202  0.00  0.00    +0.023 A 
ENDROOT
BRANCH   1   8
ATOM      7  C   LIG    1      -29.644  75.505  31.534  0.00  0.00    +0.248 C 
ATOM      8  N   LIG    1      -28.562  74.650  31.387  0.00  0.00    -0.281 N 
ATOM      9  H   LIG    1      -28.585  73.972  30.644  0.00  0.00    +0.155 HD
ATOM     10  O   LIG    1      -29.759  76.364  32.401  0.00  0.00    -0.270 OA
BRANCH   7  15
ATOM     11  C   LIG    1      -32.269  76.385  28.910  0.00  0.00    +0.049 A 
ATOM     12  C   LIG    1      -32.913  75.157  28.710  0.00  0.00    +0.038 A 
ATOM     13  C   LIG    1      -32.481  74.013  29.392  0.00  0.00    +0.057 A 
ATOM     14  C   LIG    1      -31.416  74.121  30.303  0.00  0.00    +0.025 A 
ATOM     15  C   LIG    1      -30.770  75.344  30.538  0.00  0.00    +0.040 A 
ATOM     16  C   LIG    1      -31.199  76.476  29.817  0.00  0.00    +0.039 A 
BRANCH  11  21
ATOM     17  C   LIG    1      -34.510  80.632  27.523  0.00  0.00    +0.067 C 
ATOM     18  C   LIG    1      -33.712  79.387  27.583  0.00  0.00    +0.056 A 
ATOM     19  N   LIG    1      -32.902  79.024  26.539  0.00  0.00    -0.241 NA
ATOM     20  C   LIG    1      -32.306  77.918  26.929  0.00  0.00    +0.204 A 
ATOM     21  N   LIG    1      -32.701  77.525  28.186  0.00  0.00    -0.306 N 
ATOM     22  C   LIG    1      -33.618  78.462  28.602  0.00  0.00    +0.115 A 
ENDBRANCH  11  21
BRANCH  13  23
ATOM     23  C   LIG    1      -33.136  72.673  29.140  0.00  0.00    +0.418 C 
ATOM     24  F   LIG    1      -34.077  72.372  30.074  0.00  0.00    -0.166 F 
ATOM     25  F   LIG    1      -32.245  71.647  29.149  0.00  0.00    -0.166 F 
ATOM     26  F   LIG    1      -33.771  72.608  27.937  0.00  0.00    -0.166 F 
ENDBRANCH  13  23
ENDBRANCH   7  15
ENDBRANCH   1   8
BRANCH   3  27
ATOM     27  N   LIG    1      -24.110  76.416  32.319  0.00  0.00    -0.298 N 
BRANCH  27  28
ATOM     28  C   LIG    1      -23.668  77.464  33.175  0.00  0.00    +0.036 A 
ATOM     29  C   LIG    1      -22.326  77.520  33.591  0.00  0.00    +0.047 A 
ATOM     30  C   LIG    1      -21.917  78.552  34.415  0.00  0.00    +0.043 A 
ATOM     31  N   LIG    1      -20.633  78.727  34.913  0.00  0.00    -0.281 N 
ATOM     32  H   LIG    1      -19.848  78.116  34.739  0.00  0.00    +0.155 HD
ATOM     33  C   LIG    1      -20.553  79.855  35.700  0.00  0.00    +0.249 C 
ATOM     34  O   LIG    1      -19.546  80.247  36.269  0.00  0.00    -0.270 OA
ATOM     35  C   LIG    1      -21.939  80.469  35.692  0.00  0.00    +0.048 C 
ATOM     36  C   LIG    1      -22.396  81.590  36.286  0.00  0.00    +0.039 C 
ATOM     37  C   LIG    1      -22.765  79.570  34.854  0.00  0.00    +0.008 A 
ATOM     38  C   LIG    1      -24.090  79.552  34.460  0.00  0.00    +0.012 A 
ATOM     39  C   LIG    1      -24.534  78.494  33.635  0.00  0.00    +0.024 A 
BRANCH  36  40
ATOM     40  C   LIG    1      -21.691  82.532  37.095  0.00  0.00    +0.040 A 
ATOM     41  N   LIG    1      -20.612  83.255  36.640  0.00  0.00    -0.361 N 
ATOM     42  H   LIG    1      -20.207  83.188  35.712  0.00  0.00    +0.165 HD
ATOM     43  C   LIG    1      -20.142  84.091  37.619  0.00  0.00    +0.083 A 
ATOM     44  C   LIG    1      -20.917  83.910  38.736  0.00  0.00    +0.019 A 
ATOM     45  C   LIG    1      -21.890  82.932  38.410  0.00  0.00    +0.027 A 
ENDBRANCH  36  40
ENDBRANCH  27  28
BRANCH  27  46
ATOM     46  C   LIG    1      -23.358  76.238  31.052  0.00  0.00    +0.138 C 
BRANCH  46  47
ATOM     47  C   LIG    1      -23.580  77.409  30.086  0.00  0.00    +0.175 C 
BRANCH  47  48
ATOM     48  O   LIG    1      -24.897  77.347  29.541  0.00  0.00    -0.393 OA
ATOM     49  H   LIG    1      -25.075  76.410  29.343  0.00  0.00    +0.209 HD
ENDBRANCH  47  48
ENDBRANCH  46  47
ENDBRANCH  27  46
ENDBRANCH   3  27
TORSDOF 10
ENDMDL
MODEL 3
REMARK VINA RESULT:      -7.3      8.841     17.046
REMARK  Name = modded_pdb/CHEMBL2037209_nitrogen_modded_with_ethanol_version_2.pdb
REMARK                            x       y       z     vdW  Elec       q    Type
REMARK                         _______ _______ _______ _____ _____    ______ ____
ROOT
ATOM      1  C   LIG    1      -28.441  74.635  32.655  0.00  0.00    +0.035 A 
ATOM      2  C   LIG    1      -27.452  75.504  32.152  0.00  0.00    +0.046 A 
ATOM      3  C   LIG    1      -26.294  75.843  32.876  0.00  0.00    +0.036 A 
ATOM      4  C   LIG    1      -26.161  75.256  34.144  0.00  0.00    +0.023 A 
ATOM      5  C   LIG    1      -27.139  74.397  34.662  0.00  0.00    +0.004 A 
ATOM      6  C   LIG    1      -28.283  74.094  33.923  0.00  0.00    +0.023 A 
ENDROOT
BRANCH   1   8
ATOM      7  C   LIG    1      -29.792  73.233  31.051  0.00  0.00    +0.248 C 
ATOM      8  N   LIG    1      -29.534  74.371  31.801  0.00  0.00    -0.281 N 
ATOM      9  H   LIG    1      -30.169  75.146  31.726  0.00  0.00    +0.155 HD
ATOM     10  O   LIG    1      -29.098  72.223  31.029  0.00  0.00    -0.270 OA
BRANCH   7  15
ATOM     11  C   LIG    1      -32.590  74.568  28.830  0.00  0.00    +0.049 A 
ATOM     12  C   LIG    1      -33.376  73.428  28.622  0.00  0.00    +0.038 A 
ATOM     13  C   LIG    1      -32.991  72.196  29.165  0.00  0.00    +0.057 A 
ATOM     14  C   LIG    1      -31.825  72.128  29.948  0.00  0.00    +0.025 A 
ATOM     15  C   LIG    1      -31.034  73.261  30.188  0.00  0.00    +0.040 A 
ATOM     16  C   LIG    1      -31.421  74.484  29.606  0.00  0.00    +0.039 A 
BRANCH  11  21
ATOM     17  C   LIG    1      -32.680  79.270  27.135  0.00  0.00    +0.067 C 
ATOM     18  C   LIG    1      -33.011  77.880  27.521  0.00  0.00    +0.056 A 
ATOM     19  N   LIG    1      -34.225  77.334  27.197  0.00  0.00    -0.241 NA
ATOM     20  C   LIG    1      -34.177  76.094  27.632  0.00  0.00    +0.204 A 
ATOM     21  N   LIG    1      -32.981  75.800  28.245  0.00  0.00    -0.306 N 
ATOM     22  C   LIG    1      -32.235  76.955  28.188  0.00  0.00    +0.115 A 
ENDBRANCH  11  21
BRANCH  13  23
ATOM     23  C   LIG    1      -33.805  70.949  28.900  0.00  0.00    +0.418 C 
ATOM     24  F   LIG    1      -33.099  70.003  28.225  0.00  0.00    -0.166 F 
ATOM     25  F   LIG    1      -34.916  71.200  28.159  0.00  0.00    -0.166 F 
ATOM     26  F   LIG    1      -34.242  70.345  30.040  0.00  0.00    -0.166 F 
ENDBRANCH  13  23
ENDBRANCH   7  15
ENDBRANCH   1   8
BRANCH   3  27
ATOM     27  N   LIG    1      -25.313  76.750  32.380  0.00  0.00    -0.298 N 
BRANCH  27  28
ATOM     28  C   LIG    1      -24.530  77.661  33.143  0.00  0.00    +0.036 A 
ATOM     29  C   LIG    1      -25.139  78.474  34.116  0.00  0.00    +0.047 A 
ATOM     30  C   LIG    1      -24.357  79.346  34.852  0.00  0.00    +0.043 A 
ATOM     31  N   LIG    1      -24.820  80.215  35.832  0.00  0.00    -0.281 N 
ATOM     32  H   LIG    1      -25.783  80.318  36.116  0.00  0.00    +0.155 HD
ATOM     33  C   LIG    1      -23.787  80.945  36.378  0.00  0.00    +0.249 C 
ATOM     34  O   LIG    1      -23.907  81.786  37.255  0.00  0.00    -0.270 OA
ATOM     35  C   LIG    1      -22.528  80.480  35.674  0.00  0.00    +0.048 C 
ATOM     36  C   LIG    1      -21.246  80.859  35.847  0.00  0.00    +0.039 C 
ATOM     37  C   LIG    1      -22.975  79.459  34.699  0.00  0.00    +0.008 A 
ATOM     38  C   LIG    1      -22.341  78.670  33.756  0.00  0.00    +0.012 A 
ATOM     39  C   LIG    1      -23.124  77.788  32.979  0.00  0.00    +0.024 A 
BRANCH  36  40
ATOM     40  C   LIG    1      -20.704  81.812  36.761  0.00  0.00    +0.040 A 
ATOM     41  N   LIG    1      -20.960  83.162  36.681  0.00  0.00    -0.361 N 
ATOM     42  H   LIG    1      -21.535  83.611  35.976  0.00  0.00    +0.165 HD
ATOM     43  C   LIG    1      -20.325  83.836  37.691  0.00  0.00    +0.083 A 
ATOM     44  C   LIG    1      -19.636  82.919  38.442  0.00  0.00    +0.019 A 
ATOM     45  C   LIG    1      -19.871  81.647  37.861  0.00  0.00    +0.027 A 
ENDBRANCH  36  40
ENDBRANCH  27  28
BRANCH  27  46
ATOM     46  C   LIG    1      -25.014  76.678  30.929  0.00  0.00    +0.138 C 
BRANCH  46  47
ATOM     47  C   LIG    1      -25.150  78.046  30.248  0.00  0.00    +0.175 C 
BRANCH  47  48
ATOM     48  O   LIG    1      -23.946  78.366  29.554  0.00  0.00    -0.393 OA
ATOM     49  H   LIG    1      -23.401  77.559  29.550  0.00  0.00    +0.209 HD
ENDBRANCH  47  48
ENDBRANCH  46  47
ENDBRANCH  27  46
ENDBRANCH   3  27
TORSDOF 10
ENDMDL
MODEL 4
REMARK VINA RESULT:      -7.2     16.432     19.163
REMARK  Name = modded_pdb/CHEMBL2037209_nitrogen_modded_with_ethanol_version_2.pdb
REMARK                            x       y       z     vdW  Elec       q    Type
REMARK                         _______ _______ _______ _____ _____    ______ ____
ROOT
ATOM      1  C   LIG    1      -32.585  79.224  10.894  0.00  0.00    +0.035 A 
ATOM      2  C   LIG    1      -31.194  79.100  10.712  0.00  0.00    +0.046 A 
ATOM      3  C   LIG    1      -30.556  77.861  10.515  0.00  0.00    +0.036 A 
ATOM      4  C   LIG    1      -31.388  76.732  10.497  0.00  0.00    +0.023 A 
ATOM      5  C   LIG    1      -32.773  76.836  10.684  0.00  0.00    +0.004 A 
ATOM      6  C   LIG    1      -33.370  78.080  10.892  0.00  0.00    +0.023 A 
ENDROOT
BRANCH   1   8
ATOM      7  C   LIG    1      -33.847  81.287  10.176  0.00  0.00    +0.248 C 
ATOM      8  N   LIG    1      -33.081  80.536  11.055  0.00  0.00    -0.281 N 
ATOM      9  H   LIG    1      -32.791  80.961  11.919  0.00  0.00    +0.155 HD
ATOM     10  O   LIG    1      -34.255  80.906   9.084  0.00  0.00    -0.270 OA
BRANCH   7  15
ATOM     11  C   LIG    1      -33.455  84.997  10.970  0.00  0.00    +0.049 A 
ATOM     12  C   LIG    1      -34.719  85.329  11.475  0.00  0.00    +0.038 A 
ATOM     13  C   LIG    1      -35.734  84.365  11.529  0.00  0.00    +0.057 A 
ATOM     14  C   LIG    1      -35.455  83.055  11.102  0.00  0.00    +0.025 A 
ATOM     15  C   LIG    1      -34.191  82.693  10.613  0.00  0.00    +0.040 A 
ATOM     16  C   LIG    1      -33.195  83.685  10.537  0.00  0.00    +0.039 A 
BRANCH  11  21
ATOM     17  C   LIG    1      -30.986  89.287  10.280  0.00  0.00    +0.067 C 
ATOM     18  C   LIG    1      -31.374  87.889  10.567  0.00  0.00    +0.056 A 
ATOM     19  N   LIG    1      -30.455  86.991  11.045  0.00  0.00    -0.241 NA
ATOM     20  C   LIG    1      -31.124  85.876  11.239  0.00  0.00    +0.204 A 
ATOM     21  N   LIG    1      -32.450  85.995  10.895  0.00  0.00    -0.306 N 
ATOM     22  C   LIG    1      -32.609  87.286  10.447  0.00  0.00    +0.115 A 
ENDBRANCH  11  21
BRANCH  13  23
ATOM     23  C   LIG    1      -37.116  84.729  12.022  0.00  0.00    +0.418 C 
ATOM     24  F   LIG    1      -37.228  84.630  13.373  0.00  0.00    -0.166 F 
ATOM     25  F   LIG    1      -38.083  83.933  11.496  0.00  0.00    -0.166 F 
ATOM     26  F   LIG    1      -37.473  86.007  11.711  0.00  0.00    -0.166 F 
ENDBRANCH  13  23
ENDBRANCH   7  15
ENDBRANCH   1   8
BRANCH   3  27
ATOM     27  N   LIG    1      -29.144  77.736  10.368  0.00  0.00    -0.298 N 
BRANCH  27  28
ATOM     28  C   LIG    1      -28.145  78.296  11.212  0.00  0.00    +0.036 A 
ATOM     29  C   LIG    1      -27.987  77.828  12.529  0.00  0.00    +0.047 A 
ATOM     30  C   LIG    1      -27.003  78.381  13.329  0.00  0.00    +0.043 A 
ATOM     31  N   LIG    1      -26.742  78.028  14.646  0.00  0.00    -0.281 N 
ATOM     32  H   LIG    1      -27.245  77.333  15.178  0.00  0.00    +0.155 HD
ATOM     33  C   LIG    1      -25.696  78.763  15.160  0.00  0.00    +0.249 C 
ATOM     34  O   LIG    1      -25.257  78.664  16.295  0.00  0.00    -0.270 OA
ATOM     35  C   LIG    1      -25.236  79.675  14.040  0.00  0.00    +0.048 C 
ATOM     36  C   LIG    1      -24.236  80.578  14.012  0.00  0.00    +0.039 C 
ATOM     37  C   LIG    1      -26.131  79.380  12.898  0.00  0.00    +0.008 A 
ATOM     38  C   LIG    1      -26.252  79.862  11.607  0.00  0.00    +0.012 A 
ATOM     39  C   LIG    1      -27.265  79.326  10.780  0.00  0.00    +0.024 A 
BRANCH  36  40
ATOM     40  C   LIG    1      -23.308  80.928  15.039  0.00  0.00    +0.040 A 
ATOM     41  N   LIG    1      -22.497  80.010  15.665  0.00  0.00    -0.361 N 
ATOM     42  H   LIG    1      -22.481  79.013  15.477  0.00  0.00    +0.165 HD
ATOM     43  C   LIG    1      -21.700  80.623  16.596  0.00  0.00    +0.083 A 
ATOM     44  C   LIG    1      -21.996  81.963  16.588  0.00  0.00    +0.019 A 
ATOM     45  C   LIG    1      -23.006  82.157  15.612  0.00  0.00    +0.027 A 
ENDBRANCH  36  40
ENDBRANCH  27  28
BRANCH  27  46
ATOM     46  C   LIG    1      -28.664  76.859   9.271  0.00  0.00    +0.138 C 
BRANCH  46  47
ATOM     47  C   LIG    1      -27.939  75.619   9.806  0.00  0.00    +0.175 C 
BRANCH  47  48
ATOM     48  O   LIG    1      -28.393  74.455   9.118  0.00  0.00    -0.393 OA
ATOM     49  H   LIG    1      -29.340  74.361   9.320  0.00  0.00    +0.209 HD
ENDBRANCH  47  48
ENDBRANCH  46  47
ENDBRANCH  27  46
ENDBRANCH   3  27
TORSDOF 10
ENDMDL
MODEL 5
REMARK VINA RESULT:      -7.2      2.689      3.996
REMARK  Name = modded_pdb/CHEMBL2037209_nitrogen_modded_with_ethanol_version_2.pdb
REMARK                            x       y       z     vdW  Elec       q    Type
REMARK                         _______ _______ _______ _____ _____    ______ ____
ROOT
ATOM      1  C   LIG    1      -38.627  73.350  24.976  0.00  0.00    +0.035 A 
ATOM      2  C   LIG    1      -38.681  71.992  24.604  0.00  0.00    +0.046 A 
ATOM      3  C   LIG    1      -39.736  71.449  23.847  0.00  0.00    +0.036 A 
ATOM      4  C   LIG    1      -40.747  72.342  23.463  0.00  0.00    +0.023 A 
ATOM      5  C   LIG    1      -40.713  73.693  23.831  0.00  0.00    +0.004 A 
ATOM      6  C   LIG    1      -39.658  74.195  24.595  0.00  0.00    +0.023 A 
ENDROOT
BRANCH   1   8
ATOM      7  C   LIG    1      -37.281  73.683  27.083  0.00  0.00    +0.248 C 
ATOM      8  N   LIG    1      -37.492  73.751  25.714  0.00  0.00    -0.281 N 
ATOM      9  H   LIG    1      -36.778  74.165  25.140  0.00  0.00    +0.155 HD
ATOM     10  O   LIG    1      -38.067  73.222  27.903  0.00  0.00    -0.270 OA
BRANCH   7  15
ATOM     11  C   LIG    1      -34.491  76.167  27.855  0.00  0.00    +0.049 A 
ATOM     12  C   LIG    1      -33.516  75.348  28.441  0.00  0.00    +0.038 A 
ATOM     13  C   LIG    1      -33.763  73.983  28.633  0.00  0.00    +0.057 A 
ATOM     14  C   LIG    1      -34.986  73.442  28.200  0.00  0.00    +0.025 A 
ATOM     15  C   LIG    1      -35.968  74.237  27.591  0.00  0.00    +0.040 A 
ATOM     16  C   LIG    1      -35.713  75.613  27.436  0.00  0.00    +0.039 A 
BRANCH  11  21
ATOM     17  C   LIG    1      -34.775  81.155  28.001  0.00  0.00    +0.067 C 
ATOM     18  C   LIG    1      -34.384  79.749  27.754  0.00  0.00    +0.056 A 
ATOM     19  N   LIG    1      -33.208  79.452  27.116  0.00  0.00    -0.241 NA
ATOM     20  C   LIG    1      -33.140  78.139  27.105  0.00  0.00    +0.204 A 
ATOM     21  N   LIG    1      -34.233  77.553  27.698  0.00  0.00    -0.306 N 
ATOM     22  C   LIG    1      -35.043  78.589  28.103  0.00  0.00    +0.115 A 
ENDBRANCH  11  21
BRANCH  13  23
ATOM     23  C   LIG    1      -32.738  73.104  29.315  0.00  0.00    +0.418 C 
ATOM     24  F   LIG    1      -32.937  73.022  30.657  0.00  0.00    -0.166 F 
ATOM     25  F   LIG    1      -31.468  73.554  29.141  0.00  0.00    -0.166 F 
ATOM     26  F   LIG    1      -32.748  71.821  28.857  0.00  0.00    -0.166 F 
ENDBRANCH  13  23
ENDBRANCH   7  15
ENDBRANCH   1   8
BRANCH   3  27
ATOM     27  N   LIG    1      -39.806  70.067  23.504  0.00  0.00    -0.298 N 
BRANCH  27  28
ATOM     28  C   LIG    1      -38.836  69.316  22.783  0.00  0.00    +0.036 A 
ATOM     29  C   LIG    1      -38.858  69.295  21.377  0.00  0.00    +0.047 A 
ATOM     30  C   LIG    1      -37.900  68.566  20.698  0.00  0.00    +0.043 A 
ATOM     31  N   LIG    1      -37.807  68.443  19.317  0.00  0.00    -0.281 N 
ATOM     32  H   LIG    1      -38.434  68.866  18.648  0.00  0.00    +0.155 HD
ATOM     33  C   LIG    1      -36.739  67.651  18.958  0.00  0.00    +0.249 C 
ATOM     34  O   LIG    1      -36.425  67.370  17.812  0.00  0.00    -0.270 OA
ATOM     35  C   LIG    1      -36.074  67.233  20.255  0.00  0.00    +0.048 C 
ATOM     36  C   LIG    1      -34.980  66.474  20.464  0.00  0.00    +0.039 C 
ATOM     37  C   LIG    1      -36.884  67.851  21.330  0.00  0.00    +0.008 A 
ATOM     38  C   LIG    1      -36.825  67.853  22.712  0.00  0.00    +0.012 A 
ATOM     39  C   LIG    1      -37.808  68.574  23.426  0.00  0.00    +0.024 A 
BRANCH  36  40
ATOM     40  C   LIG    1      -34.122  65.848  19.510  0.00  0.00    +0.040 A 
ATOM     41  N   LIG    1      -33.593  66.510  18.426  0.00  0.00    -0.361 N 
ATOM     42  H   LIG    1      -33.763  67.482  18.189  0.00  0.00    +0.165 HD
ATOM     43  C   LIG    1      -32.797  65.674  17.688  0.00  0.00    +0.083 A 
ATOM     44  C   LIG    1      -32.807  64.441  18.292  0.00  0.00    +0.019 A 
ATOM     45  C   LIG    1      -33.638  64.548  19.436  0.00  0.00    +0.027 A 
ENDBRANCH  36  40
ENDBRANCH  27  28
BRANCH  27  46
ATOM     46  C   LIG    1      -40.971  69.311  24.026  0.00  0.00    +0.138 C 
BRANCH  46  47
ATOM     47  C   LIG    1      -40.978  69.256  25.558  0.00  0.00    +0.175 C 
BRANCH  47  48
ATOM     48  O   LIG    1      -42.258  69.647  26.053  0.00  0.00    -0.393 OA
ATOM     49  H   LIG    1      -42.287  70.619  26.018  0.00  0.00    +0.209 HD
ENDBRANCH  47  48
ENDBRANCH  46  47
ENDBRANCH  27  46
ENDBRANCH   3  27
TORSDOF 10
ENDMDL
MODEL 6
REMARK VINA RESULT:      -7.0      5.196     11.824
REMARK  Name = modded_pdb/CHEMBL2037209_nitrogen_modded_with_ethanol_version_2.pdb
REMARK                            x       y       z     vdW  Elec       q    Type
REMARK                         _______ _______ _______ _____ _____    ______ ____
ROOT
ATOM      1  C   LIG    1      -35.430  71.755  27.556  0.00  0.00    +0.035 A 
ATOM      2  C   LIG    1      -34.633  72.850  27.945  0.00  0.00    +0.046 A 
ATOM      3  C   LIG    1      -33.474  72.710  28.731  0.00  0.00    +0.036 A 
ATOM      4  C   LIG    1      -33.135  71.402  29.108  0.00  0.00    +0.023 A 
ATOM      5  C   LIG    1      -33.920  70.303  28.736  0.00  0.00    +0.004 A 
ATOM      6  C   LIG    1      -35.072  70.480  27.968  0.00  0.00    +0.023 A 
ENDROOT
BRANCH   1   8
ATOM      7  C   LIG    1      -36.825  71.618  25.459  0.00  0.00    +0.248 C 
ATOM      8  N   LIG    1      -36.548  72.052  26.747  0.00  0.00    -0.281 N 
ATOM      9  H   LIG    1      -37.189  72.692  27.184  0.00  0.00    +0.155 HD
ATOM     10  O   LIG    1      -36.128  70.856  24.799  0.00  0.00    -0.270 OA
BRANCH   7  15
ATOM     11  C   LIG    1      -39.534  74.063  24.350  0.00  0.00    +0.049 A 
ATOM     12  C   LIG    1      -40.470  73.216  23.742  0.00  0.00    +0.038 A 
ATOM     13  C   LIG    1      -40.220  71.842  23.645  0.00  0.00    +0.057 A 
ATOM     14  C   LIG    1      -39.035  71.322  24.194  0.00  0.00    +0.025 A 
ATOM     15  C   LIG    1      -38.094  72.147  24.828  0.00  0.00    +0.040 A 
ATOM     16  C   LIG    1      -38.350  73.530  24.887  0.00  0.00    +0.039 A 
BRANCH  11  21
ATOM     17  C   LIG    1      -39.329  78.948  25.390  0.00  0.00    +0.067 C 
ATOM     18  C   LIG    1      -39.699  77.604  24.895  0.00  0.00    +0.056 A 
ATOM     19  N   LIG    1      -40.748  77.441  24.027  0.00  0.00    -0.241 NA
ATOM     20  C   LIG    1      -40.775  76.156  23.749  0.00  0.00    +0.204 A 
ATOM     21  N   LIG    1      -39.792  75.457  24.411  0.00  0.00    -0.306 N 
ATOM     22  C   LIG    1      -39.109  76.386  25.161  0.00  0.00    +0.115 A 
ENDBRANCH  11  21
BRANCH  13  23
ATOM     23  C   LIG    1      -41.199  70.929  22.941  0.00  0.00    +0.418 C 
ATOM     24  F   LIG    1      -40.630  70.258  21.905  0.00  0.00    -0.166 F 
ATOM     25  F   LIG    1      -42.261  71.602  22.426  0.00  0.00    -0.166 F 
ATOM     26  F   LIG    1      -41.722  69.975  23.761  0.00  0.00    -0.166 F 
ENDBRANCH  13  23
ENDBRANCH   7  15
ENDBRANCH   1   8
BRANCH   3  27
ATOM     27  N   LIG    1      -32.691  73.823  29.154  0.00  0.00    -0.298 N 
BRANCH  27  28
ATOM     28  C   LIG    1      -33.117  75.178  29.254  0.00  0.00    +0.036 A 
ATOM     29  C   LIG    1      -33.070  76.019  28.129  0.00  0.00    +0.047 A 
ATOM     30  C   LIG    1      -33.497  77.329  28.248  0.00  0.00    +0.043 A 
ATOM     31  N   LIG    1      -33.496  78.274  27.230  0.00  0.00    -0.281 N 
ATOM     32  H   LIG    1      -33.176  78.118  26.286  0.00  0.00    +0.155 HD
ATOM     33  C   LIG    1      -33.988  79.483  27.672  0.00  0.00    +0.249 C 
ATOM     34  O   LIG    1      -34.095  80.490  26.991  0.00  0.00    -0.270 OA
ATOM     35  C   LIG    1      -34.350  79.279  29.130  0.00  0.00    +0.048 C 
ATOM     36  C   LIG    1      -34.888  80.138  30.019  0.00  0.00    +0.039 C 
ATOM     37  C   LIG    1      -33.996  77.873  29.431  0.00  0.00    +0.008 A 
ATOM     38  C   LIG    1      -34.063  77.073  30.558  0.00  0.00    +0.012 A 
ATOM     39  C   LIG    1      -33.612  75.738  30.464  0.00  0.00    +0.024 A 
BRANCH  36  40
ATOM     40  C   LIG    1      -35.280  81.498  29.834  0.00  0.00    +0.040 A 
ATOM     41  N   LIG    1      -34.409  82.555  29.954  0.00  0.00    -0.361 N 
ATOM     42  H   LIG    1      -33.425  82.484  30.193  0.00  0.00    +0.165 HD
ATOM     43  C   LIG    1      -35.050  83.742  29.711  0.00  0.00    +0.083 A 
ATOM     44  C   LIG    1      -36.364  83.461  29.433  0.00  0.00    +0.019 A 
ATOM     45  C   LIG    1      -36.512  82.053  29.510  0.00  0.00    +0.027 A 
ENDBRANCH  36  40
ENDBRANCH  27  28
BRANCH  27  46
ATOM     46  C   LIG    1      -31.314  73.529  29.621  0.00  0.00    +0.138 C 
BRANCH  46  47
ATOM     47  C   LIG    1      -31.112  73.919  31.090  0.00  0.00    +0.175 C 
BRANCH  47  48
ATOM     48  O   LIG    1      -31.820  73.015  31.936  0.00  0.00    -0.393 OA
ATOM     49  H   LIG    1      -31.876  72.169  31.457  0.00  0.00    +0.209 HD
ENDBRANCH  47  48
ENDBRANCH  46  47
ENDBRANCH  27  46
ENDBRANCH   3  27
TORSDOF 10
ENDMDL
MODEL 7
REMARK VINA RESULT:      -7.0      4.248     11.157
REMARK  Name = modded_pdb/CHEMBL2037209_nitrogen_modded_with_ethanol_version_2.pdb
REMARK                            x       y       z     vdW  Elec       q    Type
REMARK                         _______ _______ _______ _____ _____    ______ ____
ROOT
ATOM      1  C   LIG    1      -36.674  76.146  27.413  0.00  0.00    +0.035 A 
ATOM      2  C   LIG    1      -35.277  75.961  27.397  0.00  0.00    +0.046 A 
ATOM      3  C   LIG    1      -34.390  76.776  28.125  0.00  0.00    +0.036 A 
ATOM      4  C   LIG    1      -34.973  77.796  28.892  0.00  0.00    +0.023 A 
ATOM      5  C   LIG    1      -36.359  77.998  28.914  0.00  0.00    +0.004 A 
ATOM      6  C   LIG    1      -37.209  77.181  28.167  0.00  0.00    +0.023 A 
ENDROOT
BRANCH   1   8
ATOM      7  C   LIG    1      -37.856  75.343  25.335  0.00  0.00    +0.248 C 
ATOM      8  N   LIG    1      -37.434  75.233  26.652  0.00  0.00    -0.281 N 
ATOM      9  H   LIG    1      -37.716  74.424  27.178  0.00  0.00    +0.155 HD
ATOM     10  O   LIG    1      -37.604  76.278  24.583  0.00  0.00    -0.270 OA
BRANCH   7  15
ATOM     11  C   LIG    1      -38.934  71.815  24.364  0.00  0.00    +0.049 A 
ATOM     12  C   LIG    1      -40.181  72.038  23.767  0.00  0.00    +0.038 A 
ATOM     13  C   LIG    1      -40.714  73.332  23.705  0.00  0.00    +0.057 A 
ATOM     14  C   LIG    1      -39.964  74.405  24.219  0.00  0.00    +0.025 A 
ATOM     15  C   LIG    1      -38.703  74.209  24.801  0.00  0.00    +0.040 A 
ATOM     16  C   LIG    1      -38.201  72.896  24.883  0.00  0.00    +0.039 A 
BRANCH  11  21
ATOM     17  C   LIG    1      -36.715  67.450  23.363  0.00  0.00    +0.067 C 
ATOM     18  C   LIG    1      -37.461  68.568  23.980  0.00  0.00    +0.056 A 
ATOM     19  N   LIG    1      -37.922  68.476  25.268  0.00  0.00    -0.241 NA
ATOM     20  C   LIG    1      -38.484  69.638  25.520  0.00  0.00    +0.204 A 
ATOM     21  N   LIG    1      -38.426  70.493  24.445  0.00  0.00    -0.306 N 
ATOM     22  C   LIG    1      -37.781  69.799  23.447  0.00  0.00    +0.115 A 
ENDBRANCH  11  21
BRANCH  13  23
ATOM     23  C   LIG    1      -42.084  73.573  23.111  0.00  0.00    +0.418 C 
ATOM     24  F   LIG    1      -42.298  72.840  21.987  0.00  0.00    -0.166 F 
ATOM     25  F   LIG    1      -42.280  74.873  22.765  0.00  0.00    -0.166 F 
ATOM     26  F   LIG    1      -43.097  73.254  23.963  0.00  0.00    -0.166 F 
ENDBRANCH  13  23
ENDBRANCH   7  15
ENDBRANCH   1   8
BRANCH   3  27
ATOM     27  N   LIG    1      -32.976  76.610  28.077  0.00  0.00    -0.298 N 
BRANCH  27  28
ATOM     28  C   LIG    1      -32.165  75.917  29.020  0.00  0.00    +0.036 A 
ATOM     29  C   LIG    1      -31.095  76.574  29.652  0.00  0.00    +0.047 A 
ATOM     30  C   LIG    1      -30.327  75.883  30.571  0.00  0.00    +0.043 A 
ATOM     31  N   LIG    1      -29.235  76.398  31.259  0.00  0.00    -0.281 N 
ATOM     32  H   LIG    1      -28.870  77.334  31.163  0.00  0.00    +0.155 HD
ATOM     33  C   LIG    1      -28.690  75.455  32.104  0.00  0.00    +0.249 C 
ATOM     34  O   LIG    1      -27.721  75.633  32.825  0.00  0.00    -0.270 OA
ATOM     35  C   LIG    1      -29.536  74.208  31.940  0.00  0.00    +0.048 C 
ATOM     36  C   LIG    1      -29.443  73.009  32.550  0.00  0.00    +0.039 C 
ATOM     37  C   LIG    1      -30.562  74.557  30.930  0.00  0.00    +0.008 A 
ATOM     38  C   LIG    1      -31.610  73.879  30.335  0.00  0.00    +0.012 A 
ATOM     39  C   LIG    1      -32.394  74.559  29.376  0.00  0.00    +0.024 A 
BRANCH  36  40
ATOM     40  C   LIG    1      -28.514  72.573  33.542  0.00  0.00    +0.040 A 
ATOM     41  N   LIG    1      -28.249  73.285  34.689  0.00  0.00    -0.361 N 
ATOM     42  H   LIG    1      -28.665  74.177  34.939  0.00  0.00    +0.165 HD
ATOM     43  C   LIG    1      -27.331  72.629  35.467  0.00  0.00    +0.083 A 
ATOM     44  C   LIG    1      -26.981  71.471  34.818  0.00  0.00    +0.019 A 
ATOM     45  C   LIG    1      -27.722  71.434  33.609  0.00  0.00    +0.027 A 
ENDBRANCH  36  40
ENDBRANCH  27  28
BRANCH  27  46
ATOM     46  C   LIG    1      -32.283  77.139  26.876  0.00  0.00    +0.138 C 
BRANCH  46  47
ATOM     47  C   LIG    1      -32.302  78.672  26.834  0.00  0.00    +0.175 C 
BRANCH  47  48
ATOM     48  O   LIG    1      -32.334  79.121  25.480  0.00  0.00    -0.393 OA
ATOM     49  H   LIG    1      -32.550  80.070  25.504  0.00  0.00    +0.209 HD
ENDBRANCH  47  48
ENDBRANCH  46  47
ENDBRANCH  27  46
ENDBRANCH   3  27
TORSDOF 10
ENDMDL
MODEL 8
REMARK VINA RESULT:      -7.0      8.140     16.310
REMARK  Name = modded_pdb/CHEMBL2037209_nitrogen_modded_with_ethanol_version_2.pdb
REMARK                            x       y       z     vdW  Elec       q    Type
REMARK                         _______ _______ _______ _____ _____    ______ ____
ROOT
ATOM      1  C   LIG    1      -29.436  75.739  32.057  0.00  0.00    +0.035 A 
ATOM      2  C   LIG    1      -28.123  76.132  31.730  0.00  0.00    +0.046 A 
ATOM      3  C   LIG    1      -27.025  75.910  32.582  0.00  0.00    +0.036 A 
ATOM      4  C   LIG    1      -27.302  75.256  33.793  0.00  0.00    +0.023 A 
ATOM      5  C   LIG    1      -28.603  74.865  34.136  0.00  0.00    +0.004 A 
ATOM      6  C   LIG    1      -29.671  75.115  33.273  0.00  0.00    +0.023 A 
ENDROOT
BRANCH   1   8
ATOM      7  C   LIG    1      -31.101  75.116  30.267  0.00  0.00    +0.248 C 
ATOM      8  N   LIG    1      -30.427  76.008  31.088  0.00  0.00    -0.281 N 
ATOM      9  H   LIG    1      -30.619  76.990  30.987  0.00  0.00    +0.155 HD
ATOM     10  O   LIG    1      -30.956  73.899  30.269  0.00  0.00    -0.270 OA
BRANCH   7  15
ATOM     11  C   LIG    1      -34.218  75.519  28.105  0.00  0.00    +0.049 A 
ATOM     12  C   LIG    1      -33.956  76.715  27.424  0.00  0.00    +0.038 A 
ATOM     13  C   LIG    1      -32.782  77.433  27.684  0.00  0.00    +0.057 A 
ATOM     14  C   LIG    1      -31.858  76.921  28.612  0.00  0.00    +0.025 A 
ATOM     15  C   LIG    1      -32.088  75.714  29.289  0.00  0.00    +0.040 A 
ATOM     16  C   LIG    1      -33.289  75.023  29.037  0.00  0.00    +0.039 A 
BRANCH  11  21
ATOM     17  C   LIG    1      -38.841  74.285  26.660  0.00  0.00    +0.067 C 
ATOM     18  C   LIG    1      -37.473  74.301  27.225  0.00  0.00    +0.056 A 
ATOM     19  N   LIG    1      -36.926  73.166  27.765  0.00  0.00    -0.241 NA
ATOM     20  C   LIG    1      -35.706  73.503  28.121  0.00  0.00    +0.204 A 
ATOM     21  N   LIG    1      -35.427  74.822  27.850  0.00  0.00    -0.306 N 
ATOM     22  C   LIG    1      -36.570  75.341  27.287  0.00  0.00    +0.115 A 
ENDBRANCH  11  21
BRANCH  13  23
ATOM     23  C   LIG    1      -32.519  78.753  26.994  0.00  0.00    +0.418 C 
ATOM     24  F   LIG    1      -33.573  79.606  27.087  0.00  0.00    -0.166 F 
ATOM     25  F   LIG    1      -32.260  78.605  25.669  0.00  0.00    -0.166 F 
ATOM     26  F   LIG    1      -31.452  79.422  27.513  0.00  0.00    -0.166 F 
ENDBRANCH  13  23
ENDBRANCH   7  15
ENDBRANCH   1   8
BRANCH   3  27
ATOM     27  N   LIG    1      -25.704  76.341  32.266  0.00  0.00    -0.298 N 
BRANCH  27  28
ATOM     28  C   LIG    1      -24.915  77.276  32.993  0.00  0.00    +0.036 A 
ATOM     29  C   LIG    1      -25.495  78.051  34.013  0.00  0.00    +0.047 A 
ATOM     30  C   LIG    1      -24.707  78.947  34.712  0.00  0.00    +0.043 A 
ATOM     31  N   LIG    1      -25.145  79.783  35.731  0.00  0.00    -0.281 N 
ATOM     32  H   LIG    1      -26.092  79.841  36.075  0.00  0.00    +0.155 HD
ATOM     33  C   LIG    1      -24.112  80.550  36.224  0.00  0.00    +0.249 C 
ATOM     34  O   LIG    1      -24.213  81.375  37.118  0.00  0.00    -0.270 OA
ATOM     35  C   LIG    1      -22.880  80.148  35.437  0.00  0.00    +0.048 C 
ATOM     36  C   LIG    1      -21.607  80.580  35.537  0.00  0.00    +0.039 C 
ATOM     37  C   LIG    1      -23.344  79.121  34.476  0.00  0.00    +0.008 A 
ATOM     38  C   LIG    1      -22.736  78.371  33.485  0.00  0.00    +0.012 A 
ATOM     39  C   LIG    1      -23.528  77.466  32.744  0.00  0.00    +0.024 A 
BRANCH  36  40
ATOM     40  C   LIG    1      -21.050  81.545  36.430  0.00  0.00    +0.040 A 
ATOM     41  N   LIG    1      -21.370  82.882  36.387  0.00  0.00    -0.361 N 
ATOM     42  H   LIG    1      -22.008  83.314  35.726  0.00  0.00    +0.165 HD
ATOM     43  C   LIG    1      -20.703  83.572  37.365  0.00  0.00    +0.083 A 
ATOM     44  C   LIG    1      -19.927  82.676  38.057  0.00  0.00    +0.019 A 
ATOM     45  C   LIG    1      -20.143  81.403  37.472  0.00  0.00    +0.027 A 
ENDBRANCH  36  40
ENDBRANCH  27  28
BRANCH  27  46
ATOM     46  C   LIG    1      -25.049  75.684  31.109  0.00  0.00    +0.138 C 
BRANCH  46  47
ATOM     47  C   LIG    1      -24.894  74.173  31.320  0.00  0.00    +0.175 C 
BRANCH  47  48
ATOM     48  O   LIG    1      -24.066  73.923  32.454  0.00  0.00    -0.393 OA
ATOM     49  H   LIG    1      -23.826  74.791  32.824  0.00  0.00    +0.209 HD
ENDBRANCH  47  48
ENDBRANCH  46  47
ENDBRANCH  27  46
ENDBRANCH   3  27
TORSDOF 10
ENDMDL
MODEL 9
REMARK VINA RESULT:      -6.9      3.773      8.071
REMARK  Name = modded_pdb/CHEMBL2037209_nitrogen_modded_with_ethanol_version_2.pdb
REMARK                            x       y       z     vdW  Elec       q    Type
REMARK                         _______ _______ _______ _____ _____    ______ ____
ROOT
ATOM      1  C   LIG    1      -35.181  69.472  25.717  0.00  0.00    +0.035 A 
ATOM      2  C   LIG    1      -36.453  70.068  25.616  0.00  0.00    +0.046 A 
ATOM      3  C   LIG    1      -37.470  69.563  24.784  0.00  0.00    +0.036 A 
ATOM      4  C   LIG    1      -37.156  68.408  24.052  0.00  0.00    +0.023 A 
ATOM      5  C   LIG    1      -35.893  67.807  24.135  0.00  0.00    +0.004 A 
ATOM      6  C   LIG    1      -34.903  68.343  24.959  0.00  0.00    +0.023 A 
ENDROOT
BRANCH   1   8
ATOM      7  C   LIG    1      -34.252  70.016  27.998  0.00  0.00    +0.248 C 
ATOM      8  N   LIG    1      -34.275  70.079  26.613  0.00  0.00    -0.281 N 
ATOM      9  H   LIG    1      -33.590  70.652  26.149  0.00  0.00    +0.155 HD
ATOM     10  O   LIG    1      -35.033  69.376  28.694  0.00  0.00    -0.270 OA
BRANCH   7  15
ATOM     11  C   LIG    1      -32.258  73.011  29.264  0.00  0.00    +0.049 A 
ATOM     12  C   LIG    1      -31.169  72.398  29.897  0.00  0.00    +0.038 A 
ATOM     13  C   LIG    1      -31.083  71.001  29.960  0.00  0.00    +0.057 A 
ATOM     14  C   LIG    1      -32.086  70.227  29.351  0.00  0.00    +0.025 A 
ATOM     15  C   LIG    1      -33.174  70.818  28.692  0.00  0.00    +0.040 A 
ATOM     16  C   LIG    1      -33.258  72.223  28.668  0.00  0.00    +0.039 A 
BRANCH  11  21
ATOM     17  C   LIG    1      -33.874  77.722  28.846  0.00  0.00    +0.067 C 
ATOM     18  C   LIG    1      -33.066  76.497  29.031  0.00  0.00    +0.056 A 
ATOM     19  N   LIG    1      -31.750  76.576  29.406  0.00  0.00    -0.241 NA
ATOM     20  C   LIG    1      -31.348  75.330  29.531  0.00  0.00    +0.204 A 
ATOM     21  N   LIG    1      -32.343  74.427  29.239  0.00  0.00    -0.306 N 
ATOM     22  C   LIG    1      -33.446  75.177  28.902  0.00  0.00    +0.115 A 
ENDBRANCH  11  21
BRANCH  13  23
ATOM     23  C   LIG    1      -29.939  70.333  30.689  0.00  0.00    +0.418 C 
ATOM     24  F   LIG    1      -28.727  70.805  30.295  0.00  0.00    -0.166 F 
ATOM     25  F   LIG    1      -29.910  68.989  30.492  0.00  0.00    -0.166 F 
ATOM     26  F   LIG    1      -29.989  70.514  32.038  0.00  0.00    -0.166 F 
ENDBRANCH  13  23
ENDBRANCH   7  15
ENDBRANCH   1   8
BRANCH   3  27
ATOM     27  N   LIG    1      -38.743  70.190  24.657  0.00  0.00    -0.298 N 
BRANCH  27  28
ATOM     28  C   LIG    1      -39.001  71.585  24.542  0.00  0.00    +0.036 A 
ATOM     29  C   LIG    1      -38.050  72.519  24.993  0.00  0.00    +0.047 A 
ATOM     30  C   LIG    1      -38.318  73.870  24.864  0.00  0.00    +0.043 A 
ATOM     31  N   LIG    1      -37.482  74.901  25.274  0.00  0.00    -0.281 N 
ATOM     32  H   LIG    1      -36.586  74.785  25.722  0.00  0.00    +0.155 HD
ATOM     33  C   LIG    1      -38.038  76.131  24.999  0.00  0.00    +0.249 C 
ATOM     34  O   LIG    1      -37.525  77.209  25.256  0.00  0.00    -0.270 OA
ATOM     35  C   LIG    1      -39.369  75.849  24.331  0.00  0.00    +0.048 C 
ATOM     36  C   LIG    1      -40.296  76.700  23.847  0.00  0.00    +0.039 C 
ATOM     37  C   LIG    1      -39.485  74.373  24.288  0.00  0.00    +0.008 A 
ATOM     38  C   LIG    1      -40.439  73.485  23.828  0.00  0.00    +0.012 A 
ATOM     39  C   LIG    1      -40.196  72.100  23.970  0.00  0.00    +0.024 A 
BRANCH  36  40
ATOM     40  C   LIG    1      -40.280  78.128  23.819  0.00  0.00    +0.040 A 
ATOM     41  N   LIG    1      -39.281  78.858  23.218  0.00  0.00    -0.361 N 
ATOM     42  H   LIG    1      -38.465  78.470  22.755  0.00  0.00    +0.165 HD
ATOM     43  C   LIG    1      -39.528  80.201  23.329  0.00  0.00    +0.083 A 
ATOM     44  C   LIG    1      -40.703  80.357  24.020  0.00  0.00    +0.019 A 
ATOM     45  C   LIG    1      -41.177  79.058  24.329  0.00  0.00    +0.027 A 
ENDBRANCH  36  40
ENDBRANCH  27  28
BRANCH  27  46
ATOM     46  C   LIG    1      -39.919  69.292  24.544  0.00  0.00    +0.138 C 
BRANCH  46  47
ATOM     47  C   LIG    1      -40.495  68.928  25.918  0.00  0.00    +0.175 C 
BRANCH  47  48
ATOM     48  O   LIG    1      -39.974  67.671  26.346  0.00  0.00    -0.393 OA
ATOM     49  H   LIG    1      -39.387  67.852  27.101  0.00  0.00    +0.209 HD
ENDBRANCH  47  48
ENDBRANCH  46  47
ENDBRANCH  27  46
ENDBRANCH   3  27
TORSDOF 10
ENDMDL
