MODEL 1
REMARK VINA RESULT:      -6.6      0.000      0.000
REMARK  Name = modded_pdb/CHEMBL2037209_nitrogen_modded_with_ethanol_version_1.pdb
REMARK                            x       y       z     vdW  Elec       q    Type
REMARK                         _______ _______ _______ _____ _____    ______ ____
ROOT
ATOM      1  C   LIG    1      -37.709  68.197  25.838  0.00  0.00    +0.038 A 
ATOM      2  C   LIG    1      -37.161  69.210  26.638  0.00  0.00    +0.046 A 
ATOM      3  C   LIG    1      -37.448  69.291  28.001  0.00  0.00    +0.033 A 
ATOM      4  C   LIG    1      -38.287  68.308  28.549  0.00  0.00    +0.023 A 
ATOM      5  C   LIG    1      -38.852  67.302  27.751  0.00  0.00    +0.004 A 
ATOM      6  C   LIG    1      -38.591  67.263  26.382  0.00  0.00    +0.023 A 
ENDROOT
BRANCH   1   8
ATOM      7  C   LIG    1      -37.548  69.067  23.487  0.00  0.00    +0.251 C 
ATOM      8  N   LIG    1      -37.270  68.117  24.497  0.00  0.00    -0.265 N 
ATOM      9  O   LIG    1      -36.897  69.074  22.436  0.00  0.00    -0.270 OA
BRANCH   7  14
ATOM     10  C   LIG    1      -40.973  70.778  23.118  0.00  0.00    +0.049 A 
ATOM     11  C   LIG    1      -40.699  72.079  23.566  0.00  0.00    +0.038 A 
ATOM     12  C   LIG    1      -39.455  72.392  24.103  0.00  0.00    +0.057 A 
ATOM     13  C   LIG    1      -38.481  71.387  24.173  0.00  0.00    +0.025 A 
ATOM     14  C   LIG    1      -38.653  70.115  23.613  0.00  0.00    +0.040 A 
ATOM     15  C   LIG    1      -39.948  69.802  23.144  0.00  0.00    +0.039 A 
BRANCH  10  20
ATOM     16  C   LIG    1      -45.879  70.999  22.218  0.00  0.00    +0.067 C 
ATOM     17  C   LIG    1      -44.466  70.574  22.294  0.00  0.00    +0.056 A 
ATOM     18  N   LIG    1      -44.081  69.293  22.007  0.00  0.00    -0.241 NA
ATOM     19  C   LIG    1      -42.782  69.264  22.221  0.00  0.00    +0.204 A 
ATOM     20  N   LIG    1      -42.294  70.468  22.677  0.00  0.00    -0.306 N 
ATOM     21  C   LIG    1      -43.373  71.327  22.654  0.00  0.00    +0.115 A 
ENDBRANCH  10  20
BRANCH  12  22
ATOM     22  C   LIG    1      -39.153  73.760  24.669  0.00  0.00    +0.418 C 
ATOM     23  F   LIG    1      -37.826  74.049  24.609  0.00  0.00    -0.166 F 
ATOM     24  F   LIG    1      -39.515  73.902  25.974  0.00  0.00    -0.166 F 
ATOM     25  F   LIG    1      -39.790  74.762  24.000  0.00  0.00    -0.166 F 
ENDBRANCH  12  22
ENDBRANCH   7  14
BRANCH   8  26
ATOM     26  C   LIG    1      -36.187  67.122  24.313  0.00  0.00    +0.141 C 
BRANCH  26  27
ATOM     27  C   LIG    1      -34.787  67.563  24.737  0.00  0.00    +0.175 C 
BRANCH  27  28
ATOM     28  O   LIG    1      -34.543  68.918  24.358  0.00  0.00    -0.393 OA
ATOM     29  H   LIG    1      -33.685  68.942  23.898  0.00  0.00    +0.209 HD
ENDBRANCH  27  28
ENDBRANCH  26  27
ENDBRANCH   8  26
ENDBRANCH   1   8
BRANCH   3  30
ATOM     30  N   LIG    1      -36.885  70.259  28.864  0.00  0.00    -0.314 N 
ATOM     31  H   LIG    1      -37.291  70.198  29.792  0.00  0.00    +0.152 HD
BRANCH  30  32
ATOM     32  C   LIG    1      -36.267  71.500  28.593  0.00  0.00    +0.033 A 
ATOM     33  C   LIG    1      -37.050  72.591  28.164  0.00  0.00    +0.047 A 
ATOM     34  C   LIG    1      -36.408  73.788  27.905  0.00  0.00    +0.043 A 
ATOM     35  N   LIG    1      -36.978  75.003  27.431  0.00  0.00    -0.281 N 
ATOM     36  H   LIG    1      -37.964  75.117  27.213  0.00  0.00    +0.155 HD
ATOM     37  C   LIG    1      -36.050  75.994  27.223  0.00  0.00    +0.249 C 
ATOM     38  O   LIG    1      -36.235  77.083  26.731  0.00  0.00    -0.270 OA
ATOM     39  C   LIG    1      -34.735  75.343  27.699  0.00  0.00    +0.048 C 
ATOM     40  C   LIG    1      -33.488  75.883  27.804  0.00  0.00    +0.039 C 
ATOM     41  C   LIG    1      -35.044  73.964  28.062  0.00  0.00    +0.008 A 
ATOM     42  C   LIG    1      -34.252  72.907  28.498  0.00  0.00    +0.012 A 
ATOM     43  C   LIG    1      -34.883  71.692  28.776  0.00  0.00    +0.024 A 
BRANCH  40  44
ATOM     44  C   LIG    1      -33.115  77.205  27.467  0.00  0.00    +0.040 A 
ATOM     45  N   LIG    1      -33.685  78.291  28.086  0.00  0.00    -0.361 N 
ATOM     46  H   LIG    1      -34.315  78.238  28.879  0.00  0.00    +0.165 HD
ATOM     47  C   LIG    1      -33.176  79.450  27.573  0.00  0.00    +0.083 A 
ATOM     48  C   LIG    1      -32.286  79.118  26.580  0.00  0.00    +0.019 A 
ATOM     49  C   LIG    1      -32.257  77.702  26.499  0.00  0.00    +0.027 A 
ENDBRANCH  40  44
ENDBRANCH  30  32
ENDBRANCH   3  30
TORSDOF 10
ENDMDL
MODEL 2
REMARK VINA RESULT:      -6.6      4.232      7.268
REMARK  Name = modded_pdb/CHEMBL2037209_nitrogen_modded_with_ethanol_version_1.pdb
REMARK                            x       y       z     vdW  Elec       q    Type
REMARK                         _______ _______ _______ _____ _____    ______ ____
ROOT
ATOM      1  C   LIG    1      -38.073  68.020  21.581  0.00  0.00    +0.038 A 
ATOM      2  C   LIG    1      -38.058  69.051  22.531  0.00  0.00    +0.046 A 
ATOM      3  C   LIG    1      -39.102  69.212  23.442  0.00  0.00    +0.033 A 
ATOM      4  C   LIG    1      -40.159  68.290  23.388  0.00  0.00    +0.023 A 
ATOM      5  C   LIG    1      -40.189  67.266  22.429  0.00  0.00    +0.004 A 
ATOM      6  C   LIG    1      -39.159  67.148  21.498  0.00  0.00    +0.023 A 
ENDROOT
BRANCH   1   8
ATOM      7  C   LIG    1      -35.777  67.104  21.135  0.00  0.00    +0.251 C 
ATOM      8  N   LIG    1      -36.920  67.856  20.779  0.00  0.00    -0.265 N 
ATOM      9  O   LIG    1      -34.950  66.774  20.277  0.00  0.00    -0.270 OA
BRANCH   7  14
ATOM     10  C   LIG    1      -35.563  64.892  24.276  0.00  0.00    +0.049 A 
ATOM     11  C   LIG    1      -35.213  65.824  25.265  0.00  0.00    +0.038 A 
ATOM     12  C   LIG    1      -34.921  67.140  24.922  0.00  0.00    +0.057 A 
ATOM     13  C   LIG    1      -35.001  67.517  23.575  0.00  0.00    +0.025 A 
ATOM     14  C   LIG    1      -35.482  66.668  22.570  0.00  0.00    +0.040 A 
ATOM     15  C   LIG    1      -35.696  65.320  22.933  0.00  0.00    +0.039 A 
BRANCH  10  20
ATOM     16  C   LIG    1      -35.684  59.902  24.219  0.00  0.00    +0.067 C 
ATOM     17  C   LIG    1      -35.803  61.322  24.610  0.00  0.00    +0.056 A 
ATOM     18  N   LIG    1      -36.514  61.710  25.712  0.00  0.00    -0.241 NA
ATOM     19  C   LIG    1      -36.444  63.024  25.726  0.00  0.00    +0.204 A 
ATOM     20  N   LIG    1      -35.746  63.529  24.651  0.00  0.00    -0.306 N 
ATOM     21  C   LIG    1      -35.276  62.422  23.975  0.00  0.00    +0.115 A 
ENDBRANCH  10  20
BRANCH  12  22
ATOM     22  C   LIG    1      -34.462  68.147  25.950  0.00  0.00    +0.418 C 
ATOM     23  F   LIG    1      -35.510  68.734  26.586  0.00  0.00    -0.166 F 
ATOM     24  F   LIG    1      -33.720  69.162  25.425  0.00  0.00    -0.166 F 
ATOM     25  F   LIG    1      -33.688  67.594  26.925  0.00  0.00    -0.166 F 
ENDBRANCH  12  22
ENDBRANCH   7  14
BRANCH   8  26
ATOM     26  C   LIG    1      -37.148  68.251  19.369  0.00  0.00    +0.141 C 
BRANCH  26  27
ATOM     27  C   LIG    1      -37.535  67.129  18.408  0.00  0.00    +0.175 C 
BRANCH  27  28
ATOM     28  O   LIG    1      -36.398  66.672  17.675  0.00  0.00    -0.393 OA
ATOM     29  H   LIG    1      -36.616  66.734  16.728  0.00  0.00    +0.209 HD
ENDBRANCH  27  28
ENDBRANCH  26  27
ENDBRANCH   8  26
ENDBRANCH   1   8
BRANCH   3  30
ATOM     30  N   LIG    1      -39.116  70.200  24.451  0.00  0.00    -0.314 N 
ATOM     31  H   LIG    1      -39.382  69.802  25.346  0.00  0.00    +0.152 HD
BRANCH  30  32
ATOM     32  C   LIG    1      -39.282  71.602  24.380  0.00  0.00    +0.033 A 
ATOM     33  C   LIG    1      -38.252  72.450  24.834  0.00  0.00    +0.047 A 
ATOM     34  C   LIG    1      -38.453  73.815  24.751  0.00  0.00    +0.043 A 
ATOM     35  N   LIG    1      -37.580  74.857  25.178  0.00  0.00    -0.281 N 
ATOM     36  H   LIG    1      -36.680  74.693  25.619  0.00  0.00    +0.155 HD
ATOM     37  C   LIG    1      -38.108  76.112  25.004  0.00  0.00    +0.249 C 
ATOM     38  O   LIG    1      -37.636  77.165  25.368  0.00  0.00    -0.270 OA
ATOM     39  C   LIG    1      -39.455  75.830  24.309  0.00  0.00    +0.048 C 
ATOM     40  C   LIG    1      -40.378  76.704  23.817  0.00  0.00    +0.039 C 
ATOM     41  C   LIG    1      -39.605  74.381  24.233  0.00  0.00    +0.008 A 
ATOM     42  C   LIG    1      -40.630  73.565  23.765  0.00  0.00    +0.012 A 
ATOM     43  C   LIG    1      -40.442  72.182  23.829  0.00  0.00    +0.024 A 
BRANCH  40  44
ATOM     44  C   LIG    1      -40.302  78.116  23.860  0.00  0.00    +0.040 A 
ATOM     45  N   LIG    1      -39.337  78.804  23.166  0.00  0.00    -0.361 N 
ATOM     46  H   LIG    1      -38.691  78.384  22.507  0.00  0.00    +0.165 HD
ATOM     47  C   LIG    1      -39.462  80.147  23.386  0.00  0.00    +0.083 A 
ATOM     48  C   LIG    1      -40.502  80.337  24.263  0.00  0.00    +0.019 A 
ATOM     49  C   LIG    1      -41.026  79.056  24.577  0.00  0.00    +0.027 A 
ENDBRANCH  40  44
ENDBRANCH  30  32
ENDBRANCH   3  30
TORSDOF 10
ENDMDL
MODEL 3
REMARK VINA RESULT:      -6.6     13.434     18.147
REMARK  Name = modded_pdb/CHEMBL2037209_nitrogen_modded_with_ethanol_version_1.pdb
REMARK                            x       y       z     vdW  Elec       q    Type
REMARK                         _______ _______ _______ _____ _____    ______ ____
ROOT
ATOM      1  C   LIG    1      -25.965  74.728  32.410  0.00  0.00    +0.038 A 
ATOM      2  C   LIG    1      -26.240  73.626  31.588  0.00  0.00    +0.046 A 
ATOM      3  C   LIG    1      -25.833  72.339  31.942  0.00  0.00    +0.033 A 
ATOM      4  C   LIG    1      -25.157  72.184  33.162  0.00  0.00    +0.023 A 
ATOM      5  C   LIG    1      -24.864  73.285  33.981  0.00  0.00    +0.004 A 
ATOM      6  C   LIG    1      -25.239  74.569  33.590  0.00  0.00    +0.023 A 
ENDROOT
BRANCH   1   8
ATOM      7  C   LIG    1      -25.788  77.087  31.563  0.00  0.00    +0.251 C 
ATOM      8  N   LIG    1      -26.520  75.974  32.037  0.00  0.00    -0.265 N 
ATOM      9  O   LIG    1      -26.363  78.020  30.992  0.00  0.00    -0.270 OA
BRANCH   7  14
ATOM     10  C   LIG    1      -22.385  78.102  33.043  0.00  0.00    +0.049 A 
ATOM     11  C   LIG    1      -21.501  77.741  32.015  0.00  0.00    +0.038 A 
ATOM     12  C   LIG    1      -21.963  77.060  30.893  0.00  0.00    +0.057 A 
ATOM     13  C   LIG    1      -23.329  76.759  30.807  0.00  0.00    +0.025 A 
ATOM     14  C   LIG    1      -24.274  77.218  31.732  0.00  0.00    +0.040 A 
ATOM     15  C   LIG    1      -23.768  77.838  32.895  0.00  0.00    +0.039 A 
BRANCH  10  20
ATOM     16  C   LIG    1      -21.084  81.411  36.546  0.00  0.00    +0.067 C 
ATOM     17  C   LIG    1      -21.278  80.174  35.762  0.00  0.00    +0.056 A 
ATOM     18  N   LIG    1      -20.601  79.022  36.053  0.00  0.00    -0.241 NA
ATOM     19  C   LIG    1      -20.980  78.155  35.138  0.00  0.00    +0.204 A 
ATOM     20  N   LIG    1      -21.856  78.698  34.225  0.00  0.00    -0.306 N 
ATOM     21  C   LIG    1      -22.097  79.980  34.675  0.00  0.00    +0.115 A 
ENDBRANCH  10  20
BRANCH  12  22
ATOM     22  C   LIG    1      -21.027  76.585  29.807  0.00  0.00    +0.418 C 
ATOM     23  F   LIG    1      -20.237  77.591  29.346  0.00  0.00    -0.166 F 
ATOM     24  F   LIG    1      -21.669  76.077  28.719  0.00  0.00    -0.166 F 
ATOM     25  F   LIG    1      -20.184  75.602  30.227  0.00  0.00    -0.166 F 
ENDBRANCH  12  22
ENDBRANCH   7  14
BRANCH   8  26
ATOM     26  C   LIG    1      -27.989  75.906  31.846  0.00  0.00    +0.141 C 
BRANCH  26  27
ATOM     27  C   LIG    1      -28.836  76.698  32.840  0.00  0.00    +0.175 C 
BRANCH  27  28
ATOM     28  O   LIG    1      -29.251  77.943  32.277  0.00  0.00    -0.393 OA
ATOM     29  H   LIG    1      -28.655  78.141  31.533  0.00  0.00    +0.209 HD
ENDBRANCH  27  28
ENDBRANCH  26  27
ENDBRANCH   8  26
ENDBRANCH   1   8
BRANCH   3  30
ATOM     30  N   LIG    1      -26.125  71.187  31.178  0.00  0.00    -0.314 N 
ATOM     31  H   LIG    1      -26.995  70.761  31.482  0.00  0.00    +0.152 HD
BRANCH  30  32
ATOM     32  C   LIG    1      -25.285  70.313  30.453  0.00  0.00    +0.033 A 
ATOM     33  C   LIG    1      -25.603  68.942  30.378  0.00  0.00    +0.047 A 
ATOM     34  C   LIG    1      -24.754  68.118  29.663  0.00  0.00    +0.043 A 
ATOM     35  N   LIG    1      -24.848  66.708  29.481  0.00  0.00    -0.281 N 
ATOM     36  H   LIG    1      -25.581  66.135  29.889  0.00  0.00    +0.155 HD
ATOM     37  C   LIG    1      -23.805  66.183  28.759  0.00  0.00    +0.249 C 
ATOM     38  O   LIG    1      -23.575  65.015  28.543  0.00  0.00    -0.270 OA
ATOM     39  C   LIG    1      -22.987  67.432  28.372  0.00  0.00    +0.048 C 
ATOM     40  C   LIG    1      -21.882  67.534  27.581  0.00  0.00    +0.039 C 
ATOM     41  C   LIG    1      -23.623  68.578  29.011  0.00  0.00    +0.008 A 
ATOM     42  C   LIG    1      -23.296  69.930  29.058  0.00  0.00    +0.012 A 
ATOM     43  C   LIG    1      -24.147  70.782  29.766  0.00  0.00    +0.024 A 
BRANCH  40  44
ATOM     44  C   LIG    1      -21.211  66.469  26.935  0.00  0.00    +0.040 A 
ATOM     45  N   LIG    1      -21.756  65.832  25.848  0.00  0.00    -0.361 N 
ATOM     46  H   LIG    1      -22.599  66.128  25.369  0.00  0.00    +0.165 HD
ATOM     47  C   LIG    1      -20.929  64.831  25.421  0.00  0.00    +0.083 A 
ATOM     48  C   LIG    1      -19.844  64.791  26.264  0.00  0.00    +0.019 A 
ATOM     49  C   LIG    1      -20.026  65.813  27.230  0.00  0.00    +0.027 A 
ENDBRANCH  40  44
ENDBRANCH  30  32
ENDBRANCH   3  30
TORSDOF 10
ENDMDL
MODEL 4
REMARK VINA RESULT:      -6.5     17.769     22.854
REMARK  Name = modded_pdb/CHEMBL2037209_nitrogen_modded_with_ethanol_version_1.pdb
REMARK                            x       y       z     vdW  Elec       q    Type
REMARK                         _______ _______ _______ _____ _____    ______ ____
ROOT
ATOM      1  C   LIG    1      -19.769  84.743  12.909  0.00  0.00    +0.038 A 
ATOM      2  C   LIG    1      -20.046  83.465  12.405  0.00  0.00    +0.046 A 
ATOM      3  C   LIG    1      -19.078  82.460  12.405  0.00  0.00    +0.033 A 
ATOM      4  C   LIG    1      -17.822  82.768  12.951  0.00  0.00    +0.023 A 
ATOM      5  C   LIG    1      -17.532  84.050  13.442  0.00  0.00    +0.004 A 
ATOM      6  C   LIG    1      -18.497  85.054  13.392  0.00  0.00    +0.023 A 
ENDROOT
BRANCH   1   8
ATOM      7  C   LIG    1      -22.107  85.398  13.553  0.00  0.00    +0.251 C 
ATOM      8  N   LIG    1      -20.841  85.662  12.983  0.00  0.00    -0.265 N 
ATOM      9  O   LIG    1      -22.874  86.325  13.836  0.00  0.00    -0.270 OA
BRANCH   7  14
ATOM     10  C   LIG    1      -24.078  82.114  13.193  0.00  0.00    +0.049 A 
ATOM     11  C   LIG    1      -23.800  81.472  14.409  0.00  0.00    +0.038 A 
ATOM     12  C   LIG    1      -22.886  82.020  15.303  0.00  0.00    +0.057 A 
ATOM     13  C   LIG    1      -22.265  83.231  14.970  0.00  0.00    +0.025 A 
ATOM     14  C   LIG    1      -22.610  83.983  13.840  0.00  0.00    +0.040 A 
ATOM     15  C   LIG    1      -23.482  83.367  12.915  0.00  0.00    +0.039 A 
BRANCH  10  20
ATOM     16  C   LIG    1      -27.234  78.899  11.042  0.00  0.00    +0.067 C 
ATOM     17  C   LIG    1      -26.324  80.031  11.312  0.00  0.00    +0.056 A 
ATOM     18  N   LIG    1      -25.851  80.833  10.310  0.00  0.00    -0.241 NA
ATOM     19  C   LIG    1      -25.047  81.691  10.901  0.00  0.00    +0.204 A 
ATOM     20  N   LIG    1      -24.936  81.466  12.255  0.00  0.00    -0.306 N 
ATOM     21  C   LIG    1      -25.817  80.439  12.524  0.00  0.00    +0.115 A 
ENDBRANCH  10  20
BRANCH  12  22
ATOM     22  C   LIG    1      -22.502  81.315  16.582  0.00  0.00    +0.418 C 
ATOM     23  F   LIG    1      -23.251  80.200  16.789  0.00  0.00    -0.166 F 
ATOM     24  F   LIG    1      -22.652  82.086  17.695  0.00  0.00    -0.166 F 
ATOM     25  F   LIG    1      -21.203  80.906  16.592  0.00  0.00    -0.166 F 
ENDBRANCH  12  22
ENDBRANCH   7  14
BRANCH   8  26
ATOM     26  C   LIG    1      -20.411  87.057  12.725  0.00  0.00    +0.141 C 
BRANCH  26  27
ATOM     27  C   LIG    1      -20.214  87.941  13.954  0.00  0.00    +0.175 C 
BRANCH  27  28
ATOM     28  O   LIG    1      -21.203  88.970  14.005  0.00  0.00    -0.393 OA
ATOM     29  H   LIG    1      -21.547  89.090  13.103  0.00  0.00    +0.209 HD
ENDBRANCH  27  28
ENDBRANCH  26  27
ENDBRANCH   8  26
ENDBRANCH   1   8
BRANCH   3  30
ATOM     30  N   LIG    1      -19.317  81.142  11.956  0.00  0.00    -0.314 N 
ATOM     31  H   LIG    1      -18.855  80.972  11.068  0.00  0.00    +0.152 HD
BRANCH  30  32
ATOM     32  C   LIG    1      -20.367  80.239  12.233  0.00  0.00    +0.033 A 
ATOM     33  C   LIG    1      -20.475  79.666  13.517  0.00  0.00    +0.047 A 
ATOM     34  C   LIG    1      -21.514  78.785  13.748  0.00  0.00    +0.043 A 
ATOM     35  N   LIG    1      -21.799  78.061  14.941  0.00  0.00    -0.281 N 
ATOM     36  H   LIG    1      -21.232  78.114  15.782  0.00  0.00    +0.155 HD
ATOM     37  C   LIG    1      -22.879  77.221  14.821  0.00  0.00    +0.249 C 
ATOM     38  O   LIG    1      -23.280  76.419  15.633  0.00  0.00    -0.270 OA
ATOM     39  C   LIG    1      -23.384  77.507  13.393  0.00  0.00    +0.048 C 
ATOM     40  C   LIG    1      -24.484  77.024  12.748  0.00  0.00    +0.039 C 
ATOM     41  C   LIG    1      -22.454  78.454  12.788  0.00  0.00    +0.008 A 
ATOM     42  C   LIG    1      -22.378  79.017  11.518  0.00  0.00    +0.012 A 
ATOM     43  C   LIG    1      -21.343  79.920  11.267  0.00  0.00    +0.024 A 
BRANCH  40  44
ATOM     44  C   LIG    1      -25.424  76.103  13.268  0.00  0.00    +0.040 A 
ATOM     45  N   LIG    1      -25.075  74.805  13.550  0.00  0.00    -0.361 N 
ATOM     46  H   LIG    1      -24.130  74.441  13.512  0.00  0.00    +0.165 HD
ATOM     47  C   LIG    1      -26.158  74.114  14.018  0.00  0.00    +0.083 A 
ATOM     48  C   LIG    1      -27.237  74.965  14.010  0.00  0.00    +0.019 A 
ATOM     49  C   LIG    1      -26.782  76.216  13.522  0.00  0.00    +0.027 A 
ENDBRANCH  40  44
ENDBRANCH  30  32
ENDBRANCH   3  30
TORSDOF 10
ENDMDL
MODEL 5
REMARK VINA RESULT:      -6.5     17.867     22.626
REMARK  Name = modded_pdb/CHEMBL2037209_nitrogen_modded_with_ethanol_version_1.pdb
REMARK                            x       y       z     vdW  Elec       q    Type
REMARK                         _______ _______ _______ _____ _____    ______ ____
ROOT
ATOM      1  C   LIG    1      -21.810  84.539  13.455  0.00  0.00    +0.038 A 
ATOM      2  C   LIG    1      -22.591  84.042  12.401  0.00  0.00    +0.046 A 
ATOM      3  C   LIG    1      -22.007  83.595  11.216  0.00  0.00    +0.033 A 
ATOM      4  C   LIG    1      -20.607  83.639  11.124  0.00  0.00    +0.023 A 
ATOM      5  C   LIG    1      -19.821  84.151  12.167  0.00  0.00    +0.004 A 
ATOM      6  C   LIG    1      -20.424  84.635  13.326  0.00  0.00    +0.023 A 
ENDROOT
BRANCH   1   8
ATOM      7  C   LIG    1      -22.593  83.997  15.779  0.00  0.00    +0.251 C 
ATOM      8  N   LIG    1      -22.472  84.856  14.663  0.00  0.00    -0.265 N 
ATOM      9  O   LIG    1      -22.925  84.444  16.883  0.00  0.00    -0.270 OA
BRANCH   7  14
ATOM     10  C   LIG    1      -23.277  80.227  15.436  0.00  0.00    +0.049 A 
ATOM     11  C   LIG    1      -22.036  79.672  15.784  0.00  0.00    +0.038 A 
ATOM     12  C   LIG    1      -20.936  80.493  16.013  0.00  0.00    +0.057 A 
ATOM     13  C   LIG    1      -21.100  81.880  15.903  0.00  0.00    +0.025 A 
ATOM     14  C   LIG    1      -22.343  82.491  15.699  0.00  0.00    +0.040 A 
ATOM     15  C   LIG    1      -23.424  81.634  15.396  0.00  0.00    +0.039 A 
BRANCH  10  20
ATOM     16  C   LIG    1      -26.419  77.271  12.923  0.00  0.00    +0.067 C 
ATOM     17  C   LIG    1      -25.739  78.052  13.976  0.00  0.00    +0.056 A 
ATOM     18  N   LIG    1      -26.321  78.285  15.192  0.00  0.00    -0.241 NA
ATOM     19  C   LIG    1      -25.465  79.039  15.849  0.00  0.00    +0.204 A 
ATOM     20  N   LIG    1      -24.351  79.350  15.102  0.00  0.00    -0.306 N 
ATOM     21  C   LIG    1      -24.502  78.651  13.922  0.00  0.00    +0.115 A 
ENDBRANCH  10  20
BRANCH  12  22
ATOM     22  C   LIG    1      -19.568  79.927  16.309  0.00  0.00    +0.418 C 
ATOM     23  F   LIG    1      -19.098  79.176  15.278  0.00  0.00    -0.166 F 
ATOM     24  F   LIG    1      -19.537  79.124  17.409  0.00  0.00    -0.166 F 
ATOM     25  F   LIG    1      -18.632  80.891  16.533  0.00  0.00    -0.166 F 
ENDBRANCH  12  22
ENDBRANCH   7  14
BRANCH   8  26
ATOM     26  C   LIG    1      -22.732  86.309  14.804  0.00  0.00    +0.141 C 
BRANCH  26  27
ATOM     27  C   LIG    1      -21.543  87.169  15.229  0.00  0.00    +0.175 C 
BRANCH  27  28
ATOM     28  O   LIG    1      -21.507  87.322  16.648  0.00  0.00    -0.393 OA
ATOM     29  H   LIG    1      -20.600  87.580  16.891  0.00  0.00    +0.209 HD
ENDBRANCH  27  28
ENDBRANCH  26  27
ENDBRANCH   8  26
ENDBRANCH   1   8
BRANCH   3  30
ATOM     30  N   LIG    1      -22.739  83.039  10.143  0.00  0.00    -0.314 N 
ATOM     31  H   LIG    1      -22.529  83.518   9.273  0.00  0.00    +0.152 HD
BRANCH  30  32
ATOM     32  C   LIG    1      -23.956  82.322  10.119  0.00  0.00    +0.033 A 
ATOM     33  C   LIG    1      -25.076  82.869   9.460  0.00  0.00    +0.047 A 
ATOM     34  C   LIG    1      -26.250  82.140   9.461  0.00  0.00    +0.043 A 
ATOM     35  N   LIG    1      -27.507  82.502   8.899  0.00  0.00    -0.281 N 
ATOM     36  H   LIG    1      -27.680  83.384   8.425  0.00  0.00    +0.155 HD
ATOM     37  C   LIG    1      -28.491  81.572   9.126  0.00  0.00    +0.249 C 
ATOM     38  O   LIG    1      -29.667  81.665   8.856  0.00  0.00    -0.270 OA
ATOM     39  C   LIG    1      -27.740  80.444   9.861  0.00  0.00    +0.048 C 
ATOM     40  C   LIG    1      -28.189  79.222  10.265  0.00  0.00    +0.039 C 
ATOM     41  C   LIG    1      -26.369  80.900  10.064  0.00  0.00    +0.008 A 
ATOM     42  C   LIG    1      -25.275  80.332  10.709  0.00  0.00    +0.012 A 
ATOM     43  C   LIG    1      -24.075  81.047  10.708  0.00  0.00    +0.024 A 
BRANCH  40  44
ATOM     44  C   LIG    1      -29.501  78.716  10.107  0.00  0.00    +0.040 A 
ATOM     45  N   LIG    1      -30.396  78.707  11.148  0.00  0.00    -0.361 N 
ATOM     46  H   LIG    1      -30.236  79.142  12.050  0.00  0.00    +0.165 HD
ATOM     47  C   LIG    1      -31.580  78.152  10.751  0.00  0.00    +0.083 A 
ATOM     48  C   LIG    1      -31.444  77.761   9.440  0.00  0.00    +0.019 A 
ATOM     49  C   LIG    1      -30.128  78.101   9.035  0.00  0.00    +0.027 A 
ENDBRANCH  40  44
ENDBRANCH  30  32
ENDBRANCH   3  30
TORSDOF 10
ENDMDL
MODEL 6
REMARK VINA RESULT:      -6.4     18.972     24.472
REMARK  Name = modded_pdb/CHEMBL2037209_nitrogen_modded_with_ethanol_version_1.pdb
REMARK                            x       y       z     vdW  Elec       q    Type
REMARK                         _______ _______ _______ _____ _____    ______ ____
ROOT
ATOM      1  C   LIG    1      -21.000  87.498  13.094  0.00  0.00    +0.038 A 
ATOM      2  C   LIG    1      -20.989  86.148  13.474  0.00  0.00    +0.046 A 
ATOM      3  C   LIG    1      -21.622  85.718  14.640  0.00  0.00    +0.033 A 
ATOM      4  C   LIG    1      -22.291  86.683  15.410  0.00  0.00    +0.023 A 
ATOM      5  C   LIG    1      -22.291  88.038  15.045  0.00  0.00    +0.004 A 
ATOM      6  C   LIG    1      -21.616  88.456  13.900  0.00  0.00    +0.023 A 
ENDROOT
BRANCH   1   8
ATOM      7  C   LIG    1      -21.176  88.116  10.666  0.00  0.00    +0.251 C 
ATOM      8  N   LIG    1      -20.441  87.827  11.838  0.00  0.00    -0.265 N 
ATOM      9  O   LIG    1      -20.631  88.669   9.704  0.00  0.00    -0.270 OA
BRANCH   7  14
ATOM     10  C   LIG    1      -25.005  88.485  10.643  0.00  0.00    +0.049 A 
ATOM     11  C   LIG    1      -25.425  87.156  10.478  0.00  0.00    +0.038 A 
ATOM     12  C   LIG    1      -24.496  86.146  10.250  0.00  0.00    +0.057 A 
ATOM     13  C   LIG    1      -23.136  86.482  10.205  0.00  0.00    +0.025 A 
ATOM     14  C   LIG    1      -22.654  87.762  10.503  0.00  0.00    +0.040 A 
ATOM     15  C   LIG    1      -23.621  88.781  10.655  0.00  0.00    +0.039 A 
BRANCH  10  20
ATOM     16  C   LIG    1      -27.511  92.553  12.090  0.00  0.00    +0.067 C 
ATOM     17  C   LIG    1      -27.095  91.304  11.420  0.00  0.00    +0.056 A 
ATOM     18  N   LIG    1      -27.964  90.568  10.662  0.00  0.00    -0.241 NA
ATOM     19  C   LIG    1      -27.277  89.517  10.266  0.00  0.00    +0.204 A 
ATOM     20  N   LIG    1      -25.992  89.507  10.764  0.00  0.00    -0.306 N 
ATOM     21  C   LIG    1      -25.861  90.698  11.448  0.00  0.00    +0.115 A 
ENDBRANCH  10  20
BRANCH  12  22
ATOM     22  C   LIG    1      -24.918  84.720   9.987  0.00  0.00    +0.418 C 
ATOM     23  F   LIG    1      -25.726  84.243  10.971  0.00  0.00    -0.166 F 
ATOM     24  F   LIG    1      -23.874  83.851   9.897  0.00  0.00    -0.166 F 
ATOM     25  F   LIG    1      -25.614  84.580   8.824  0.00  0.00    -0.166 F 
ENDBRANCH  12  22
ENDBRANCH   7  14
BRANCH   8  26
ATOM     26  C   LIG    1      -19.007  88.192  11.933  0.00  0.00    +0.141 C 
BRANCH  26  27
ATOM     27  C   LIG    1      -18.008  87.045  11.797  0.00  0.00    +0.175 C 
BRANCH  27  28
ATOM     28  O   LIG    1      -16.940  87.186  12.735  0.00  0.00    -0.393 OA
ATOM     29  H   LIG    1      -16.738  88.135  12.808  0.00  0.00    +0.209 HD
ENDBRANCH  27  28
ENDBRANCH  26  27
ENDBRANCH   8  26
ENDBRANCH   1   8
BRANCH   3  30
ATOM     30  N   LIG    1      -21.685  84.366  15.045  0.00  0.00    -0.314 N 
ATOM     31  H   LIG    1      -20.790  84.054  15.409  0.00  0.00    +0.152 HD
BRANCH  30  32
ATOM     32  C   LIG    1      -22.535  83.312  14.641  0.00  0.00    +0.033 A 
ATOM     33  C   LIG    1      -22.801  82.251  15.530  0.00  0.00    +0.047 A 
ATOM     34  C   LIG    1      -23.634  81.236  15.097  0.00  0.00    +0.043 A 
ATOM     35  N   LIG    1      -24.014  80.056  15.797  0.00  0.00    -0.281 N 
ATOM     36  H   LIG    1      -23.685  79.822  16.729  0.00  0.00    +0.155 HD
ATOM     37  C   LIG    1      -24.813  79.219  15.057  0.00  0.00    +0.249 C 
ATOM     38  O   LIG    1      -25.195  78.112  15.358  0.00  0.00    -0.270 OA
ATOM     39  C   LIG    1      -25.025  80.008  13.749  0.00  0.00    +0.048 C 
ATOM     40  C   LIG    1      -25.804  79.708  12.671  0.00  0.00    +0.039 C 
ATOM     41  C   LIG    1      -24.224  81.224  13.845  0.00  0.00    +0.008 A 
ATOM     42  C   LIG    1      -23.987  82.266  12.954  0.00  0.00    +0.012 A 
ATOM     43  C   LIG    1      -23.158  83.308  13.377  0.00  0.00    +0.024 A 
BRANCH  40  44
ATOM     44  C   LIG    1      -26.600  78.550  12.508  0.00  0.00    +0.040 A 
ATOM     45  N   LIG    1      -27.631  78.262  13.368  0.00  0.00    -0.361 N 
ATOM     46  H   LIG    1      -27.963  78.882  14.099  0.00  0.00    +0.165 HD
ATOM     47  C   LIG    1      -28.230  77.086  13.013  0.00  0.00    +0.083 A 
ATOM     48  C   LIG    1      -27.559  76.582  11.925  0.00  0.00    +0.019 A 
ATOM     49  C   LIG    1      -26.520  77.496  11.612  0.00  0.00    +0.027 A 
ENDBRANCH  40  44
ENDBRANCH  30  32
ENDBRANCH   3  30
TORSDOF 10
ENDMDL
MODEL 7
REMARK VINA RESULT:      -6.3      3.156      5.584
REMARK  Name = modded_pdb/CHEMBL2037209_nitrogen_modded_with_ethanol_version_1.pdb
REMARK                            x       y       z     vdW  Elec       q    Type
REMARK                         _______ _______ _______ _____ _____    ______ ____
ROOT
ATOM      1  C   LIG    1      -42.770  72.239  26.050  0.00  0.00    +0.038 A 
ATOM      2  C   LIG    1      -42.022  73.065  26.901  0.00  0.00    +0.046 A 
ATOM      3  C   LIG    1      -41.515  72.589  28.110  0.00  0.00    +0.033 A 
ATOM      4  C   LIG    1      -41.762  71.246  28.435  0.00  0.00    +0.023 A 
ATOM      5  C   LIG    1      -42.524  70.419  27.596  0.00  0.00    +0.004 A 
ATOM      6  C   LIG    1      -43.060  70.924  26.413  0.00  0.00    +0.023 A 
ENDROOT
BRANCH   1   8
ATOM      7  C   LIG    1      -42.240  73.179  23.781  0.00  0.00    +0.251 C 
ATOM      8  N   LIG    1      -43.139  72.765  24.790  0.00  0.00    -0.265 N 
ATOM      9  O   LIG    1      -42.633  73.349  22.622  0.00  0.00    -0.270 OA
BRANCH   7  14
ATOM     10  C   LIG    1      -38.533  72.555  24.595  0.00  0.00    +0.049 A 
ATOM     11  C   LIG    1      -38.056  73.859  24.802  0.00  0.00    +0.038 A 
ATOM     12  C   LIG    1      -38.878  74.956  24.565  0.00  0.00    +0.057 A 
ATOM     13  C   LIG    1      -40.191  74.730  24.133  0.00  0.00    +0.025 A 
ATOM     14  C   LIG    1      -40.760  73.453  24.048  0.00  0.00    +0.040 A 
ATOM     15  C   LIG    1      -39.883  72.360  24.219  0.00  0.00    +0.039 A 
BRANCH  10  20
ATOM     16  C   LIG    1      -34.773  69.643  26.115  0.00  0.00    +0.067 C 
ATOM     17  C   LIG    1      -35.955  70.188  25.416  0.00  0.00    +0.056 A 
ATOM     18  N   LIG    1      -36.451  69.612  24.279  0.00  0.00    -0.241 NA
ATOM     19  C   LIG    1      -37.458  70.376  23.912  0.00  0.00    +0.204 A 
ATOM     20  N   LIG    1      -37.628  71.463  24.741  0.00  0.00    -0.306 N 
ATOM     21  C   LIG    1      -36.700  71.295  25.748  0.00  0.00    +0.115 A 
ENDBRANCH  10  20
BRANCH  12  22
ATOM     22  C   LIG    1      -38.373  76.373  24.699  0.00  0.00    +0.418 C 
ATOM     23  F   LIG    1      -37.059  76.410  25.047  0.00  0.00    -0.166 F 
ATOM     24  F   LIG    1      -39.036  77.101  25.640  0.00  0.00    -0.166 F 
ATOM     25  F   LIG    1      -38.479  77.085  23.543  0.00  0.00    -0.166 F 
ENDBRANCH  12  22
ENDBRANCH   7  14
BRANCH   8  26
ATOM     26  C   LIG    1      -44.565  72.518  24.469  0.00  0.00    +0.141 C 
BRANCH  26  27
ATOM     27  C   LIG    1      -45.513  73.702  24.652  0.00  0.00    +0.175 C 
BRANCH  27  28
ATOM     28  O   LIG    1      -46.150  73.653  25.929  0.00  0.00    -0.393 OA
ATOM     29  H   LIG    1      -45.450  73.592  26.602  0.00  0.00    +0.209 HD
ENDBRANCH  27  28
ENDBRANCH  26  27
ENDBRANCH   8  26
ENDBRANCH   1   8
BRANCH   3  30
ATOM     30  N   LIG    1      -40.715  73.361  28.982  0.00  0.00    -0.314 N 
ATOM     31  H   LIG    1      -41.255  73.689  29.776  0.00  0.00    +0.152 HD
BRANCH  30  32
ATOM     32  C   LIG    1      -39.534  74.102  28.752  0.00  0.00    +0.033 A 
ATOM     33  C   LIG    1      -38.314  73.425  28.550  0.00  0.00    +0.047 A 
ATOM     34  C   LIG    1      -37.180  74.184  28.332  0.00  0.00    +0.043 A 
ATOM     35  N   LIG    1      -35.844  73.730  28.142  0.00  0.00    -0.281 N 
ATOM     36  H   LIG    1      -35.573  72.750  28.161  0.00  0.00    +0.155 HD
ATOM     37  C   LIG    1      -34.936  74.751  28.006  0.00  0.00    +0.249 C 
ATOM     38  O   LIG    1      -33.732  74.661  27.937  0.00  0.00    -0.270 OA
ATOM     39  C   LIG    1      -35.825  76.011  28.039  0.00  0.00    +0.048 C 
ATOM     40  C   LIG    1      -35.483  77.319  27.865  0.00  0.00    +0.039 C 
ATOM     41  C   LIG    1      -37.192  75.568  28.288  0.00  0.00    +0.008 A 
ATOM     42  C   LIG    1      -38.386  76.259  28.470  0.00  0.00    +0.012 A 
ATOM     43  C   LIG    1      -39.546  75.509  28.680  0.00  0.00    +0.024 A 
BRANCH  40  44
ATOM     44  C   LIG    1      -34.182  77.821  27.626  0.00  0.00    +0.040 A 
ATOM     45  N   LIG    1      -33.452  77.430  26.531  0.00  0.00    -0.361 N 
ATOM     46  H   LIG    1      -33.809  76.856  25.775  0.00  0.00    +0.165 HD
ATOM     47  C   LIG    1      -32.227  78.035  26.537  0.00  0.00    +0.083 A 
ATOM     48  C   LIG    1      -32.142  78.807  27.671  0.00  0.00    +0.019 A 
ATOM     49  C   LIG    1      -33.368  78.662  28.369  0.00  0.00    +0.027 A 
ENDBRANCH  40  44
ENDBRANCH  30  32
ENDBRANCH   3  30
TORSDOF 10
ENDMDL
MODEL 8
REMARK VINA RESULT:      -6.3      2.838      4.994
REMARK  Name = modded_pdb/CHEMBL2037209_nitrogen_modded_with_ethanol_version_1.pdb
REMARK                            x       y       z     vdW  Elec       q    Type
REMARK                         _______ _______ _______ _____ _____    ______ ____
ROOT
ATOM      1  C   LIG    1      -37.425  70.901  27.232  0.00  0.00    +0.038 A 
ATOM      2  C   LIG    1      -36.630  72.002  27.583  0.00  0.00    +0.046 A 
ATOM      3  C   LIG    1      -36.816  72.674  28.791  0.00  0.00    +0.033 A 
ATOM      4  C   LIG    1      -37.813  72.194  29.655  0.00  0.00    +0.023 A 
ATOM      5  C   LIG    1      -38.623  71.104  29.303  0.00  0.00    +0.004 A 
ATOM      6  C   LIG    1      -38.453  70.473  28.072  0.00  0.00    +0.023 A 
ENDROOT
BRANCH   1   8
ATOM      7  C   LIG    1      -37.365  70.646  24.734  0.00  0.00    +0.251 C 
ATOM      8  N   LIG    1      -37.089  70.205  26.048  0.00  0.00    -0.265 N 
ATOM      9  O   LIG    1      -36.791  70.133  23.766  0.00  0.00    -0.270 OA
BRANCH   7  14
ATOM     10  C   LIG    1      -39.033  74.111  24.652  0.00  0.00    +0.049 A 
ATOM     11  C   LIG    1      -40.298  73.814  24.122  0.00  0.00    +0.038 A 
ATOM     12  C   LIG    1      -40.590  72.530  23.672  0.00  0.00    +0.057 A 
ATOM     13  C   LIG    1      -39.602  71.542  23.774  0.00  0.00    +0.025 A 
ATOM     14  C   LIG    1      -38.378  71.748  24.422  0.00  0.00    +0.040 A 
ATOM     15  C   LIG    1      -38.080  73.076  24.800  0.00  0.00    +0.039 A 
BRANCH  10  20
ATOM     16  C   LIG    1      -39.445  78.991  25.621  0.00  0.00    +0.067 C 
ATOM     17  C   LIG    1      -38.930  77.622  25.416  0.00  0.00    +0.056 A 
ATOM     18  N   LIG    1      -37.590  77.360  25.327  0.00  0.00    -0.241 NA
ATOM     19  C   LIG    1      -37.502  76.066  25.102  0.00  0.00    +0.204 A 
ATOM     20  N   LIG    1      -38.736  75.462  25.000  0.00  0.00    -0.306 N 
ATOM     21  C   LIG    1      -39.649  76.458  25.273  0.00  0.00    +0.115 A 
ENDBRANCH  10  20
BRANCH  12  22
ATOM     22  C   LIG    1      -41.912  72.195  23.023  0.00  0.00    +0.418 C 
ATOM     23  F   LIG    1      -42.716  71.480  23.853  0.00  0.00    -0.166 F 
ATOM     24  F   LIG    1      -41.788  71.457  21.884  0.00  0.00    -0.166 F 
ATOM     25  F   LIG    1      -42.622  73.301  22.667  0.00  0.00    -0.166 F 
ENDBRANCH  12  22
ENDBRANCH   7  14
BRANCH   8  26
ATOM     26  C   LIG    1      -36.097  69.129  26.285  0.00  0.00    +0.141 C 
BRANCH  26  27
ATOM     27  C   LIG    1      -34.630  69.551  26.287  0.00  0.00    +0.175 C 
BRANCH  27  28
ATOM     28  O   LIG    1      -34.095  69.540  24.963  0.00  0.00    -0.393 OA
ATOM     29  H   LIG    1      -33.138  69.705  25.033  0.00  0.00    +0.209 HD
ENDBRANCH  27  28
ENDBRANCH  26  27
ENDBRANCH   8  26
ENDBRANCH   1   8
BRANCH   3  30
ATOM     30  N   LIG    1      -36.014  73.756  29.217  0.00  0.00    -0.314 N 
ATOM     31  H   LIG    1      -35.541  73.537  30.088  0.00  0.00    +0.152 HD
BRANCH  30  32
ATOM     32  C   LIG    1      -36.099  75.141  28.948  0.00  0.00    +0.033 A 
ATOM     33  C   LIG    1      -35.017  75.800  28.332  0.00  0.00    +0.047 A 
ATOM     34  C   LIG    1      -35.136  77.156  28.089  0.00  0.00    +0.043 A 
ATOM     35  N   LIG    1      -34.170  78.032  27.517  0.00  0.00    -0.281 N 
ATOM     36  H   LIG    1      -33.243  77.736  27.225  0.00  0.00    +0.155 HD
ATOM     37  C   LIG    1      -34.586  79.340  27.467  0.00  0.00    +0.249 C 
ATOM     38  O   LIG    1      -33.938  80.304  27.130  0.00  0.00    -0.270 OA
ATOM     39  C   LIG    1      -36.028  79.266  28.007  0.00  0.00    +0.048 C 
ATOM     40  C   LIG    1      -36.967  80.249  28.111  0.00  0.00    +0.039 C 
ATOM     41  C   LIG    1      -36.269  77.885  28.408  0.00  0.00    +0.008 A 
ATOM     42  C   LIG    1      -37.356  77.254  29.005  0.00  0.00    +0.012 A 
ATOM     43  C   LIG    1      -37.260  75.882  29.248  0.00  0.00    +0.024 A 
BRANCH  40  44
ATOM     44  C   LIG    1      -36.804  81.607  27.748  0.00  0.00    +0.040 A 
ATOM     45  N   LIG    1      -35.971  82.442  28.451  0.00  0.00    -0.361 N 
ATOM     46  H   LIG    1      -35.346  82.143  29.192  0.00  0.00    +0.165 HD
ATOM     47  C   LIG    1      -36.002  83.701  27.920  0.00  0.00    +0.083 A 
ATOM     48  C   LIG    1      -36.895  83.696  26.875  0.00  0.00    +0.019 A 
ATOM     49  C   LIG    1      -37.415  82.381  26.774  0.00  0.00    +0.027 A 
ENDBRANCH  40  44
ENDBRANCH  30  32
ENDBRANCH   3  30
TORSDOF 10
ENDMDL
MODEL 9
REMARK VINA RESULT:      -6.2      3.573     10.163
REMARK  Name = modded_pdb/CHEMBL2037209_nitrogen_modded_with_ethanol_version_1.pdb
REMARK                            x       y       z     vdW  Elec       q    Type
REMARK                         _______ _______ _______ _____ _____    ______ ____
ROOT
ATOM      1  C   LIG    1      -38.517  76.412  27.086  0.00  0.00    +0.038 A 
ATOM      2  C   LIG    1      -38.937  75.074  27.107  0.00  0.00    +0.046 A 
ATOM      3  C   LIG    1      -38.916  74.291  25.953  0.00  0.00    +0.033 A 
ATOM      4  C   LIG    1      -38.438  74.883  24.774  0.00  0.00    +0.023 A 
ATOM      5  C   LIG    1      -38.032  76.226  24.742  0.00  0.00    +0.004 A 
ATOM      6  C   LIG    1      -38.102  77.007  25.894  0.00  0.00    +0.023 A 
ENDROOT
BRANCH   1   8
ATOM      7  C   LIG    1      -37.281  77.621  28.908  0.00  0.00    +0.251 C 
ATOM      8  N   LIG    1      -38.455  77.095  28.323  0.00  0.00    -0.265 N 
ATOM      9  O   LIG    1      -37.353  78.443  29.829  0.00  0.00    -0.270 OA
BRANCH   7  14
ATOM     10  C   LIG    1      -34.128  75.477  28.397  0.00  0.00    +0.049 A 
ATOM     11  C   LIG    1      -33.206  76.422  27.920  0.00  0.00    +0.038 A 
ATOM     12  C   LIG    1      -33.612  77.723  27.641  0.00  0.00    +0.057 A 
ATOM     13  C   LIG    1      -34.951  78.071  27.861  0.00  0.00    +0.025 A 
ATOM     14  C   LIG    1      -35.876  77.212  28.467  0.00  0.00    +0.040 A 
ATOM     15  C   LIG    1      -35.458  75.878  28.668  0.00  0.00    +0.039 A 
BRANCH  10  20
ATOM     16  C   LIG    1      -34.027  70.488  28.558  0.00  0.00    +0.067 C 
ATOM     17  C   LIG    1      -33.672  71.920  28.642  0.00  0.00    +0.056 A 
ATOM     18  N   LIG    1      -32.539  72.347  29.278  0.00  0.00    -0.241 NA
ATOM     19  C   LIG    1      -32.570  73.661  29.198  0.00  0.00    +0.204 A 
ATOM     20  N   LIG    1      -33.701  74.127  28.566  0.00  0.00    -0.306 N 
ATOM     21  C   LIG    1      -34.372  72.996  28.148  0.00  0.00    +0.115 A 
ENDBRANCH  10  20
BRANCH  12  22
ATOM     22  C   LIG    1      -32.666  78.742  27.051  0.00  0.00    +0.418 C 
ATOM     23  F   LIG    1      -33.274  79.943  26.859  0.00  0.00    -0.166 F 
ATOM     24  F   LIG    1      -32.157  78.376  25.842  0.00  0.00    -0.166 F 
ATOM     25  F   LIG    1      -31.587  78.986  27.845  0.00  0.00    -0.166 F 
ENDBRANCH  12  22
ENDBRANCH   7  14
BRANCH   8  26
ATOM     26  C   LIG    1      -39.790  77.530  28.798  0.00  0.00    +0.141 C 
BRANCH  26  27
ATOM     27  C   LIG    1      -40.381  78.761  28.115  0.00  0.00    +0.175 C 
BRANCH  27  28
ATOM     28  O   LIG    1      -39.757  79.955  28.587  0.00  0.00    -0.393 OA
ATOM     29  H   LIG    1      -39.349  79.751  29.447  0.00  0.00    +0.209 HD
ENDBRANCH  27  28
ENDBRANCH  26  27
ENDBRANCH   8  26
ENDBRANCH   1   8
BRANCH   3  30
ATOM     30  N   LIG    1      -39.281  72.926  25.926  0.00  0.00    -0.314 N 
ATOM     31  H   LIG    1      -39.635  72.627  26.829  0.00  0.00    +0.152 HD
BRANCH  30  32
ATOM     32  C   LIG    1      -38.846  71.862  25.104  0.00  0.00    +0.033 A 
ATOM     33  C   LIG    1      -37.574  71.292  25.315  0.00  0.00    +0.047 A 
ATOM     34  C   LIG    1      -37.183  70.256  24.488  0.00  0.00    +0.043 A 
ATOM     35  N   LIG    1      -35.942  69.557  24.485  0.00  0.00    -0.281 N 
ATOM     36  H   LIG    1      -35.175  69.768  25.117  0.00  0.00    +0.155 HD
ATOM     37  C   LIG    1      -35.852  68.615  23.491  0.00  0.00    +0.249 C 
ATOM     38  O   LIG    1      -34.885  67.952  23.192  0.00  0.00    -0.270 OA
ATOM     39  C   LIG    1      -37.242  68.675  22.828  0.00  0.00    +0.048 C 
ATOM     40  C   LIG    1      -37.763  67.904  21.832  0.00  0.00    +0.039 C 
ATOM     41  C   LIG    1      -37.984  69.748  23.480  0.00  0.00    +0.008 A 
ATOM     42  C   LIG    1      -39.250  70.285  23.261  0.00  0.00    +0.012 A 
ATOM     43  C   LIG    1      -39.669  71.324  24.094  0.00  0.00    +0.024 A 
BRANCH  40  44
ATOM     44  C   LIG    1      -37.103  66.853  21.152  0.00  0.00    +0.040 A 
ATOM     45  N   LIG    1      -36.045  67.096  20.312  0.00  0.00    -0.361 N 
ATOM     46  H   LIG    1      -35.597  67.998  20.195  0.00  0.00    +0.165 HD
ATOM     47  C   LIG    1      -35.597  65.927  19.764  0.00  0.00    +0.083 A 
ATOM     48  C   LIG    1      -36.396  64.909  20.227  0.00  0.00    +0.019 A 
ATOM     49  C   LIG    1      -37.358  65.492  21.091  0.00  0.00    +0.027 A 
ENDBRANCH  40  44
ENDBRANCH  30  32
ENDBRANCH   3  30
TORSDOF 10
ENDMDL
