MODEL 1
REMARK VINA RESULT:      -5.8      0.000      0.000
REMARK  Name = modded_pdb/CHEMBL1983268_nitrogen_modded_with_ethanol_version_1.pdb
REMARK                            x       y       z     vdW  Elec       q    Type
REMARK                         _______ _______ _______ _____ _____    ______ ____
ROOT
ATOM      1  C   LIG    1      -26.339  77.010  33.864  0.00  0.00    +0.250 C 
ATOM      2  N   LIG    1      -26.449  76.559  32.502  0.00  0.00    -0.267 N 
ATOM      3  O   LIG    1      -27.245  76.850  34.655  0.00  0.00    -0.270 OA
ENDROOT
BRANCH   2   4
ATOM      4  C   LIG    1      -25.548  76.985  31.507  0.00  0.00    +0.193 C 
ATOM      5  C   LIG    1      -24.225  76.514  31.258  0.00  0.00    +0.020 A 
ATOM      6  C   LIG    1      -23.327  75.619  31.858  0.00  0.00    +0.013 A 
ATOM      7  C   LIG    1      -22.026  75.499  31.340  0.00  0.00    -0.043 A 
ATOM      8  C   LIG    1      -21.702  76.126  30.126  0.00  0.00    +0.006 A 
ATOM      9  C   LIG    1      -22.613  76.937  29.449  0.00  0.00    +0.025 A 
ATOM     10  C   LIG    1      -23.832  77.147  30.082  0.00  0.00    +0.050 A 
ATOM     11  N   LIG    1      -24.875  77.956  29.759  0.00  0.00    -0.260 N 
ATOM     12  H   LIG    1      -25.010  78.506  28.916  0.00  0.00    +0.168 HD
ATOM     13  N   LIG    1      -25.741  78.090  30.768  0.00  0.00    -0.110 NA
BRANCH   7  14
ATOM     14  C   LIG    1      -20.993  74.672  32.072  0.00  0.00    +0.070 C 
BRANCH  14  15
ATOM     15  C   LIG    1      -21.510  73.406  32.730  0.00  0.00    -0.038 A 
ATOM     16  C   LIG    1      -21.180  73.073  34.053  0.00  0.00    +0.042 A 
ATOM     17  C   LIG    1      -21.614  71.861  34.601  0.00  0.00    +0.126 A 
ATOM     18  F   LIG    1      -21.254  71.539  35.850  0.00  0.00    -0.205 F 
ATOM     19  C   LIG    1      -22.393  70.975  33.872  0.00  0.00    +0.076 A 
ATOM     20  C   LIG    1      -22.744  71.317  32.577  0.00  0.00    +0.126 A 
ATOM     21  F   LIG    1      -23.495  70.478  31.852  0.00  0.00    -0.205 F 
ATOM     22  C   LIG    1      -22.313  72.512  32.003  0.00  0.00    +0.042 A 
ENDBRANCH  14  15
ENDBRANCH   7  14
ENDBRANCH   2   4
BRANCH   1  26
ATOM     23  C   LIG    1      -22.315  78.563  34.299  0.00  0.00    +0.032 A 
ATOM     24  C   LIG    1      -22.783  77.354  34.810  0.00  0.00    +0.046 A 
ATOM     25  C   LIG    1      -24.083  76.940  35.128  0.00  0.00    +0.041 A 
ATOM     26  C   LIG    1      -25.046  77.665  34.405  0.00  0.00    +0.058 A 
ATOM     27  C   LIG    1      -24.608  78.879  33.901  0.00  0.00    +0.017 A 
ATOM     28  C   LIG    1      -23.322  79.412  33.977  0.00  0.00    +0.024 A 
BRANCH  23  33
ATOM     29  C   LIG    1      -18.084  76.695  33.859  0.00  0.00    +0.105 C 
ATOM     30  N   LIG    1      -18.049  78.158  33.894  0.00  0.00    -0.302 NA
ATOM     31  C   LIG    1      -18.607  78.677  35.156  0.00  0.00    +0.103 C 
ATOM     32  C   LIG    1      -20.126  78.462  35.355  0.00  0.00    +0.120 C 
ATOM     33  N   LIG    1      -20.945  78.856  34.175  0.00  0.00    -0.327 N 
ATOM     34  C   LIG    1      -20.346  78.512  32.868  0.00  0.00    +0.120 C 
ATOM     35  C   LIG    1      -18.828  78.756  32.793  0.00  0.00    +0.103 C 
ENDBRANCH  23  33
BRANCH  25  36
ATOM     36  N   LIG    1      -24.295  75.862  35.995  0.00  0.00    -0.340 N 
ATOM     37  H   LIG    1      -23.885  76.078  36.906  0.00  0.00    +0.146 HD
BRANCH  36  38
ATOM     38  C   LIG    1      -24.104  74.389  35.696  0.00  0.00    +0.075 C 
ATOM     39  C   LIG    1      -24.896  73.805  34.524  0.00  0.00    +0.050 C 
ATOM     40  C   LIG    1      -26.296  73.382  34.933  0.00  0.00    +0.161 C 
ATOM     41  O   LIG    1      -26.288  72.499  36.060  0.00  0.00    -0.380 OA
ATOM     42  C   LIG    1      -25.570  72.936  37.210  0.00  0.00    +0.161 C 
ATOM     43  C   LIG    1      -24.175  73.436  36.896  0.00  0.00    +0.050 C 
ENDBRANCH  36  38
ENDBRANCH  25  36
ENDBRANCH   1  26
BRANCH   2  44
ATOM     44  C   LIG    1      -27.682  75.881  32.020  0.00  0.00    +0.138 C 
BRANCH  44  45
ATOM     45  C   LIG    1      -29.014  76.632  31.903  0.00  0.00    +0.175 C 
BRANCH  45  46
ATOM     46  O   LIG    1      -28.799  77.903  31.273  0.00  0.00    -0.393 OA
ATOM     47  H   LIG    1      -29.090  78.578  31.912  0.00  0.00    +0.209 HD
ENDBRANCH  45  46
ENDBRANCH  44  45
ENDBRANCH   2  44
TORSDOF 10
ENDMDL
MODEL 2
REMARK VINA RESULT:      -5.6     16.820     20.524
REMARK  Name = modded_pdb/CHEMBL1983268_nitrogen_modded_with_ethanol_version_1.pdb
REMARK                            x       y       z     vdW  Elec       q    Type
REMARK                         _______ _______ _______ _____ _____    ______ ____
ROOT
ATOM      1  C   LIG    1      -23.902  80.439  12.977  0.00  0.00    +0.250 C 
ATOM      2  N   LIG    1      -23.816  79.784  14.256  0.00  0.00    -0.267 N 
ATOM      3  O   LIG    1      -24.695  80.072  12.134  0.00  0.00    -0.270 OA
ENDROOT
BRANCH   2   4
ATOM      4  C   LIG    1      -22.727  79.996  15.122  0.00  0.00    +0.193 C 
ATOM      5  C   LIG    1      -21.610  79.140  15.356  0.00  0.00    +0.020 A 
ATOM      6  C   LIG    1      -21.203  77.857  14.962  0.00  0.00    +0.013 A 
ATOM      7  C   LIG    1      -20.030  77.308  15.510  0.00  0.00    -0.043 A 
ATOM      8  C   LIG    1      -19.186  78.115  16.291  0.00  0.00    +0.006 A 
ATOM      9  C   LIG    1      -19.514  79.433  16.610  0.00  0.00    +0.025 A 
ATOM     10  C   LIG    1      -20.756  79.877  16.173  0.00  0.00    +0.050 A 
ATOM     11  N   LIG    1      -21.417  81.041  16.404  0.00  0.00    -0.260 N 
ATOM     12  H   LIG    1      -21.081  81.875  16.876  0.00  0.00    +0.168 HD
ATOM     13  N   LIG    1      -22.703  80.971  16.045  0.00  0.00    -0.110 NA
BRANCH   7  14
ATOM     14  C   LIG    1      -19.667  75.868  15.231  0.00  0.00    +0.070 C 
BRANCH  14  15
ATOM     15  C   LIG    1      -20.190  74.853  16.230  0.00  0.00    -0.038 A 
ATOM     16  C   LIG    1      -21.553  74.525  16.305  0.00  0.00    +0.042 A 
ATOM     17  C   LIG    1      -22.010  73.641  17.289  0.00  0.00    +0.126 A 
ATOM     18  F   LIG    1      -23.320  73.372  17.374  0.00  0.00    -0.205 F 
ATOM     19  C   LIG    1      -21.139  73.050  18.192  0.00  0.00    +0.076 A 
ATOM     20  C   LIG    1      -19.789  73.351  18.099  0.00  0.00    +0.126 A 
ATOM     21  F   LIG    1      -18.928  72.794  18.960  0.00  0.00    -0.205 F 
ATOM     22  C   LIG    1      -19.311  74.239  17.137  0.00  0.00    +0.042 A 
ENDBRANCH  14  15
ENDBRANCH   7  14
ENDBRANCH   2   4
BRANCH   1  26
ATOM     23  C   LIG    1      -21.103  83.745  13.128  0.00  0.00    +0.032 A 
ATOM     24  C   LIG    1      -22.487  83.842  13.251  0.00  0.00    +0.046 A 
ATOM     25  C   LIG    1      -23.505  82.989  12.804  0.00  0.00    +0.041 A 
ATOM     26  C   LIG    1      -23.038  81.675  12.633  0.00  0.00    +0.058 A 
ATOM     27  C   LIG    1      -21.665  81.555  12.491  0.00  0.00    +0.017 A 
ATOM     28  C   LIG    1      -20.715  82.573  12.567  0.00  0.00    +0.024 A 
BRANCH  23  33
ATOM     29  C   LIG    1      -19.619  88.021  12.081  0.00  0.00    +0.105 C 
ATOM     30  N   LIG    1      -18.958  87.474  13.266  0.00  0.00    -0.302 NA
ATOM     31  C   LIG    1      -18.227  86.234  12.948  0.00  0.00    +0.103 C 
ATOM     32  C   LIG    1      -19.105  85.017  12.572  0.00  0.00    +0.120 C 
ATOM     33  N   LIG    1      -20.231  84.778  13.517  0.00  0.00    -0.327 N 
ATOM     34  C   LIG    1      -20.893  86.006  14.007  0.00  0.00    +0.120 C 
ATOM     35  C   LIG    1      -19.920  87.151  14.337  0.00  0.00    +0.103 C 
ENDBRANCH  23  33
BRANCH  25  36
ATOM     36  N   LIG    1      -24.817  83.457  12.668  0.00  0.00    -0.340 N 
ATOM     37  H   LIG    1      -25.405  83.018  13.378  0.00  0.00    +0.146 HD
BRANCH  36  38
ATOM     38  C   LIG    1      -25.611  83.612  11.386  0.00  0.00    +0.075 C 
ATOM     39  C   LIG    1      -24.834  83.547  10.070  0.00  0.00    +0.050 C 
ATOM     40  C   LIG    1      -24.243  84.892   9.686  0.00  0.00    +0.161 C 
ATOM     41  O   LIG    1      -25.229  85.931   9.669  0.00  0.00    -0.380 OA
ATOM     42  C   LIG    1      -26.023  86.080  10.842  0.00  0.00    +0.161 C 
ATOM     43  C   LIG    1      -26.610  84.775  11.342  0.00  0.00    +0.050 C 
ENDBRANCH  36  38
ENDBRANCH  25  36
ENDBRANCH   1  26
BRANCH   2  44
ATOM     44  C   LIG    1      -24.698  78.632  14.584  0.00  0.00    +0.138 C 
BRANCH  44  45
ATOM     45  C   LIG    1      -26.087  78.837  15.199  0.00  0.00    +0.175 C 
BRANCH  45  46
ATOM     46  O   LIG    1      -26.873  77.650  15.025  0.00  0.00    -0.393 OA
ATOM     47  H   LIG    1      -27.637  77.737  15.622  0.00  0.00    +0.209 HD
ENDBRANCH  45  46
ENDBRANCH  44  45
ENDBRANCH   2  44
TORSDOF 10
ENDMDL
MODEL 3
REMARK VINA RESULT:      -5.6     16.341     20.103
REMARK  Name = modded_pdb/CHEMBL1983268_nitrogen_modded_with_ethanol_version_1.pdb
REMARK                            x       y       z     vdW  Elec       q    Type
REMARK                         _______ _______ _______ _____ _____    ______ ____
ROOT
ATOM      1  C   LIG    1      -21.979  81.032  15.852  0.00  0.00    +0.250 C 
ATOM      2  N   LIG    1      -20.911  80.591  14.993  0.00  0.00    -0.267 N 
ATOM      3  O   LIG    1      -21.757  81.703  16.839  0.00  0.00    -0.270 OA
ENDROOT
BRANCH   2   4
ATOM      4  C   LIG    1      -21.108  79.587  14.026  0.00  0.00    +0.193 C 
ATOM      5  C   LIG    1      -20.970  78.176  14.182  0.00  0.00    +0.020 A 
ATOM      6  C   LIG    1      -20.549  77.294  15.188  0.00  0.00    +0.013 A 
ATOM      7  C   LIG    1      -20.465  75.919  14.907  0.00  0.00    -0.043 A 
ATOM      8  C   LIG    1      -20.979  75.426  13.697  0.00  0.00    +0.006 A 
ATOM      9  C   LIG    1      -21.505  76.272  12.720  0.00  0.00    +0.025 A 
ATOM     10  C   LIG    1      -21.423  77.634  12.983  0.00  0.00    +0.050 A 
ATOM     11  N   LIG    1      -21.731  78.710  12.211  0.00  0.00    -0.260 N 
ATOM     12  H   LIG    1      -22.184  78.726  11.302  0.00  0.00    +0.168 HD
ATOM     13  N   LIG    1      -21.244  79.848  12.715  0.00  0.00    -0.110 NA
BRANCH   7  14
ATOM     14  C   LIG    1      -19.853  74.976  15.918  0.00  0.00    +0.070 C 
BRANCH  14  15
ATOM     15  C   LIG    1      -20.837  74.178  16.753  0.00  0.00    -0.038 A 
ATOM     16  C   LIG    1      -20.429  73.451  17.882  0.00  0.00    +0.042 A 
ATOM     17  C   LIG    1      -21.351  72.666  18.583  0.00  0.00    +0.126 A 
ATOM     18  F   LIG    1      -20.936  71.945  19.632  0.00  0.00    -0.205 F 
ATOM     19  C   LIG    1      -22.684  72.603  18.204  0.00  0.00    +0.076 A 
ATOM     20  C   LIG    1      -23.093  73.345  17.107  0.00  0.00    +0.126 A 
ATOM     21  F   LIG    1      -24.375  73.300  16.720  0.00  0.00    -0.205 F 
ATOM     22  C   LIG    1      -22.191  74.123  16.384  0.00  0.00    +0.042 A 
ENDBRANCH  14  15
ENDBRANCH   7  14
ENDBRANCH   2   4
BRANCH   1  26
ATOM     23  C   LIG    1      -25.644  79.356  14.258  0.00  0.00    +0.032 A 
ATOM     24  C   LIG    1      -25.044  80.543  13.845  0.00  0.00    +0.046 A 
ATOM     25  C   LIG    1      -24.164  81.402  14.518  0.00  0.00    +0.041 A 
ATOM     26  C   LIG    1      -23.462  80.729  15.532  0.00  0.00    +0.058 A 
ATOM     27  C   LIG    1      -24.049  79.553  15.970  0.00  0.00    +0.017 A 
ATOM     28  C   LIG    1      -25.203  78.948  15.472  0.00  0.00    +0.024 A 
BRANCH  23  33
ATOM     29  C   LIG    1      -26.391  75.849  11.303  0.00  0.00    +0.105 C 
ATOM     30  N   LIG    1      -27.609  76.606  11.591  0.00  0.00    -0.302 NA
ATOM     31  C   LIG    1      -27.468  78.019  11.193  0.00  0.00    +0.103 C 
ATOM     32  C   LIG    1      -26.460  78.851  12.022  0.00  0.00    +0.120 C 
ATOM     33  N   LIG    1      -26.624  78.695  13.494  0.00  0.00    -0.327 N 
ATOM     34  C   LIG    1      -26.941  77.320  13.935  0.00  0.00    +0.120 C 
ATOM     35  C   LIG    1      -27.945  76.588  13.027  0.00  0.00    +0.103 C 
ENDBRANCH  23  33
BRANCH  25  36
ATOM     36  N   LIG    1      -24.000  82.726  14.096  0.00  0.00    -0.340 N 
ATOM     37  H   LIG    1      -24.912  83.118  13.855  0.00  0.00    +0.146 HD
BRANCH  36  38
ATOM     38  C   LIG    1      -22.955  83.264  13.139  0.00  0.00    +0.075 C 
ATOM     39  C   LIG    1      -21.743  83.969  13.750  0.00  0.00    +0.050 C 
ATOM     40  C   LIG    1      -22.015  85.436  14.034  0.00  0.00    +0.161 C 
ATOM     41  O   LIG    1      -22.505  86.129  12.881  0.00  0.00    -0.380 OA
ATOM     42  C   LIG    1      -23.630  85.557  12.220  0.00  0.00    +0.161 C 
ATOM     43  C   LIG    1      -23.478  84.075  11.946  0.00  0.00    +0.050 C 
ENDBRANCH  36  38
ENDBRANCH  25  36
ENDBRANCH   1  26
BRANCH   2  44
ATOM     44  C   LIG    1      -19.497  80.943  15.291  0.00  0.00    +0.138 C 
BRANCH  44  45
ATOM     45  C   LIG    1      -18.687  80.178  16.345  0.00  0.00    +0.175 C 
BRANCH  45  46
ATOM     46  O   LIG    1      -17.535  80.945  16.720  0.00  0.00    -0.393 OA
ATOM     47  H   LIG    1      -17.516  81.718  16.128  0.00  0.00    +0.209 HD
ENDBRANCH  45  46
ENDBRANCH  44  45
ENDBRANCH   2  44
TORSDOF 10
ENDMDL
MODEL 4
REMARK VINA RESULT:      -5.5      3.231      6.622
REMARK  Name = modded_pdb/CHEMBL1983268_nitrogen_modded_with_ethanol_version_1.pdb
REMARK                            x       y       z     vdW  Elec       q    Type
REMARK                         _______ _______ _______ _____ _____    ______ ____
ROOT
ATOM      1  C   LIG    1      -23.373  81.119  36.326  0.00  0.00    +0.250 C 
ATOM      2  N   LIG    1      -22.047  81.498  36.737  0.00  0.00    -0.267 N 
ATOM      3  O   LIG    1      -24.307  81.889  36.422  0.00  0.00    -0.270 OA
ENDROOT
BRANCH   2   4
ATOM      4  C   LIG    1      -21.025  80.544  36.907  0.00  0.00    +0.193 C 
ATOM      5  C   LIG    1      -20.244  79.904  35.901  0.00  0.00    +0.020 A 
ATOM      6  C   LIG    1      -20.211  79.868  34.499  0.00  0.00    +0.013 A 
ATOM      7  C   LIG    1      -19.311  79.001  33.854  0.00  0.00    -0.043 A 
ATOM      8  C   LIG    1      -18.335  78.328  34.607  0.00  0.00    +0.006 A 
ATOM      9  C   LIG    1      -18.277  78.431  35.997  0.00  0.00    +0.025 A 
ATOM     10  C   LIG    1      -19.283  79.177  36.598  0.00  0.00    +0.050 A 
ATOM     11  N   LIG    1      -19.579  79.379  37.909  0.00  0.00    -0.260 N 
ATOM     12  H   LIG    1      -19.050  79.095  38.727  0.00  0.00    +0.168 HD
ATOM     13  N   LIG    1      -20.789  79.923  38.074  0.00  0.00    -0.110 NA
BRANCH   7  14
ATOM     14  C   LIG    1      -19.377  78.821  32.354  0.00  0.00    +0.070 C 
BRANCH  14  15
ATOM     15  C   LIG    1      -20.420  77.839  31.855  0.00  0.00    -0.038 A 
ATOM     16  C   LIG    1      -21.259  77.139  32.737  0.00  0.00    +0.042 A 
ATOM     17  C   LIG    1      -22.156  76.186  32.245  0.00  0.00    +0.126 A 
ATOM     18  F   LIG    1      -22.919  75.497  33.104  0.00  0.00    -0.205 F 
ATOM     19  C   LIG    1      -22.261  75.923  30.887  0.00  0.00    +0.076 A 
ATOM     20  C   LIG    1      -21.455  76.635  30.013  0.00  0.00    +0.126 A 
ATOM     21  F   LIG    1      -21.536  76.399  28.698  0.00  0.00    -0.205 F 
ATOM     22  C   LIG    1      -20.542  77.580  30.480  0.00  0.00    +0.042 A 
ENDBRANCH  14  15
ENDBRANCH   7  14
ENDBRANCH   2   4
BRANCH   1  26
ATOM     23  C   LIG    1      -25.268  77.741  34.380  0.00  0.00    +0.032 A 
ATOM     24  C   LIG    1      -25.036  77.869  35.747  0.00  0.00    +0.046 A 
ATOM     25  C   LIG    1      -24.094  78.637  36.444  0.00  0.00    +0.041 A 
ATOM     26  C   LIG    1      -23.667  79.741  35.686  0.00  0.00    +0.058 A 
ATOM     27  C   LIG    1      -23.872  79.628  34.321  0.00  0.00    +0.017 A 
ATOM     28  C   LIG    1      -24.506  78.587  33.644  0.00  0.00    +0.024 A 
BRANCH  23  33
ATOM     29  C   LIG    1      -25.657  74.024  31.619  0.00  0.00    +0.105 C 
ATOM     30  N   LIG    1      -26.942  74.436  32.185  0.00  0.00    -0.302 NA
ATOM     31  C   LIG    1      -27.286  75.814  31.787  0.00  0.00    +0.103 C 
ATOM     32  C   LIG    1      -26.387  76.926  32.379  0.00  0.00    +0.120 C 
ATOM     33  N   LIG    1      -26.172  76.803  33.847  0.00  0.00    -0.327 N 
ATOM     34  C   LIG    1      -25.994  75.417  34.328  0.00  0.00    +0.120 C 
ATOM     35  C   LIG    1      -26.933  74.398  33.660  0.00  0.00    +0.103 C 
ENDBRANCH  23  33
BRANCH  25  36
ATOM     36  N   LIG    1      -23.756  78.322  37.765  0.00  0.00    -0.340 N 
ATOM     37  H   LIG    1      -23.435  79.167  38.241  0.00  0.00    +0.146 HD
BRANCH  36  38
ATOM     38  C   LIG    1      -22.948  77.136  38.251  0.00  0.00    +0.075 C 
ATOM     39  C   LIG    1      -21.875  76.587  37.309  0.00  0.00    +0.050 C 
ATOM     40  C   LIG    1      -22.443  75.594  36.310  0.00  0.00    +0.161 C 
ATOM     41  O   LIG    1      -23.176  74.543  36.948  0.00  0.00    -0.380 OA
ATOM     42  C   LIG    1      -24.198  74.936  37.859  0.00  0.00    +0.161 C 
ATOM     43  C   LIG    1      -23.743  75.976  38.863  0.00  0.00    +0.050 C 
ENDBRANCH  36  38
ENDBRANCH  25  36
ENDBRANCH   1  26
BRANCH   2  44
ATOM     44  C   LIG    1      -21.780  82.850  37.298  0.00  0.00    +0.138 C 
BRANCH  44  45
ATOM     45  C   LIG    1      -20.361  83.295  37.671  0.00  0.00    +0.175 C 
BRANCH  45  46
ATOM     46  O   LIG    1      -20.017  84.479  36.938  0.00  0.00    -0.393 OA
ATOM     47  H   LIG    1      -19.046  84.480  36.860  0.00  0.00    +0.209 HD
ENDBRANCH  45  46
ENDBRANCH  44  45
ENDBRANCH   2  44
TORSDOF 10
ENDMDL
MODEL 5
REMARK VINA RESULT:      -5.4     19.021     22.646
REMARK  Name = modded_pdb/CHEMBL1983268_nitrogen_modded_with_ethanol_version_1.pdb
REMARK                            x       y       z     vdW  Elec       q    Type
REMARK                         _______ _______ _______ _____ _____    ______ ____
ROOT
ATOM      1  C   LIG    1      -22.053  83.302  11.174  0.00  0.00    +0.250 C 
ATOM      2  N   LIG    1      -21.462  84.243  12.089  0.00  0.00    -0.267 N 
ATOM      3  O   LIG    1      -21.725  83.268  10.006  0.00  0.00    -0.270 OA
ENDROOT
BRANCH   2   4
ATOM      4  C   LIG    1      -22.025  84.496  13.354  0.00  0.00    +0.193 C 
ATOM      5  C   LIG    1      -22.046  83.639  14.494  0.00  0.00    +0.020 A 
ATOM      6  C   LIG    1      -21.660  82.325  14.794  0.00  0.00    +0.013 A 
ATOM      7  C   LIG    1      -21.950  81.795  16.064  0.00  0.00    -0.043 A 
ATOM      8  C   LIG    1      -22.445  82.639  17.071  0.00  0.00    +0.006 A 
ATOM      9  C   LIG    1      -22.736  83.982  16.830  0.00  0.00    +0.025 A 
ATOM     10  C   LIG    1      -22.578  84.416  15.520  0.00  0.00    +0.050 A 
ATOM     11  N   LIG    1      -22.876  85.606  14.934  0.00  0.00    -0.260 N 
ATOM     12  H   LIG    1      -23.192  86.465  15.374  0.00  0.00    +0.168 HD
ATOM     13  N   LIG    1      -22.842  85.533  13.600  0.00  0.00    -0.110 NA
BRANCH   7  14
ATOM     14  C   LIG    1      -21.698  80.332  16.349  0.00  0.00    +0.070 C 
BRANCH  14  15
ATOM     15  C   LIG    1      -22.668  79.360  15.704  0.00  0.00    -0.038 A 
ATOM     16  C   LIG    1      -22.223  78.264  14.947  0.00  0.00    +0.042 A 
ATOM     17  C   LIG    1      -23.146  77.433  14.304  0.00  0.00    +0.126 A 
ATOM     18  F   LIG    1      -22.703  76.418  13.551  0.00  0.00    -0.205 F 
ATOM     19  C   LIG    1      -24.512  77.648  14.414  0.00  0.00    +0.076 A 
ATOM     20  C   LIG    1      -24.953  78.711  15.186  0.00  0.00    +0.126 A 
ATOM     21  F   LIG    1      -26.267  78.940  15.306  0.00  0.00    -0.205 F 
ATOM     22  C   LIG    1      -24.052  79.562  15.824  0.00  0.00    +0.042 A 
ENDBRANCH  14  15
ENDBRANCH   7  14
ENDBRANCH   2   4
BRANCH   1  26
ATOM     23  C   LIG    1      -24.973  80.102  11.322  0.00  0.00    +0.032 A 
ATOM     24  C   LIG    1      -25.254  81.465  11.376  0.00  0.00    +0.046 A 
ATOM     25  C   LIG    1      -24.454  82.546  11.771  0.00  0.00    +0.041 A 
ATOM     26  C   LIG    1      -23.087  82.249  11.641  0.00  0.00    +0.058 A 
ATOM     27  C   LIG    1      -22.782  80.898  11.601  0.00  0.00    +0.017 A 
ATOM     28  C   LIG    1      -23.677  79.829  11.608  0.00  0.00    +0.024 A 
BRANCH  23  33
ATOM     29  C   LIG    1      -29.429  79.480  10.160  0.00  0.00    +0.105 C 
ATOM     30  N   LIG    1      -28.707  78.215  10.304  0.00  0.00    -0.302 NA
ATOM     31  C   LIG    1      -28.168  78.058  11.668  0.00  0.00    +0.103 C 
ATOM     32  C   LIG    1      -27.033  79.036  12.056  0.00  0.00    +0.120 C 
ATOM     33  N   LIG    1      -25.955  79.135  11.034  0.00  0.00    -0.327 N 
ATOM     34  C   LIG    1      -26.430  79.122   9.635  0.00  0.00    +0.120 C 
ATOM     35  C   LIG    1      -27.568  78.119   9.372  0.00  0.00    +0.103 C 
ENDBRANCH  23  33
BRANCH  25  36
ATOM     36  N   LIG    1      -25.035  83.765  12.139  0.00  0.00    -0.340 N 
ATOM     37  H   LIG    1      -25.673  83.610  12.922  0.00  0.00    +0.146 HD
BRANCH  36  38
ATOM     38  C   LIG    1      -25.616  84.822  11.221  0.00  0.00    +0.075 C 
ATOM     39  C   LIG    1      -27.141  84.900  11.120  0.00  0.00    +0.050 C 
ATOM     40  C   LIG    1      -27.698  83.927  10.097  0.00  0.00    +0.161 C 
ATOM     41  O   LIG    1      -27.074  84.070   8.816  0.00  0.00    -0.380 OA
ATOM     42  C   LIG    1      -25.650  84.023   8.788  0.00  0.00    +0.161 C 
ATOM     43  C   LIG    1      -24.998  84.921   9.820  0.00  0.00    +0.050 C 
ENDBRANCH  36  38
ENDBRANCH  25  36
ENDBRANCH   1  26
BRANCH   2  44
ATOM     44  C   LIG    1      -20.429  85.209  11.627  0.00  0.00    +0.138 C 
BRANCH  44  45
ATOM     45  C   LIG    1      -20.811  86.498  10.890  0.00  0.00    +0.175 C 
BRANCH  45  46
ATOM     46  O   LIG    1      -21.195  87.502  11.839  0.00  0.00    -0.393 OA
ATOM     47  H   LIG    1      -20.761  88.327  11.555  0.00  0.00    +0.209 HD
ENDBRANCH  45  46
ENDBRANCH  44  45
ENDBRANCH   2  44
TORSDOF 10
ENDMDL
MODEL 6
REMARK VINA RESULT:      -5.3     13.113     17.628
REMARK  Name = modded_pdb/CHEMBL1983268_nitrogen_modded_with_ethanol_version_1.pdb
REMARK                            x       y       z     vdW  Elec       q    Type
REMARK                         _______ _______ _______ _____ _____    ______ ____
ROOT
ATOM      1  C   LIG    1      -40.594  81.200  25.975  0.00  0.00    +0.250 C 
ATOM      2  N   LIG    1      -41.043  79.929  25.470  0.00  0.00    -0.267 N 
ATOM      3  O   LIG    1      -41.382  82.032  26.375  0.00  0.00    -0.270 OA
ENDROOT
BRANCH   2   4
ATOM      4  C   LIG    1      -40.188  79.080  24.741  0.00  0.00    +0.193 C 
ATOM      5  C   LIG    1      -39.194  78.191  25.246  0.00  0.00    +0.020 A 
ATOM      6  C   LIG    1      -38.638  77.879  26.495  0.00  0.00    +0.013 A 
ATOM      7  C   LIG    1      -37.565  76.974  26.565  0.00  0.00    -0.043 A 
ATOM      8  C   LIG    1      -37.188  76.255  25.418  0.00  0.00    +0.006 A 
ATOM      9  C   LIG    1      -37.799  76.467  24.182  0.00  0.00    +0.025 A 
ATOM     10  C   LIG    1      -38.747  77.481  24.134  0.00  0.00    +0.050 A 
ATOM     11  N   LIG    1      -39.433  78.011  23.087  0.00  0.00    -0.260 N 
ATOM     12  H   LIG    1      -39.456  77.694  22.123  0.00  0.00    +0.168 HD
ATOM     13  N   LIG    1      -40.038  79.158  23.409  0.00  0.00    -0.110 NA
BRANCH   7  14
ATOM     14  C   LIG    1      -36.842  76.755  27.874  0.00  0.00    +0.070 C 
BRANCH  14  15
ATOM     15  C   LIG    1      -35.518  77.481  28.024  0.00  0.00    -0.038 A 
ATOM     16  C   LIG    1      -35.419  78.707  28.700  0.00  0.00    +0.042 A 
ATOM     17  C   LIG    1      -34.196  79.384  28.753  0.00  0.00    +0.126 A 
ATOM     18  F   LIG    1      -34.129  80.573  29.365  0.00  0.00    -0.205 F 
ATOM     19  C   LIG    1      -33.053  78.858  28.168  0.00  0.00    +0.076 A 
ATOM     20  C   LIG    1      -33.143  77.634  27.527  0.00  0.00    +0.126 A 
ATOM     21  F   LIG    1      -32.054  77.106  26.953  0.00  0.00    -0.205 F 
ATOM     22  C   LIG    1      -34.354  76.947  27.448  0.00  0.00    +0.042 A 
ENDBRANCH  14  15
ENDBRANCH   7  14
ENDBRANCH   2   4
BRANCH   1  26
ATOM     23  C   LIG    1      -36.796  82.983  27.063  0.00  0.00    +0.032 A 
ATOM     24  C   LIG    1      -37.507  83.230  25.891  0.00  0.00    +0.046 A 
ATOM     25  C   LIG    1      -38.459  82.451  25.221  0.00  0.00    +0.041 A 
ATOM     26  C   LIG    1      -39.091  81.547  26.091  0.00  0.00    +0.058 A 
ATOM     27  C   LIG    1      -38.394  81.272  27.257  0.00  0.00    +0.017 A 
ATOM     28  C   LIG    1      -37.191  81.840  27.676  0.00  0.00    +0.024 A 
BRANCH  23  33
ATOM     29  C   LIG    1      -35.795  86.557  29.857  0.00  0.00    +0.105 C 
ATOM     30  N   LIG    1      -34.622  86.069  29.132  0.00  0.00    -0.302 NA
ATOM     31  C   LIG    1      -34.812  86.175  27.673  0.00  0.00    +0.103 C 
ATOM     32  C   LIG    1      -35.884  85.238  27.067  0.00  0.00    +0.120 C 
ATOM     33  N   LIG    1      -35.763  83.823  27.517  0.00  0.00    -0.327 N 
ATOM     34  C   LIG    1      -35.401  83.659  28.940  0.00  0.00    +0.120 C 
ATOM     35  C   LIG    1      -34.335  84.654  29.433  0.00  0.00    +0.103 C 
ENDBRANCH  23  33
BRANCH  25  36
ATOM     36  N   LIG    1      -38.749  82.686  23.871  0.00  0.00    -0.340 N 
ATOM     37  H   LIG    1      -37.886  82.630  23.328  0.00  0.00    +0.146 HD
BRANCH  36  38
ATOM     38  C   LIG    1      -39.634  83.773  23.295  0.00  0.00    +0.075 C 
ATOM     39  C   LIG    1      -41.113  83.438  23.095  0.00  0.00    +0.050 C 
ATOM     40  C   LIG    1      -41.369  82.742  21.770  0.00  0.00    +0.161 C 
ATOM     41  O   LIG    1      -40.837  83.475  20.661  0.00  0.00    -0.380 OA
ATOM     42  C   LIG    1      -39.466  83.852  20.742  0.00  0.00    +0.161 C 
ATOM     43  C   LIG    1      -39.096  84.504  22.058  0.00  0.00    +0.050 C 
ENDBRANCH  36  38
ENDBRANCH  25  36
ENDBRANCH   1  26
BRANCH   2  44
ATOM     44  C   LIG    1      -42.493  79.597  25.420  0.00  0.00    +0.138 C 
BRANCH  44  45
ATOM     45  C   LIG    1      -42.988  78.255  24.868  0.00  0.00    +0.175 C 
BRANCH  45  46
ATOM     46  O   LIG    1      -43.154  78.349  23.446  0.00  0.00    -0.393 OA
ATOM     47  H   LIG    1      -43.454  77.472  23.147  0.00  0.00    +0.209 HD
ENDBRANCH  45  46
ENDBRANCH  44  45
ENDBRANCH   2  44
TORSDOF 10
ENDMDL
MODEL 7
REMARK VINA RESULT:      -5.3     16.506     20.395
REMARK  Name = modded_pdb/CHEMBL1983268_nitrogen_modded_with_ethanol_version_1.pdb
REMARK                            x       y       z     vdW  Elec       q    Type
REMARK                         _______ _______ _______ _____ _____    ______ ____
ROOT
ATOM      1  C   LIG    1      -22.667  80.888  15.996  0.00  0.00    +0.250 C 
ATOM      2  N   LIG    1      -21.410  80.606  15.354  0.00  0.00    -0.267 N 
ATOM      3  O   LIG    1      -22.713  81.445  17.073  0.00  0.00    -0.270 OA
ENDROOT
BRANCH   2   4
ATOM      4  C   LIG    1      -21.319  79.717  14.266  0.00  0.00    +0.193 C 
ATOM      5  C   LIG    1      -21.691  78.341  14.222  0.00  0.00    +0.020 A 
ATOM      6  C   LIG    1      -22.154  77.375  15.128  0.00  0.00    +0.013 A 
ATOM      7  C   LIG    1      -22.320  76.048  14.695  0.00  0.00    -0.043 A 
ATOM      8  C   LIG    1      -22.204  75.744  13.329  0.00  0.00    +0.006 A 
ATOM      9  C   LIG    1      -21.850  76.711  12.387  0.00  0.00    +0.025 A 
ATOM     10  C   LIG    1      -21.547  77.970  12.887  0.00  0.00    +0.050 A 
ATOM     11  N   LIG    1      -21.068  79.082  12.269  0.00  0.00    -0.260 N 
ATOM     12  H   LIG    1      -20.926  79.241  11.277  0.00  0.00    +0.168 HD
ATOM     13  N   LIG    1      -20.640  79.999  13.143  0.00  0.00    -0.110 NA
BRANCH   7  14
ATOM     14  C   LIG    1      -22.652  74.962  15.693  0.00  0.00    +0.070 C 
BRANCH  14  15
ATOM     15  C   LIG    1      -21.483  74.438  16.507  0.00  0.00    -0.038 A 
ATOM     16  C   LIG    1      -20.161  74.823  16.235  0.00  0.00    +0.042 A 
ATOM     17  C   LIG    1      -19.103  74.261  16.957  0.00  0.00    +0.126 A 
ATOM     18  F   LIG    1      -17.845  74.608  16.656  0.00  0.00    -0.205 F 
ATOM     19  C   LIG    1      -19.327  73.337  17.967  0.00  0.00    +0.076 A 
ATOM     20  C   LIG    1      -20.634  72.979  18.256  0.00  0.00    +0.126 A 
ATOM     21  F   LIG    1      -20.876  72.087  19.225  0.00  0.00    -0.205 F 
ATOM     22  C   LIG    1      -21.704  73.513  17.541  0.00  0.00    +0.042 A 
ENDBRANCH  14  15
ENDBRANCH   7  14
ENDBRANCH   2   4
BRANCH   1  26
ATOM     23  C   LIG    1      -25.805  79.106  13.595  0.00  0.00    +0.032 A 
ATOM     24  C   LIG    1      -25.122  80.284  13.300  0.00  0.00    +0.046 A 
ATOM     25  C   LIG    1      -24.444  81.178  14.138  0.00  0.00    +0.041 A 
ATOM     26  C   LIG    1      -24.020  80.554  15.324  0.00  0.00    +0.058 A 
ATOM     27  C   LIG    1      -24.697  79.390  15.646  0.00  0.00    +0.017 A 
ATOM     28  C   LIG    1      -25.686  78.751  14.898  0.00  0.00    +0.024 A 
BRANCH  23  33
ATOM     29  C   LIG    1      -30.005  78.712  11.647  0.00  0.00    +0.105 C 
ATOM     30  N   LIG    1      -29.041  77.758  11.097  0.00  0.00    -0.302 NA
ATOM     31  C   LIG    1      -28.517  76.861  12.143  0.00  0.00    +0.103 C 
ATOM     32  C   LIG    1      -27.619  77.531  13.211  0.00  0.00    +0.120 C 
ATOM     33  N   LIG    1      -26.558  78.404  12.636  0.00  0.00    -0.327 N 
ATOM     34  C   LIG    1      -26.985  79.202  11.467  0.00  0.00    +0.120 C 
ATOM     35  C   LIG    1      -27.884  78.434  10.482  0.00  0.00    +0.103 C 
ENDBRANCH  23  33
BRANCH  25  36
ATOM     36  N   LIG    1      -24.180  82.487  13.717  0.00  0.00    -0.340 N 
ATOM     37  H   LIG    1      -25.054  83.015  13.694  0.00  0.00    +0.146 HD
BRANCH  36  38
ATOM     38  C   LIG    1      -23.300  82.924  12.563  0.00  0.00    +0.075 C 
ATOM     39  C   LIG    1      -21.878  83.375  12.899  0.00  0.00    +0.050 C 
ATOM     40  C   LIG    1      -21.820  84.840  13.295  0.00  0.00    +0.161 C 
ATOM     41  O   LIG    1      -22.428  85.690  12.316  0.00  0.00    -0.380 OA
ATOM     42  C   LIG    1      -23.755  85.359  11.917  0.00  0.00    +0.161 C 
ATOM     43  C   LIG    1      -23.930  83.897  11.558  0.00  0.00    +0.050 C 
ENDBRANCH  36  38
ENDBRANCH  25  36
ENDBRANCH   1  26
BRANCH   2  44
ATOM     44  C   LIG    1      -20.123  80.987  15.996  0.00  0.00    +0.138 C 
BRANCH  44  45
ATOM     45  C   LIG    1      -18.986  79.974  16.172  0.00  0.00    +0.175 C 
BRANCH  45  46
ATOM     46  O   LIG    1      -19.276  79.107  17.276  0.00  0.00    -0.393 OA
ATOM     47  H   LIG    1      -18.432  78.693  17.529  0.00  0.00    +0.209 HD
ENDBRANCH  45  46
ENDBRANCH  44  45
ENDBRANCH   2  44
TORSDOF 10
ENDMDL
MODEL 8
REMARK VINA RESULT:      -5.3     13.092     17.730
REMARK  Name = modded_pdb/CHEMBL1983268_nitrogen_modded_with_ethanol_version_1.pdb
REMARK                            x       y       z     vdW  Elec       q    Type
REMARK                         _______ _______ _______ _____ _____    ______ ____
ROOT
ATOM      1  C   LIG    1      -39.119  70.701  26.104  0.00  0.00    +0.250 C 
ATOM      2  N   LIG    1      -39.673  71.951  26.555  0.00  0.00    -0.267 N 
ATOM      3  O   LIG    1      -39.085  69.729  26.830  0.00  0.00    -0.270 OA
ENDROOT
BRANCH   2   4
ATOM      4  C   LIG    1      -39.462  73.150  25.848  0.00  0.00    +0.193 C 
ATOM      5  C   LIG    1      -38.466  74.144  26.080  0.00  0.00    +0.020 A 
ATOM      6  C   LIG    1      -37.463  74.386  27.030  0.00  0.00    +0.013 A 
ATOM      7  C   LIG    1      -36.722  75.579  26.961  0.00  0.00    -0.043 A 
ATOM      8  C   LIG    1      -36.863  76.419  25.844  0.00  0.00    +0.006 A 
ATOM      9  C   LIG    1      -37.779  76.146  24.828  0.00  0.00    +0.025 A 
ATOM     10  C   LIG    1      -38.594  75.038  25.020  0.00  0.00    +0.050 A 
ATOM     11  N   LIG    1      -39.643  74.568  24.296  0.00  0.00    -0.260 N 
ATOM     12  H   LIG    1      -39.984  74.890  23.396  0.00  0.00    +0.168 HD
ATOM     13  N   LIG    1      -40.343  73.644  24.963  0.00  0.00    -0.110 NA
BRANCH   7  14
ATOM     14  C   LIG    1      -35.758  75.937  28.069  0.00  0.00    +0.070 C 
BRANCH  14  15
ATOM     15  C   LIG    1      -34.728  76.997  27.727  0.00  0.00    -0.038 A 
ATOM     16  C   LIG    1      -33.575  76.695  26.986  0.00  0.00    +0.042 A 
ATOM     17  C   LIG    1      -32.610  77.682  26.754  0.00  0.00    +0.126 A 
ATOM     18  F   LIG    1      -31.496  77.366  26.082  0.00  0.00    -0.205 F 
ATOM     19  C   LIG    1      -32.773  78.977  27.223  0.00  0.00    +0.076 A 
ATOM     20  C   LIG    1      -33.925  79.283  27.929  0.00  0.00    +0.126 A 
ATOM     21  F   LIG    1      -34.106  80.526  28.392  0.00  0.00    -0.205 F 
ATOM     22  C   LIG    1      -34.894  78.314  28.185  0.00  0.00    +0.042 A 
ENDBRANCH  14  15
ENDBRANCH   7  14
ENDBRANCH   2   4
BRANCH   1  26
ATOM     23  C   LIG    1      -37.683  69.030  22.371  0.00  0.00    +0.032 A 
ATOM     24  C   LIG    1      -36.897  69.630  23.352  0.00  0.00    +0.046 A 
ATOM     25  C   LIG    1      -37.230  70.563  24.343  0.00  0.00    +0.041 A 
ATOM     26  C   LIG    1      -38.598  70.513  24.660  0.00  0.00    +0.058 A 
ATOM     27  C   LIG    1      -39.402  69.935  23.691  0.00  0.00    +0.017 A 
ATOM     28  C   LIG    1      -38.995  69.351  22.492  0.00  0.00    +0.024 A 
BRANCH  23  33
ATOM     29  C   LIG    1      -38.726  65.936  19.066  0.00  0.00    +0.105 C 
ATOM     30  N   LIG    1      -37.291  66.215  19.138  0.00  0.00    -0.302 NA
ATOM     31  C   LIG    1      -36.745  65.871  20.464  0.00  0.00    +0.103 C 
ATOM     32  C   LIG    1      -37.227  66.756  21.638  0.00  0.00    +0.120 C 
ATOM     33  N   LIG    1      -37.144  68.216  21.358  0.00  0.00    -0.327 N 
ATOM     34  C   LIG    1      -37.518  68.601  19.980  0.00  0.00    +0.120 C 
ATOM     35  C   LIG    1      -36.992  67.639  18.899  0.00  0.00    +0.103 C 
ENDBRANCH  23  33
BRANCH  25  36
ATOM     36  N   LIG    1      -36.236  71.337  24.954  0.00  0.00    -0.340 N 
ATOM     37  H   LIG    1      -35.845  71.985  24.268  0.00  0.00    +0.146 HD
BRANCH  36  38
ATOM     38  C   LIG    1      -35.133  70.857  25.876  0.00  0.00    +0.075 C 
ATOM     39  C   LIG    1      -34.910  69.347  25.973  0.00  0.00    +0.050 C 
ATOM     40  C   LIG    1      -35.831  68.696  26.990  0.00  0.00    +0.161 C 
ATOM     41  O   LIG    1      -35.753  69.327  28.273  0.00  0.00    -0.380 OA
ATOM     42  C   LIG    1      -35.936  70.740  28.304  0.00  0.00    +0.161 C 
ATOM     43  C   LIG    1      -35.100  71.478  27.278  0.00  0.00    +0.050 C 
ENDBRANCH  36  38
ENDBRANCH  25  36
ENDBRANCH   1  26
BRANCH   2  44
ATOM     44  C   LIG    1      -40.219  72.090  27.932  0.00  0.00    +0.138 C 
BRANCH  44  45
ATOM     45  C   LIG    1      -39.303  72.083  29.161  0.00  0.00    +0.175 C 
BRANCH  45  46
ATOM     46  O   LIG    1      -39.179  70.745  29.663  0.00  0.00    -0.393 OA
ATOM     47  H   LIG    1      -39.432  70.154  28.932  0.00  0.00    +0.209 HD
ENDBRANCH  45  46
ENDBRANCH  44  45
ENDBRANCH   2  44
TORSDOF 10
ENDMDL
MODEL 9
REMARK VINA RESULT:      -5.2     11.849     17.364
REMARK  Name = modded_pdb/CHEMBL1983268_nitrogen_modded_with_ethanol_version_1.pdb
REMARK                            x       y       z     vdW  Elec       q    Type
REMARK                         _______ _______ _______ _____ _____    ______ ____
ROOT
ATOM      1  C   LIG    1      -37.396  78.523  29.540  0.00  0.00    +0.250 C 
ATOM      2  N   LIG    1      -36.989  79.879  29.797  0.00  0.00    -0.267 N 
ATOM      3  O   LIG    1      -37.640  77.756  30.448  0.00  0.00    -0.270 OA
ENDROOT
BRANCH   2   4
ATOM      4  C   LIG    1      -36.428  80.687  28.789  0.00  0.00    +0.193 C 
ATOM      5  C   LIG    1      -37.104  81.389  27.748  0.00  0.00    +0.020 A 
ATOM      6  C   LIG    1      -38.419  81.498  27.273  0.00  0.00    +0.013 A 
ATOM      7  C   LIG    1      -38.671  82.251  26.112  0.00  0.00    -0.043 A 
ATOM      8  C   LIG    1      -37.645  83.032  25.556  0.00  0.00    +0.006 A 
ATOM      9  C   LIG    1      -36.351  83.026  26.075  0.00  0.00    +0.025 A 
ATOM     10  C   LIG    1      -36.117  82.149  27.126  0.00  0.00    +0.050 A 
ATOM     11  N   LIG    1      -34.967  81.819  27.772  0.00  0.00    -0.260 N 
ATOM     12  H   LIG    1      -34.046  82.234  27.673  0.00  0.00    +0.168 HD
ATOM     13  N   LIG    1      -35.111  80.729  28.531  0.00  0.00    -0.110 NA
BRANCH   7  14
ATOM     14  C   LIG    1      -40.048  82.241  25.488  0.00  0.00    +0.070 C 
BRANCH  14  15
ATOM     15  C   LIG    1      -40.578  80.878  25.085  0.00  0.00    -0.038 A 
ATOM     16  C   LIG    1      -39.844  80.016  24.255  0.00  0.00    +0.042 A 
ATOM     17  C   LIG    1      -40.397  78.798  23.843  0.00  0.00    +0.126 A 
ATOM     18  F   LIG    1      -39.701  78.007  23.017  0.00  0.00    -0.205 F 
ATOM     19  C   LIG    1      -41.660  78.400  24.257  0.00  0.00    +0.076 A 
ATOM     20  C   LIG    1      -42.372  79.237  25.101  0.00  0.00    +0.126 A 
ATOM     21  F   LIG    1      -43.593  78.875  25.513  0.00  0.00    -0.205 F 
ATOM     22  C   LIG    1      -41.849  80.461  25.513  0.00  0.00    +0.042 A 
ENDBRANCH  14  15
ENDBRANCH   7  14
ENDBRANCH   2   4
BRANCH   1  26
ATOM     23  C   LIG    1      -38.343  76.071  26.093  0.00  0.00    +0.032 A 
ATOM     24  C   LIG    1      -37.067  76.308  26.599  0.00  0.00    +0.046 A 
ATOM     25  C   LIG    1      -36.577  77.366  27.376  0.00  0.00    +0.041 A 
ATOM     26  C   LIG    1      -37.604  77.993  28.101  0.00  0.00    +0.058 A 
ATOM     27  C   LIG    1      -38.881  77.784  27.606  0.00  0.00    +0.017 A 
ATOM     28  C   LIG    1      -39.250  76.980  26.528  0.00  0.00    +0.024 A 
BRANCH  23  33
ATOM     29  C   LIG    1      -40.648  72.068  25.592  0.00  0.00    +0.105 C 
ATOM     30  N   LIG    1      -39.893  72.432  24.393  0.00  0.00    -0.302 NA
ATOM     31  C   LIG    1      -38.450  72.537  24.678  0.00  0.00    +0.103 C 
ATOM     32  C   LIG    1      -38.033  73.709  25.598  0.00  0.00    +0.120 C 
ATOM     33  N   LIG    1      -38.623  75.018  25.203  0.00  0.00    -0.327 N 
ATOM     34  C   LIG    1      -40.025  74.945  24.740  0.00  0.00    +0.120 C 
ATOM     35  C   LIG    1      -40.324  73.731  23.842  0.00  0.00    +0.103 C 
ENDBRANCH  23  33
BRANCH  25  36
ATOM     36  N   LIG    1      -35.203  77.629  27.436  0.00  0.00    -0.340 N 
ATOM     37  H   LIG    1      -35.011  78.523  26.981  0.00  0.00    +0.146 HD
BRANCH  36  38
ATOM     38  C   LIG    1      -34.069  76.666  27.145  0.00  0.00    +0.075 C 
ATOM     39  C   LIG    1      -33.884  75.492  28.108  0.00  0.00    +0.050 C 
ATOM     40  C   LIG    1      -33.048  75.869  29.319  0.00  0.00    +0.161 C 
ATOM     41  O   LIG    1      -31.795  76.455  28.950  0.00  0.00    -0.380 OA
ATOM     42  C   LIG    1      -31.843  77.555  28.046  0.00  0.00    +0.161 C 
ATOM     43  C   LIG    1      -32.706  77.296  26.828  0.00  0.00    +0.050 C 
ENDBRANCH  36  38
ENDBRANCH  25  36
ENDBRANCH   1  26
BRANCH   2  44
ATOM     44  C   LIG    1      -36.850  80.382  31.191  0.00  0.00    +0.138 C 
BRANCH  44  45
ATOM     45  C   LIG    1      -35.723  79.895  32.109  0.00  0.00    +0.175 C 
BRANCH  45  46
ATOM     46  O   LIG    1      -34.485  79.871  31.384  0.00  0.00    -0.393 OA
ATOM     47  H   LIG    1      -33.832  79.452  31.972  0.00  0.00    +0.209 HD
ENDBRANCH  45  46
ENDBRANCH  44  45
ENDBRANCH   2  44
TORSDOF 10
ENDMDL
