MODEL 1
REMARK VINA RESULT:      -6.5      0.000      0.000
REMARK  Name = modded_pdb/CHEMBL2037211_nitrogen_modded_with_ethanol_version_1.pdb
REMARK                            x       y       z     vdW  Elec       q    Type
REMARK                         _______ _______ _______ _____ _____    ______ ____
ROOT
ATOM      1  C   LIG    1      -20.021  84.895  12.795  0.00  0.00    +0.038 A 
ATOM      2  C   LIG    1      -19.425  84.004  13.698  0.00  0.00    +0.046 A 
ATOM      3  C   LIG    1      -18.289  83.263  13.340  0.00  0.00    +0.033 A 
ATOM      4  C   LIG    1      -17.785  83.436  12.047  0.00  0.00    +0.023 A 
ATOM      5  C   LIG    1      -18.349  84.356  11.158  0.00  0.00    +0.004 A 
ATOM      6  C   LIG    1      -19.486  85.068  11.521  0.00  0.00    +0.023 A 
ENDROOT
BRANCH   1   8
ATOM      7  C   LIG    1      -22.440  85.094  13.297  0.00  0.00    +0.251 C 
ATOM      8  N   LIG    1      -21.157  85.656  13.178  0.00  0.00    -0.265 N 
ATOM      9  O   LIG    1      -23.466  85.772  13.227  0.00  0.00    -0.270 OA
BRANCH   7  14
ATOM     10  C   LIG    1      -23.113  81.331  12.748  0.00  0.00    +0.031 A 
ATOM     11  C   LIG    1      -22.991  80.929  14.089  0.00  0.00    +0.035 A 
ATOM     12  C   LIG    1      -22.621  81.800  15.129  0.00  0.00    +0.057 A 
ATOM     13  C   LIG    1      -22.451  83.156  14.846  0.00  0.00    +0.025 A 
ATOM     14  C   LIG    1      -22.601  83.619  13.537  0.00  0.00    +0.040 A 
ATOM     15  C   LIG    1      -22.871  82.696  12.504  0.00  0.00    +0.036 A 
BRANCH  10  20
ATOM     16  C   LIG    1      -26.904  78.963  10.606  0.00  0.00    +0.105 C 
ATOM     17  N   LIG    1      -26.419  79.824  11.677  0.00  0.00    -0.302 NA
ATOM     18  C   LIG    1      -25.830  81.075  11.141  0.00  0.00    +0.103 C 
ATOM     19  C   LIG    1      -24.371  80.945  10.639  0.00  0.00    +0.120 C 
ATOM     20  N   LIG    1      -23.515  80.437  11.739  0.00  0.00    -0.327 N 
ATOM     21  C   LIG    1      -23.980  79.079  12.111  0.00  0.00    +0.120 C 
ATOM     22  C   LIG    1      -25.462  79.120  12.571  0.00  0.00    +0.103 C 
ENDBRANCH  10  20
BRANCH  12  23
ATOM     23  C   LIG    1      -22.377  81.230  16.501  0.00  0.00    +0.417 C 
ATOM     24  F   LIG    1      -23.161  80.143  16.749  0.00  0.00    -0.166 F 
ATOM     25  F   LIG    1      -22.657  82.120  17.494  0.00  0.00    -0.166 F 
ATOM     26  F   LIG    1      -21.095  80.826  16.711  0.00  0.00    -0.166 F 
ENDBRANCH  12  23
ENDBRANCH   7  14
BRANCH   8  27
ATOM     27  C   LIG    1      -21.043  87.112  12.962  0.00  0.00    +0.141 C 
BRANCH  27  28
ATOM     28  C   LIG    1      -21.028  87.928  14.266  0.00  0.00    +0.175 C 
BRANCH  28  29
ATOM     29  O   LIG    1      -19.832  87.688  15.007  0.00  0.00    -0.393 OA
ATOM     30  H   LIG    1      -19.277  88.484  14.941  0.00  0.00    +0.209 HD
ENDBRANCH  28  29
ENDBRANCH  27  28
ENDBRANCH   8  27
ENDBRANCH   1   8
BRANCH   3  31
ATOM     31  N   LIG    1      -17.807  82.298  14.244  0.00  0.00    -0.314 N 
ATOM     32  H   LIG    1      -16.821  82.415  14.466  0.00  0.00    +0.152 HD
BRANCH  31  33
ATOM     33  C   LIG    1      -18.252  81.007  14.590  0.00  0.00    +0.033 A 
ATOM     34  C   LIG    1      -17.596  80.357  15.647  0.00  0.00    +0.047 A 
ATOM     35  C   LIG    1      -18.030  79.092  15.998  0.00  0.00    +0.043 A 
ATOM     36  N   LIG    1      -17.531  78.315  17.034  0.00  0.00    -0.281 N 
ATOM     37  H   LIG    1      -16.801  78.578  17.678  0.00  0.00    +0.155 HD
ATOM     38  C   LIG    1      -18.198  77.111  17.127  0.00  0.00    +0.249 C 
ATOM     39  O   LIG    1      -17.988  76.260  17.966  0.00  0.00    -0.270 OA
ATOM     40  C   LIG    1      -19.204  77.113  15.994  0.00  0.00    +0.048 C 
ATOM     41  C   LIG    1      -20.049  76.157  15.573  0.00  0.00    +0.039 C 
ATOM     42  C   LIG    1      -19.069  78.432  15.344  0.00  0.00    +0.008 A 
ATOM     43  C   LIG    1      -19.740  79.064  14.316  0.00  0.00    +0.012 A 
ATOM     44  C   LIG    1      -19.324  80.355  13.950  0.00  0.00    +0.024 A 
BRANCH  41  45
ATOM     45  C   LIG    1      -20.245  74.850  16.101  0.00  0.00    +0.040 A 
ATOM     46  N   LIG    1      -19.229  73.931  16.187  0.00  0.00    -0.361 N 
ATOM     47  H   LIG    1      -18.265  74.084  15.896  0.00  0.00    +0.165 HD
ATOM     48  C   LIG    1      -19.674  72.759  16.726  0.00  0.00    +0.083 A 
ATOM     49  C   LIG    1      -21.009  72.905  16.998  0.00  0.00    +0.019 A 
ATOM     50  C   LIG    1      -21.371  74.221  16.607  0.00  0.00    +0.027 A 
ENDBRANCH  41  45
ENDBRANCH  31  33
ENDBRANCH   3  31
TORSDOF 10
ENDMDL
MODEL 2
REMARK VINA RESULT:      -6.2     19.077     22.515
REMARK  Name = modded_pdb/CHEMBL2037211_nitrogen_modded_with_ethanol_version_1.pdb
REMARK                            x       y       z     vdW  Elec       q    Type
REMARK                         _______ _______ _______ _____ _____    ______ ____
ROOT
ATOM      1  C   LIG    1      -34.787  76.536  28.079  0.00  0.00    +0.038 A 
ATOM      2  C   LIG    1      -35.481  76.590  26.862  0.00  0.00    +0.046 A 
ATOM      3  C   LIG    1      -36.872  76.762  26.829  0.00  0.00    +0.033 A 
ATOM      4  C   LIG    1      -37.540  76.864  28.053  0.00  0.00    +0.023 A 
ATOM      5  C   LIG    1      -36.849  76.856  29.268  0.00  0.00    +0.004 A 
ATOM      6  C   LIG    1      -35.473  76.664  29.285  0.00  0.00    +0.023 A 
ENDROOT
BRANCH   1   8
ATOM      7  C   LIG    1      -32.738  75.320  28.759  0.00  0.00    +0.251 C 
ATOM      8  N   LIG    1      -33.376  76.384  28.098  0.00  0.00    -0.265 N 
ATOM      9  O   LIG    1      -31.564  75.381  29.126  0.00  0.00    -0.270 OA
BRANCH   7  14
ATOM     10  C   LIG    1      -34.776  72.079  28.255  0.00  0.00    +0.031 A 
ATOM     11  C   LIG    1      -34.928  71.748  29.613  0.00  0.00    +0.035 A 
ATOM     12  C   LIG    1      -34.331  72.475  30.659  0.00  0.00    +0.057 A 
ATOM     13  C   LIG    1      -33.625  73.640  30.355  0.00  0.00    +0.025 A 
ATOM     14  C   LIG    1      -33.479  74.040  29.025  0.00  0.00    +0.040 A 
ATOM     15  C   LIG    1      -34.004  73.227  27.997  0.00  0.00    +0.036 A 
BRANCH  10  20
ATOM     16  C   LIG    1      -35.467  67.621  26.204  0.00  0.00    +0.105 C 
ATOM     17  N   LIG    1      -34.778  68.445  27.188  0.00  0.00    -0.302 NA
ATOM     18  C   LIG    1      -35.732  69.063  28.141  0.00  0.00    +0.103 C 
ATOM     19  C   LIG    1      -36.435  70.340  27.621  0.00  0.00    +0.120 C 
ATOM     20  N   LIG    1      -35.413  71.345  27.239  0.00  0.00    -0.327 N 
ATOM     21  C   LIG    1      -34.607  70.795  26.122  0.00  0.00    +0.120 C 
ATOM     22  C   LIG    1      -33.915  69.474  26.550  0.00  0.00    +0.103 C 
ENDBRANCH  10  20
BRANCH  12  23
ATOM     23  C   LIG    1      -34.438  71.946  32.065  0.00  0.00    +0.417 C 
ATOM     24  F   LIG    1      -33.883  70.707  32.187  0.00  0.00    -0.166 F 
ATOM     25  F   LIG    1      -35.730  71.813  32.476  0.00  0.00    -0.166 F 
ATOM     26  F   LIG    1      -33.827  72.726  32.996  0.00  0.00    -0.166 F 
ENDBRANCH  12  23
ENDBRANCH   7  14
BRANCH   8  27
ATOM     27  C   LIG    1      -32.604  77.617  27.839  0.00  0.00    +0.141 C 
BRANCH  27  28
ATOM     28  C   LIG    1      -31.949  77.651  26.448  0.00  0.00    +0.175 C 
BRANCH  28  29
ATOM     29  O   LIG    1      -32.371  78.798  25.711  0.00  0.00    -0.393 OA
ATOM     30  H   LIG    1      -32.751  79.433  26.342  0.00  0.00    +0.209 HD
ENDBRANCH  28  29
ENDBRANCH  27  28
ENDBRANCH   8  27
ENDBRANCH   1   8
BRANCH   3  31
ATOM     31  N   LIG    1      -37.527  76.688  25.585  0.00  0.00    -0.314 N 
ATOM     32  H   LIG    1      -37.611  77.590  25.124  0.00  0.00    +0.152 HD
BRANCH  31  33
ATOM     33  C   LIG    1      -38.423  75.753  25.033  0.00  0.00    +0.033 A 
ATOM     34  C   LIG    1      -38.073  74.396  25.111  0.00  0.00    +0.047 A 
ATOM     35  C   LIG    1      -38.949  73.469  24.577  0.00  0.00    +0.043 A 
ATOM     36  N   LIG    1      -38.791  72.090  24.594  0.00  0.00    -0.281 N 
ATOM     37  H   LIG    1      -38.027  71.583  25.015  0.00  0.00    +0.155 HD
ATOM     38  C   LIG    1      -39.855  71.453  23.991  0.00  0.00    +0.249 C 
ATOM     39  O   LIG    1      -39.989  70.251  23.902  0.00  0.00    -0.270 OA
ATOM     40  C   LIG    1      -40.768  72.559  23.502  0.00  0.00    +0.048 C 
ATOM     41  C   LIG    1      -41.898  72.504  22.776  0.00  0.00    +0.039 C 
ATOM     42  C   LIG    1      -40.144  73.819  23.953  0.00  0.00    +0.008 A 
ATOM     43  C   LIG    1      -40.516  75.148  23.885  0.00  0.00    +0.012 A 
ATOM     44  C   LIG    1      -39.647  76.106  24.432  0.00  0.00    +0.024 A 
BRANCH  41  45
ATOM     45  C   LIG    1      -42.571  71.358  22.267  0.00  0.00    +0.040 A 
ATOM     46  N   LIG    1      -43.110  70.397  23.086  0.00  0.00    -0.361 N 
ATOM     47  H   LIG    1      -43.086  70.405  24.105  0.00  0.00    +0.165 HD
ATOM     48  C   LIG    1      -43.698  69.406  22.357  0.00  0.00    +0.083 A 
ATOM     49  C   LIG    1      -43.542  69.715  21.031  0.00  0.00    +0.019 A 
ATOM     50  C   LIG    1      -42.835  70.945  20.971  0.00  0.00    +0.027 A 
ENDBRANCH  41  45
ENDBRANCH  31  33
ENDBRANCH   3  31
TORSDOF 10
ENDMDL
MODEL 3
REMARK VINA RESULT:      -6.2     19.481     22.968
REMARK  Name = modded_pdb/CHEMBL2037211_nitrogen_modded_with_ethanol_version_1.pdb
REMARK                            x       y       z     vdW  Elec       q    Type
REMARK                         _______ _______ _______ _____ _____    ______ ____
ROOT
ATOM      1  C   LIG    1      -34.713  76.499  28.144  0.00  0.00    +0.038 A 
ATOM      2  C   LIG    1      -35.386  76.552  26.915  0.00  0.00    +0.046 A 
ATOM      3  C   LIG    1      -36.777  76.719  26.857  0.00  0.00    +0.033 A 
ATOM      4  C   LIG    1      -37.467  76.816  28.070  0.00  0.00    +0.023 A 
ATOM      5  C   LIG    1      -36.797  76.809  29.297  0.00  0.00    +0.004 A 
ATOM      6  C   LIG    1      -35.421  76.622  29.338  0.00  0.00    +0.023 A 
ENDROOT
BRANCH   1   8
ATOM      7  C   LIG    1      -32.671  75.301  28.874  0.00  0.00    +0.251 C 
ATOM      8  N   LIG    1      -33.302  76.352  28.187  0.00  0.00    -0.265 N 
ATOM      9  O   LIG    1      -31.504  75.371  29.260  0.00  0.00    -0.270 OA
BRANCH   7  14
ATOM     10  C   LIG    1      -34.294  72.309  30.700  0.00  0.00    +0.031 A 
ATOM     11  C   LIG    1      -34.694  71.596  29.557  0.00  0.00    +0.035 A 
ATOM     12  C   LIG    1      -34.538  72.081  28.247  0.00  0.00    +0.057 A 
ATOM     13  C   LIG    1      -33.870  73.290  28.049  0.00  0.00    +0.025 A 
ATOM     14  C   LIG    1      -33.413  74.022  29.148  0.00  0.00    +0.040 A 
ATOM     15  C   LIG    1      -33.682  73.552  30.451  0.00  0.00    +0.036 A 
BRANCH  10  20
ATOM     16  C   LIG    1      -37.289  71.729  34.605  0.00  0.00    +0.105 C 
ATOM     17  N   LIG    1      -37.053  72.320  33.294  0.00  0.00    -0.302 NA
ATOM     18  C   LIG    1      -36.849  71.278  32.260  0.00  0.00    +0.103 C 
ATOM     19  C   LIG    1      -35.420  70.685  32.207  0.00  0.00    +0.120 C 
ATOM     20  N   LIG    1      -34.440  71.778  31.994  0.00  0.00    -0.327 N 
ATOM     21  C   LIG    1      -34.498  72.695  33.158  0.00  0.00    +0.120 C 
ATOM     22  C   LIG    1      -35.924  73.288  33.312  0.00  0.00    +0.103 C 
ENDBRANCH  10  20
BRANCH  12  23
ATOM     23  C   LIG    1      -35.136  71.299  27.107  0.00  0.00    +0.417 C 
ATOM     24  F   LIG    1      -34.286  71.216  26.044  0.00  0.00    -0.166 F 
ATOM     25  F   LIG    1      -36.275  71.870  26.623  0.00  0.00    -0.166 F 
ATOM     26  F   LIG    1      -35.465  70.020  27.428  0.00  0.00    -0.166 F 
ENDBRANCH  12  23
ENDBRANCH   7  14
BRANCH   8  27
ATOM     27  C   LIG    1      -32.531  77.583  27.923  0.00  0.00    +0.141 C 
BRANCH  27  28
ATOM     28  C   LIG    1      -31.968  77.661  26.493  0.00  0.00    +0.175 C 
BRANCH  28  29
ATOM     29  O   LIG    1      -32.598  78.704  25.750  0.00  0.00    -0.393 OA
ATOM     30  H   LIG    1      -31.924  79.378  25.555  0.00  0.00    +0.209 HD
ENDBRANCH  28  29
ENDBRANCH  27  28
ENDBRANCH   8  27
ENDBRANCH   1   8
BRANCH   3  31
ATOM     31  N   LIG    1      -37.409  76.646  25.602  0.00  0.00    -0.314 N 
ATOM     32  H   LIG    1      -37.440  77.539  25.117  0.00  0.00    +0.152 HD
BRANCH  31  33
ATOM     33  C   LIG    1      -38.338  75.740  25.053  0.00  0.00    +0.033 A 
ATOM     34  C   LIG    1      -38.013  74.376  25.092  0.00  0.00    +0.047 A 
ATOM     35  C   LIG    1      -38.922  73.478  24.562  0.00  0.00    +0.043 A 
ATOM     36  N   LIG    1      -38.791  72.096  24.544  0.00  0.00    -0.281 N 
ATOM     37  H   LIG    1      -38.027  71.565  24.934  0.00  0.00    +0.155 HD
ATOM     38  C   LIG    1      -39.884  71.494  23.956  0.00  0.00    +0.249 C 
ATOM     39  O   LIG    1      -40.044  70.297  23.844  0.00  0.00    -0.270 OA
ATOM     40  C   LIG    1      -40.787  72.628  23.517  0.00  0.00    +0.048 C 
ATOM     41  C   LIG    1      -41.936  72.612  22.820  0.00  0.00    +0.039 C 
ATOM     42  C   LIG    1      -40.126  73.865  23.979  0.00  0.00    +0.008 A 
ATOM     43  C   LIG    1      -40.473  75.202  23.949  0.00  0.00    +0.012 A 
ATOM     44  C   LIG    1      -39.571  76.131  24.494  0.00  0.00    +0.024 A 
BRANCH  41  45
ATOM     45  C   LIG    1      -42.646  71.491  22.305  0.00  0.00    +0.040 A 
ATOM     46  N   LIG    1      -43.195  70.530  23.117  0.00  0.00    -0.361 N 
ATOM     47  H   LIG    1      -43.155  70.522  24.136  0.00  0.00    +0.165 HD
ATOM     48  C   LIG    1      -43.819  69.566  22.382  0.00  0.00    +0.083 A 
ATOM     49  C   LIG    1      -43.677  69.892  21.059  0.00  0.00    +0.019 A 
ATOM     50  C   LIG    1      -42.940  71.105  21.007  0.00  0.00    +0.027 A 
ENDBRANCH  41  45
ENDBRANCH  31  33
ENDBRANCH   3  31
TORSDOF 10
ENDMDL
MODEL 4
REMARK VINA RESULT:      -6.2     19.064     22.798
REMARK  Name = modded_pdb/CHEMBL2037211_nitrogen_modded_with_ethanol_version_1.pdb
REMARK                            x       y       z     vdW  Elec       q    Type
REMARK                         _______ _______ _______ _____ _____    ______ ____
ROOT
ATOM      1  C   LIG    1      -34.732  76.450  28.134  0.00  0.00    +0.038 A 
ATOM      2  C   LIG    1      -35.413  76.544  26.912  0.00  0.00    +0.046 A 
ATOM      3  C   LIG    1      -36.812  76.627  26.867  0.00  0.00    +0.033 A 
ATOM      4  C   LIG    1      -37.501  76.599  28.084  0.00  0.00    +0.023 A 
ATOM      5  C   LIG    1      -36.826  76.550  29.307  0.00  0.00    +0.004 A 
ATOM      6  C   LIG    1      -35.440  76.448  29.334  0.00  0.00    +0.023 A 
ENDROOT
BRANCH   1   8
ATOM      7  C   LIG    1      -32.615  75.387  28.861  0.00  0.00    +0.251 C 
ATOM      8  N   LIG    1      -33.315  76.389  28.166  0.00  0.00    -0.265 N 
ATOM      9  O   LIG    1      -31.451  75.533  29.234  0.00  0.00    -0.270 OA
BRANCH   7  14
ATOM     10  C   LIG    1      -33.905  72.258  30.721  0.00  0.00    +0.031 A 
ATOM     11  C   LIG    1      -34.417  71.581  29.601  0.00  0.00    +0.035 A 
ATOM     12  C   LIG    1      -34.438  72.129  28.306  0.00  0.00    +0.057 A 
ATOM     13  C   LIG    1      -33.839  73.371  28.089  0.00  0.00    +0.025 A 
ATOM     14  C   LIG    1      -33.276  74.070  29.159  0.00  0.00    +0.040 A 
ATOM     15  C   LIG    1      -33.368  73.533  30.461  0.00  0.00    +0.036 A 
BRANCH  10  20
ATOM     16  C   LIG    1      -31.366  69.414  33.888  0.00  0.00    +0.105 C 
ATOM     17  N   LIG    1      -31.488  69.992  32.555  0.00  0.00    -0.302 NA
ATOM     18  C   LIG    1      -31.485  71.474  32.606  0.00  0.00    +0.103 C 
ATOM     19  C   LIG    1      -32.846  72.115  32.965  0.00  0.00    +0.120 C 
ATOM     20  N   LIG    1      -33.875  71.665  31.995  0.00  0.00    -0.327 N 
ATOM     21  C   LIG    1      -34.029  70.195  32.121  0.00  0.00    +0.120 C 
ATOM     22  C   LIG    1      -32.681  69.481  31.831  0.00  0.00    +0.103 C 
ENDBRANCH  10  20
BRANCH  12  23
ATOM     23  C   LIG    1      -35.144  71.377  27.209  0.00  0.00    +0.417 C 
ATOM     24  F   LIG    1      -34.300  71.044  26.193  0.00  0.00    -0.166 F 
ATOM     25  F   LIG    1      -36.143  72.105  26.636  0.00  0.00    -0.166 F 
ATOM     26  F   LIG    1      -35.717  70.213  27.619  0.00  0.00    -0.166 F 
ENDBRANCH  12  23
ENDBRANCH   7  14
BRANCH   8  27
ATOM     27  C   LIG    1      -32.621  77.661  27.877  0.00  0.00    +0.141 C 
BRANCH  27  28
ATOM     28  C   LIG    1      -31.963  77.699  26.488  0.00  0.00    +0.175 C 
BRANCH  28  29
ATOM     29  O   LIG    1      -32.357  78.866  25.765  0.00  0.00    -0.393 OA
ATOM     30  H   LIG    1      -33.303  78.782  25.560  0.00  0.00    +0.209 HD
ENDBRANCH  28  29
ENDBRANCH  27  28
ENDBRANCH   8  27
ENDBRANCH   1   8
BRANCH   3  31
ATOM     31  N   LIG    1      -37.445  76.599  25.611  0.00  0.00    -0.314 N 
ATOM     32  H   LIG    1      -37.456  77.504  25.148  0.00  0.00    +0.152 HD
BRANCH  31  33
ATOM     33  C   LIG    1      -38.395  75.729  25.040  0.00  0.00    +0.033 A 
ATOM     34  C   LIG    1      -38.108  74.355  25.058  0.00  0.00    +0.047 A 
ATOM     35  C   LIG    1      -39.037  73.493  24.506  0.00  0.00    +0.043 A 
ATOM     36  N   LIG    1      -38.944  72.108  24.465  0.00  0.00    -0.281 N 
ATOM     37  H   LIG    1      -38.199  71.549  24.852  0.00  0.00    +0.155 HD
ATOM     38  C   LIG    1      -40.049  71.546  23.860  0.00  0.00    +0.249 C 
ATOM     39  O   LIG    1      -40.241  70.356  23.726  0.00  0.00    -0.270 OA
ATOM     40  C   LIG    1      -40.917  72.712  23.432  0.00  0.00    +0.048 C 
ATOM     41  C   LIG    1      -42.061  72.739  22.727  0.00  0.00    +0.039 C 
ATOM     42  C   LIG    1      -40.226  73.923  23.920  0.00  0.00    +0.008 A 
ATOM     43  C   LIG    1      -40.535  75.269  23.911  0.00  0.00    +0.012 A 
ATOM     44  C   LIG    1      -39.612  76.163  24.478  0.00  0.00    +0.024 A 
BRANCH  41  45
ATOM     45  C   LIG    1      -42.797  71.648  22.188  0.00  0.00    +0.040 A 
ATOM     46  N   LIG    1      -42.239  70.739  21.323  0.00  0.00    -0.361 N 
ATOM     47  H   LIG    1      -41.276  70.751  20.991  0.00  0.00    +0.165 HD
ATOM     48  C   LIG    1      -43.150  69.794  20.952  0.00  0.00    +0.083 A 
ATOM     49  C   LIG    1      -44.332  70.083  21.581  0.00  0.00    +0.019 A 
ATOM     50  C   LIG    1      -44.112  71.250  22.362  0.00  0.00    +0.027 A 
ENDBRANCH  41  45
ENDBRANCH  31  33
ENDBRANCH   3  31
TORSDOF 10
ENDMDL
MODEL 5
REMARK VINA RESULT:      -6.0     19.315     22.083
REMARK  Name = modded_pdb/CHEMBL2037211_nitrogen_modded_with_ethanol_version_1.pdb
REMARK                            x       y       z     vdW  Elec       q    Type
REMARK                         _______ _______ _______ _____ _____    ______ ____
ROOT
ATOM      1  C   LIG    1      -37.231  80.515  28.477  0.00  0.00    +0.038 A 
ATOM      2  C   LIG    1      -37.272  79.867  27.234  0.00  0.00    +0.046 A 
ATOM      3  C   LIG    1      -38.300  78.967  26.921  0.00  0.00    +0.033 A 
ATOM      4  C   LIG    1      -39.272  78.730  27.898  0.00  0.00    +0.023 A 
ATOM      5  C   LIG    1      -39.262  79.406  29.122  0.00  0.00    +0.004 A 
ATOM      6  C   LIG    1      -38.225  80.280  29.425  0.00  0.00    +0.023 A 
ENDROOT
BRANCH   1   8
ATOM      7  C   LIG    1      -35.061  81.093  29.525  0.00  0.00    +0.251 C 
ATOM      8  N   LIG    1      -36.197  81.441  28.774  0.00  0.00    -0.265 N 
ATOM      9  O   LIG    1      -34.381  81.930  30.120  0.00  0.00    -0.270 OA
BRANCH   7  14
ATOM     10  C   LIG    1      -34.430  77.510  30.821  0.00  0.00    +0.031 A 
ATOM     11  C   LIG    1      -33.670  77.054  29.730  0.00  0.00    +0.035 A 
ATOM     12  C   LIG    1      -33.435  77.822  28.575  0.00  0.00    +0.057 A 
ATOM     13  C   LIG    1      -33.894  79.139  28.534  0.00  0.00    +0.025 A 
ATOM     14  C   LIG    1      -34.619  79.658  29.609  0.00  0.00    +0.040 A 
ATOM     15  C   LIG    1      -34.924  78.823  30.705  0.00  0.00    +0.036 A 
BRANCH  10  20
ATOM     16  C   LIG    1      -37.199  74.053  33.043  0.00  0.00    +0.105 C 
ATOM     17  N   LIG    1      -36.995  74.946  31.910  0.00  0.00    -0.302 NA
ATOM     18  C   LIG    1      -35.724  74.647  31.207  0.00  0.00    +0.103 C 
ATOM     19  C   LIG    1      -34.460  75.253  31.862  0.00  0.00    +0.120 C 
ATOM     20  N   LIG    1      -34.619  76.724  31.972  0.00  0.00    -0.327 N 
ATOM     21  C   LIG    1      -35.764  77.008  32.870  0.00  0.00    +0.120 C 
ATOM     22  C   LIG    1      -37.066  76.377  32.306  0.00  0.00    +0.103 C 
ENDBRANCH  10  20
BRANCH  12  23
ATOM     23  C   LIG    1      -32.734  77.180  27.407  0.00  0.00    +0.417 C 
ATOM     24  F   LIG    1      -33.430  76.116  26.916  0.00  0.00    -0.166 F 
ATOM     25  F   LIG    1      -31.504  76.695  27.738  0.00  0.00    -0.166 F 
ATOM     26  F   LIG    1      -32.535  78.018  26.355  0.00  0.00    -0.166 F 
ENDBRANCH  12  23
ENDBRANCH   7  14
BRANCH   8  27
ATOM     27  C   LIG    1      -36.584  82.864  28.701  0.00  0.00    +0.141 C 
BRANCH  27  28
ATOM     28  C   LIG    1      -36.598  83.425  27.269  0.00  0.00    +0.175 C 
BRANCH  28  29
ATOM     29  O   LIG    1      -35.481  82.947  26.519  0.00  0.00    -0.393 OA
ATOM     30  H   LIG    1      -35.289  82.041  26.818  0.00  0.00    +0.209 HD
ENDBRANCH  28  29
ENDBRANCH  27  28
ENDBRANCH   8  27
ENDBRANCH   1   8
BRANCH   3  31
ATOM     31  N   LIG    1      -38.224  78.259  25.707  0.00  0.00    -0.314 N 
ATOM     32  H   LIG    1      -38.108  78.864  24.898  0.00  0.00    +0.152 HD
BRANCH  31  33
ATOM     33  C   LIG    1      -38.661  76.977  25.321  0.00  0.00    +0.033 A 
ATOM     34  C   LIG    1      -37.751  75.917  25.447  0.00  0.00    +0.047 A 
ATOM     35  C   LIG    1      -38.173  74.653  25.076  0.00  0.00    +0.043 A 
ATOM     36  N   LIG    1      -37.429  73.484  25.164  0.00  0.00    -0.281 N 
ATOM     37  H   LIG    1      -36.492  73.400  25.529  0.00  0.00    +0.155 HD
ATOM     38  C   LIG    1      -38.152  72.393  24.729  0.00  0.00    +0.249 C 
ATOM     39  O   LIG    1      -37.755  71.247  24.733  0.00  0.00    -0.270 OA
ATOM     40  C   LIG    1      -39.489  72.944  24.276  0.00  0.00    +0.048 C 
ATOM     41  C   LIG    1      -40.532  72.334  23.687  0.00  0.00    +0.039 C 
ATOM     42  C   LIG    1      -39.444  74.390  24.571  0.00  0.00    +0.008 A 
ATOM     43  C   LIG    1      -40.361  75.417  24.459  0.00  0.00    +0.012 A 
ATOM     44  C   LIG    1      -39.958  76.707  24.842  0.00  0.00    +0.024 A 
BRANCH  41  45
ATOM     45  C   LIG    1      -40.674  70.964  23.333  0.00  0.00    +0.040 A 
ATOM     46  N   LIG    1      -40.565  69.950  24.253  0.00  0.00    -0.361 N 
ATOM     47  H   LIG    1      -40.379  70.071  25.248  0.00  0.00    +0.165 HD
ATOM     48  C   LIG    1      -40.741  68.733  23.664  0.00  0.00    +0.083 A 
ATOM     49  C   LIG    1      -40.969  68.944  22.329  0.00  0.00    +0.019 A 
ATOM     50  C   LIG    1      -40.929  70.348  22.118  0.00  0.00    +0.027 A 
ENDBRANCH  41  45
ENDBRANCH  31  33
ENDBRANCH   3  31
TORSDOF 10
ENDMDL
MODEL 6
REMARK VINA RESULT:      -6.0      4.239      9.319
REMARK  Name = modded_pdb/CHEMBL2037211_nitrogen_modded_with_ethanol_version_1.pdb
REMARK                            x       y       z     vdW  Elec       q    Type
REMARK                         _______ _______ _______ _____ _____    ______ ____
ROOT
ATOM      1  C   LIG    1      -22.442  84.224  13.225  0.00  0.00    +0.038 A 
ATOM      2  C   LIG    1      -23.456  84.587  12.327  0.00  0.00    +0.046 A 
ATOM      3  C   LIG    1      -23.523  84.024  11.045  0.00  0.00    +0.033 A 
ATOM      4  C   LIG    1      -22.535  83.099  10.692  0.00  0.00    +0.023 A 
ATOM      5  C   LIG    1      -21.548  82.699  11.597  0.00  0.00    +0.004 A 
ATOM      6  C   LIG    1      -21.483  83.282  12.858  0.00  0.00    +0.023 A 
ENDROOT
BRANCH   1   8
ATOM      7  C   LIG    1      -22.658  84.030  15.686  0.00  0.00    +0.251 C 
ATOM      8  N   LIG    1      -22.398  84.784  14.528  0.00  0.00    -0.265 N 
ATOM      9  O   LIG    1      -23.016  84.548  16.744  0.00  0.00    -0.270 OA
BRANCH   7  14
ATOM     10  C   LIG    1      -23.381  80.245  15.426  0.00  0.00    +0.031 A 
ATOM     11  C   LIG    1      -22.098  79.792  15.778  0.00  0.00    +0.035 A 
ATOM     12  C   LIG    1      -21.008  80.651  16.006  0.00  0.00    +0.057 A 
ATOM     13  C   LIG    1      -21.217  82.030  15.976  0.00  0.00    +0.025 A 
ATOM     14  C   LIG    1      -22.483  82.537  15.672  0.00  0.00    +0.040 A 
ATOM     15  C   LIG    1      -23.525  81.643  15.346  0.00  0.00    +0.036 A 
BRANCH  10  20
ATOM     16  C   LIG    1      -25.883  77.438  12.198  0.00  0.00    +0.105 C 
ATOM     17  N   LIG    1      -24.834  78.419  12.443  0.00  0.00    -0.302 NA
ATOM     18  C   LIG    1      -23.796  77.885  13.357  0.00  0.00    +0.103 C 
ATOM     19  C   LIG    1      -24.155  77.952  14.861  0.00  0.00    +0.120 C 
ATOM     20  N   LIG    1      -24.454  79.357  15.234  0.00  0.00    -0.327 N 
ATOM     21  C   LIG    1      -25.645  79.804  14.472  0.00  0.00    +0.120 C 
ATOM     22  C   LIG    1      -25.380  79.708  12.945  0.00  0.00    +0.103 C 
ENDBRANCH  10  20
BRANCH  12  23
ATOM     23  C   LIG    1      -19.645  80.051  16.232  0.00  0.00    +0.417 C 
ATOM     24  F   LIG    1      -19.617  79.249  17.334  0.00  0.00    -0.166 F 
ATOM     25  F   LIG    1      -18.686  80.996  16.439  0.00  0.00    -0.166 F 
ATOM     26  F   LIG    1      -19.201  79.287  15.199  0.00  0.00    -0.166 F 
ENDBRANCH  12  23
ENDBRANCH   7  14
BRANCH   8  27
ATOM     27  C   LIG    1      -22.564  86.250  14.591  0.00  0.00    +0.141 C 
BRANCH  27  28
ATOM     28  C   LIG    1      -21.333  86.984  15.148  0.00  0.00    +0.175 C 
BRANCH  28  29
ATOM     29  O   LIG    1      -21.513  87.316  16.525  0.00  0.00    -0.393 OA
ATOM     30  H   LIG    1      -21.340  86.515  17.048  0.00  0.00    +0.209 HD
ENDBRANCH  28  29
ENDBRANCH  27  28
ENDBRANCH   8  27
ENDBRANCH   1   8
BRANCH   3  31
ATOM     31  N   LIG    1      -24.490  84.515  10.148  0.00  0.00    -0.314 N 
ATOM     32  H   LIG    1      -24.157  85.296   9.589  0.00  0.00    +0.152 HD
BRANCH  31  33
ATOM     33  C   LIG    1      -25.897  84.442  10.127  0.00  0.00    +0.033 A 
ATOM     34  C   LIG    1      -26.610  85.533  10.648  0.00  0.00    +0.047 A 
ATOM     35  C   LIG    1      -27.991  85.473  10.626  0.00  0.00    +0.043 A 
ATOM     36  N   LIG    1      -28.859  86.465  11.061  0.00  0.00    -0.281 N 
ATOM     37  H   LIG    1      -28.596  87.367  11.430  0.00  0.00    +0.155 HD
ATOM     38  C   LIG    1      -30.176  86.097  10.884  0.00  0.00    +0.249 C 
ATOM     39  O   LIG    1      -31.136  86.790  11.145  0.00  0.00    -0.270 OA
ATOM     40  C   LIG    1      -30.133  84.695  10.310  0.00  0.00    +0.048 C 
ATOM     41  C   LIG    1      -31.126  83.834  10.030  0.00  0.00    +0.039 C 
ATOM     42  C   LIG    1      -28.701  84.382  10.131  0.00  0.00    +0.008 A 
ATOM     43  C   LIG    1      -28.017  83.308   9.595  0.00  0.00    +0.012 A 
ATOM     44  C   LIG    1      -26.613  83.352   9.595  0.00  0.00    +0.024 A 
BRANCH  41  45
ATOM     45  C   LIG    1      -32.528  84.015  10.185  0.00  0.00    +0.040 A 
ATOM     46  N   LIG    1      -33.234  83.451  11.218  0.00  0.00    -0.361 N 
ATOM     47  H   LIG    1      -32.841  82.867  11.955  0.00  0.00    +0.165 HD
ATOM     48  C   LIG    1      -34.557  83.775  11.142  0.00  0.00    +0.083 A 
ATOM     49  C   LIG    1      -34.730  84.565  10.036  0.00  0.00    +0.019 A 
ATOM     50  C   LIG    1      -33.454  84.720   9.432  0.00  0.00    +0.027 A 
ENDBRANCH  41  45
ENDBRANCH  31  33
ENDBRANCH   3  31
TORSDOF 10
ENDMDL
MODEL 7
REMARK VINA RESULT:      -6.0      3.545      7.171
REMARK  Name = modded_pdb/CHEMBL2037211_nitrogen_modded_with_ethanol_version_1.pdb
REMARK                            x       y       z     vdW  Elec       q    Type
REMARK                         _______ _______ _______ _____ _____    ______ ____
ROOT
ATOM      1  C   LIG    1      -20.656  80.927  15.047  0.00  0.00    +0.038 A 
ATOM      2  C   LIG    1      -21.256  79.691  14.766  0.00  0.00    +0.046 A 
ATOM      3  C   LIG    1      -22.395  79.264  15.464  0.00  0.00    +0.033 A 
ATOM      4  C   LIG    1      -22.900  80.109  16.457  0.00  0.00    +0.023 A 
ATOM      5  C   LIG    1      -22.333  81.361  16.711  0.00  0.00    +0.004 A 
ATOM      6  C   LIG    1      -21.193  81.762  16.025  0.00  0.00    +0.023 A 
ENDROOT
BRANCH   1   8
ATOM      7  C   LIG    1      -19.603  82.267  13.249  0.00  0.00    +0.251 C 
ATOM      8  N   LIG    1      -19.518  81.358  14.318  0.00  0.00    -0.265 N 
ATOM      9  O   LIG    1      -18.738  82.341  12.375  0.00  0.00    -0.270 OA
BRANCH   7  14
ATOM     10  C   LIG    1      -22.948  83.880  12.190  0.00  0.00    +0.031 A 
ATOM     11  C   LIG    1      -22.823  85.062  12.940  0.00  0.00    +0.035 A 
ATOM     12  C   LIG    1      -21.759  85.310  13.824  0.00  0.00    +0.057 A 
ATOM     13  C   LIG    1      -20.717  84.386  13.904  0.00  0.00    +0.025 A 
ATOM     14  C   LIG    1      -20.768  83.212  13.148  0.00  0.00    +0.040 A 
ATOM     15  C   LIG    1      -21.903  82.951  12.352  0.00  0.00    +0.036 A 
BRANCH  10  20
ATOM     16  C   LIG    1      -26.383  80.731  10.504  0.00  0.00    +0.105 C 
ATOM     17  N   LIG    1      -25.227  80.972  11.357  0.00  0.00    -0.302 NA
ATOM     18  C   LIG    1      -25.507  82.025  12.364  0.00  0.00    +0.103 C 
ATOM     19  C   LIG    1      -25.375  83.475  11.842  0.00  0.00    +0.120 C 
ATOM     20  N   LIG    1      -24.012  83.680  11.293  0.00  0.00    -0.327 N 
ATOM     21  C   LIG    1      -23.830  82.772  10.134  0.00  0.00    +0.120 C 
ATOM     22  C   LIG    1      -24.008  81.293  10.570  0.00  0.00    +0.103 C 
ENDBRANCH  10  20
BRANCH  12  23
ATOM     23  C   LIG    1      -21.803  86.545  14.686  0.00  0.00    +0.417 C 
ATOM     24  F   LIG    1      -22.556  87.532  14.124  0.00  0.00    -0.166 F 
ATOM     25  F   LIG    1      -20.570  87.089  14.883  0.00  0.00    -0.166 F 
ATOM     26  F   LIG    1      -22.322  86.334  15.925  0.00  0.00    -0.166 F 
ENDBRANCH  12  23
ENDBRANCH   7  14
BRANCH   8  27
ATOM     27  C   LIG    1      -18.346  80.461  14.388  0.00  0.00    +0.141 C 
BRANCH  27  28
ATOM     28  C   LIG    1      -17.244  80.964  15.335  0.00  0.00    +0.175 C 
BRANCH  28  29
ATOM     29  O   LIG    1      -17.678  80.926  16.695  0.00  0.00    -0.393 OA
ATOM     30  H   LIG    1      -16.954  80.552  17.226  0.00  0.00    +0.209 HD
ENDBRANCH  28  29
ENDBRANCH  27  28
ENDBRANCH   8  27
ENDBRANCH   1   8
BRANCH   3  31
ATOM     31  N   LIG    1      -22.881  77.965  15.222  0.00  0.00    -0.314 N 
ATOM     32  H   LIG    1      -22.158  77.252  15.275  0.00  0.00    +0.152 HD
BRANCH  31  33
ATOM     33  C   LIG    1      -24.019  77.482  14.547  0.00  0.00    +0.033 A 
ATOM     34  C   LIG    1      -25.075  78.381  14.332  0.00  0.00    +0.047 A 
ATOM     35  C   LIG    1      -26.194  77.919  13.664  0.00  0.00    +0.043 A 
ATOM     36  N   LIG    1      -27.314  78.667  13.330  0.00  0.00    -0.281 N 
ATOM     37  H   LIG    1      -27.450  79.650  13.512  0.00  0.00    +0.155 HD
ATOM     38  C   LIG    1      -28.244  77.907  12.651  0.00  0.00    +0.249 C 
ATOM     39  O   LIG    1      -29.296  78.320  12.211  0.00  0.00    -0.270 OA
ATOM     40  C   LIG    1      -27.660  76.510  12.586  0.00  0.00    +0.048 C 
ATOM     41  C   LIG    1      -28.181  75.365  12.115  0.00  0.00    +0.039 C 
ATOM     42  C   LIG    1      -26.327  76.607  13.215  0.00  0.00    +0.008 A 
ATOM     43  C   LIG    1      -25.290  75.712  13.400  0.00  0.00    +0.012 A 
ATOM     44  C   LIG    1      -24.138  76.164  14.064  0.00  0.00    +0.024 A 
BRANCH  41  45
ATOM     45  C   LIG    1      -29.454  75.150  11.517  0.00  0.00    +0.040 A 
ATOM     46  N   LIG    1      -30.509  74.605  12.206  0.00  0.00    -0.361 N 
ATOM     47  H   LIG    1      -30.491  74.312  13.182  0.00  0.00    +0.165 HD
ATOM     48  C   LIG    1      -31.613  74.503  11.411  0.00  0.00    +0.083 A 
ATOM     49  C   LIG    1      -31.281  74.986  10.172  0.00  0.00    +0.019 A 
ATOM     50  C   LIG    1      -29.923  75.395  10.236  0.00  0.00    +0.027 A 
ENDBRANCH  41  45
ENDBRANCH  31  33
ENDBRANCH   3  31
TORSDOF 10
ENDMDL
MODEL 8
REMARK VINA RESULT:      -5.9     20.781     23.836
REMARK  Name = modded_pdb/CHEMBL2037211_nitrogen_modded_with_ethanol_version_1.pdb
REMARK                            x       y       z     vdW  Elec       q    Type
REMARK                         _______ _______ _______ _____ _____    ______ ____
ROOT
ATOM      1  C   LIG    1      -37.788  68.029  23.792  0.00  0.00    +0.038 A 
ATOM      2  C   LIG    1      -38.573  69.145  23.468  0.00  0.00    +0.046 A 
ATOM      3  C   LIG    1      -39.602  69.578  24.318  0.00  0.00    +0.033 A 
ATOM      4  C   LIG    1      -39.823  68.848  25.490  0.00  0.00    +0.023 A 
ATOM      5  C   LIG    1      -39.015  67.762  25.840  0.00  0.00    +0.004 A 
ATOM      6  C   LIG    1      -38.013  67.333  24.978  0.00  0.00    +0.023 A 
ENDROOT
BRANCH   1   8
ATOM      7  C   LIG    1      -35.380  67.760  23.276  0.00  0.00    +0.251 C 
ATOM      8  N   LIG    1      -36.736  67.615  22.935  0.00  0.00    -0.265 N 
ATOM      9  O   LIG    1      -34.486  67.791  22.430  0.00  0.00    -0.270 OA
BRANCH   7  14
ATOM     10  C   LIG    1      -34.427  69.193  26.734  0.00  0.00    +0.031 A 
ATOM     11  C   LIG    1      -34.095  67.974  27.349  0.00  0.00    +0.035 A 
ATOM     12  C   LIG    1      -34.249  66.724  26.725  0.00  0.00    +0.057 A 
ATOM     13  C   LIG    1      -34.665  66.680  25.393  0.00  0.00    +0.025 A 
ATOM     14  C   LIG    1      -34.968  67.865  24.719  0.00  0.00    +0.040 A 
ATOM     15  C   LIG    1      -34.902  69.092  25.413  0.00  0.00    +0.036 A 
BRANCH  10  20
ATOM     16  C   LIG    1      -36.442  72.735  29.555  0.00  0.00    +0.105 C 
ATOM     17  N   LIG    1      -36.607  71.498  28.803  0.00  0.00    -0.302 NA
ATOM     18  C   LIG    1      -35.743  70.419  29.340  0.00  0.00    +0.103 C 
ATOM     19  C   LIG    1      -34.272  70.466  28.863  0.00  0.00    +0.120 C 
ATOM     20  N   LIG    1      -34.232  70.427  27.380  0.00  0.00    -0.327 N 
ATOM     21  C   LIG    1      -34.907  71.639  26.859  0.00  0.00    +0.120 C 
ATOM     22  C   LIG    1      -36.380  71.693  27.347  0.00  0.00    +0.103 C 
ENDBRANCH  10  20
BRANCH  12  23
ATOM     23  C   LIG    1      -34.002  65.474  27.529  0.00  0.00    +0.417 C 
ATOM     24  F   LIG    1      -34.476  65.585  28.802  0.00  0.00    -0.166 F 
ATOM     25  F   LIG    1      -32.676  65.187  27.653  0.00  0.00    -0.166 F 
ATOM     26  F   LIG    1      -34.579  64.359  27.007  0.00  0.00    -0.166 F 
ENDBRANCH  12  23
ENDBRANCH   7  14
BRANCH   8  27
ATOM     27  C   LIG    1      -37.094  67.496  21.507  0.00  0.00    +0.141 C 
BRANCH  27  28
ATOM     28  C   LIG    1      -37.218  66.042  21.024  0.00  0.00    +0.175 C 
BRANCH  28  29
ATOM     29  O   LIG    1      -35.942  65.402  20.986  0.00  0.00    -0.393 OA
ATOM     30  H   LIG    1      -36.026  64.546  21.438  0.00  0.00    +0.209 HD
ENDBRANCH  28  29
ENDBRANCH  27  28
ENDBRANCH   8  27
ENDBRANCH   1   8
BRANCH   3  31
ATOM     31  N   LIG    1      -40.431  70.628  23.883  0.00  0.00    -0.314 N 
ATOM     32  H   LIG    1      -41.073  70.352  23.144  0.00  0.00    +0.152 HD
BRANCH  31  33
ATOM     33  C   LIG    1      -40.309  72.030  23.948  0.00  0.00    +0.033 A 
ATOM     34  C   LIG    1      -39.118  72.553  24.475  0.00  0.00    +0.047 A 
ATOM     35  C   LIG    1      -38.986  73.928  24.537  0.00  0.00    +0.043 A 
ATOM     36  N   LIG    1      -37.874  74.623  24.990  0.00  0.00    -0.281 N 
ATOM     37  H   LIG    1      -37.009  74.217  25.314  0.00  0.00    +0.155 HD
ATOM     38  C   LIG    1      -38.061  75.987  24.902  0.00  0.00    +0.249 C 
ATOM     39  O   LIG    1      -37.235  76.825  25.197  0.00  0.00    -0.270 OA
ATOM     40  C   LIG    1      -39.468  76.172  24.372  0.00  0.00    +0.048 C 
ATOM     41  C   LIG    1      -40.190  77.289  24.178  0.00  0.00    +0.039 C 
ATOM     42  C   LIG    1      -39.980  74.810  24.120  0.00  0.00    +0.008 A 
ATOM     43  C   LIG    1      -41.151  74.315  23.579  0.00  0.00    +0.012 A 
ATOM     44  C   LIG    1      -41.302  72.921  23.494  0.00  0.00    +0.024 A 
BRANCH  41  45
ATOM     45  C   LIG    1      -39.812  78.641  24.410  0.00  0.00    +0.040 A 
ATOM     46  N   LIG    1      -39.452  79.103  25.652  0.00  0.00    -0.361 N 
ATOM     47  H   LIG    1      -39.417  78.545  26.504  0.00  0.00    +0.165 HD
ATOM     48  C   LIG    1      -39.136  80.429  25.608  0.00  0.00    +0.083 A 
ATOM     49  C   LIG    1      -39.293  80.853  24.315  0.00  0.00    +0.019 A 
ATOM     50  C   LIG    1      -39.717  79.729  23.557  0.00  0.00    +0.027 A 
ENDBRANCH  41  45
ENDBRANCH  31  33
ENDBRANCH   3  31
TORSDOF 10
ENDMDL
MODEL 9
REMARK VINA RESULT:      -5.9      5.293      7.039
REMARK  Name = modded_pdb/CHEMBL2037211_nitrogen_modded_with_ethanol_version_1.pdb
REMARK                            x       y       z     vdW  Elec       q    Type
REMARK                         _______ _______ _______ _____ _____    ______ ____
ROOT
ATOM      1  C   LIG    1      -21.062  87.682  13.206  0.00  0.00    +0.038 A 
ATOM      2  C   LIG    1      -21.029  86.284  13.317  0.00  0.00    +0.046 A 
ATOM      3  C   LIG    1      -21.658  85.629  14.386  0.00  0.00    +0.033 A 
ATOM      4  C   LIG    1      -22.305  86.420  15.340  0.00  0.00    +0.023 A 
ATOM      5  C   LIG    1      -22.379  87.810  15.211  0.00  0.00    +0.004 A 
ATOM      6  C   LIG    1      -21.734  88.447  14.158  0.00  0.00    +0.023 A 
ENDROOT
BRANCH   1   8
ATOM      7  C   LIG    1      -21.090  88.520  10.875  0.00  0.00    +0.251 C 
ATOM      8  N   LIG    1      -20.441  88.332  12.108  0.00  0.00    -0.265 N 
ATOM      9  O   LIG    1      -20.471  88.701   9.825  0.00  0.00    -0.270 OA
BRANCH   7  14
ATOM     10  C   LIG    1      -24.740  87.513  10.114  0.00  0.00    +0.031 A 
ATOM     11  C   LIG    1      -25.355  88.676  10.609  0.00  0.00    +0.035 A 
ATOM     12  C   LIG    1      -24.651  89.714  11.245  0.00  0.00    +0.057 A 
ATOM     13  C   LIG    1      -23.259  89.643  11.316  0.00  0.00    +0.025 A 
ATOM     14  C   LIG    1      -22.591  88.528  10.802  0.00  0.00    +0.040 A 
ATOM     15  C   LIG    1      -23.341  87.460  10.264  0.00  0.00    +0.036 A 
BRANCH  10  20
ATOM     16  C   LIG    1      -26.644  82.946  10.392  0.00  0.00    +0.105 C 
ATOM     17  N   LIG    1      -25.827  83.993  10.992  0.00  0.00    -0.302 NA
ATOM     18  C   LIG    1      -26.618  85.224  11.235  0.00  0.00    +0.103 C 
ATOM     19  C   LIG    1      -26.803  86.133   9.996  0.00  0.00    +0.120 C 
ATOM     20  N   LIG    1      -25.473  86.510   9.457  0.00  0.00    -0.327 N 
ATOM     21  C   LIG    1      -24.782  85.277   9.005  0.00  0.00    +0.120 C 
ATOM     22  C   LIG    1      -24.612  84.286  10.187  0.00  0.00    +0.103 C 
ENDBRANCH  10  20
BRANCH  12  23
ATOM     23  C   LIG    1      -25.428  90.844  11.868  0.00  0.00    +0.417 C 
ATOM     24  F   LIG    1      -24.881  92.058  11.581  0.00  0.00    -0.166 F 
ATOM     25  F   LIG    1      -25.463  90.767  13.228  0.00  0.00    -0.166 F 
ATOM     26  F   LIG    1      -26.725  90.909  11.464  0.00  0.00    -0.166 F 
ENDBRANCH  12  23
ENDBRANCH   7  14
BRANCH   8  27
ATOM     27  C   LIG    1      -18.965  88.351  12.137  0.00  0.00    +0.141 C 
BRANCH  27  28
ATOM     28  C   LIG    1      -18.328  86.976  11.876  0.00  0.00    +0.175 C 
BRANCH  28  29
ATOM     29  O   LIG    1      -17.456  86.603  12.943  0.00  0.00    -0.393 OA
ATOM     30  H   LIG    1      -16.546  86.811  12.670  0.00  0.00    +0.209 HD
ENDBRANCH  28  29
ENDBRANCH  27  28
ENDBRANCH   8  27
ENDBRANCH   1   8
BRANCH   3  31
ATOM     31  N   LIG    1      -21.491  84.237  14.509  0.00  0.00    -0.314 N 
ATOM     32  H   LIG    1      -20.529  83.936  14.371  0.00  0.00    +0.152 HD
BRANCH  31  33
ATOM     33  C   LIG    1      -22.382  83.153  14.383  0.00  0.00    +0.033 A 
ATOM     34  C   LIG    1      -22.743  82.760  13.085  0.00  0.00    +0.047 A 
ATOM     35  C   LIG    1      -23.613  81.694  12.950  0.00  0.00    +0.043 A 
ATOM     36  N   LIG    1      -24.052  81.143  11.754  0.00  0.00    -0.281 N 
ATOM     37  H   LIG    1      -23.779  81.434  10.828  0.00  0.00    +0.155 HD
ATOM     38  C   LIG    1      -24.900  80.076  11.971  0.00  0.00    +0.249 C 
ATOM     39  O   LIG    1      -25.398  79.393  11.102  0.00  0.00    -0.270 OA
ATOM     40  C   LIG    1      -25.044  79.970  13.476  0.00  0.00    +0.048 C 
ATOM     41  C   LIG    1      -25.816  79.165  14.226  0.00  0.00    +0.039 C 
ATOM     42  C   LIG    1      -24.156  81.009  14.035  0.00  0.00    +0.008 A 
ATOM     43  C   LIG    1      -23.795  81.368  15.320  0.00  0.00    +0.012 A 
ATOM     44  C   LIG    1      -22.903  82.440  15.480  0.00  0.00    +0.024 A 
BRANCH  41  45
ATOM     45  C   LIG    1      -26.722  78.155  13.799  0.00  0.00    +0.040 A 
ATOM     46  N   LIG    1      -27.792  78.422  12.983  0.00  0.00    -0.361 N 
ATOM     47  H   LIG    1      -28.038  79.338  12.609  0.00  0.00    +0.165 HD
ATOM     48  C   LIG    1      -28.504  77.289  12.721  0.00  0.00    +0.083 A 
ATOM     49  C   LIG    1      -27.895  76.252  13.379  0.00  0.00    +0.019 A 
ATOM     50  C   LIG    1      -26.771  76.794  14.058  0.00  0.00    +0.027 A 
ENDBRANCH  41  45
ENDBRANCH  31  33
ENDBRANCH   3  31
TORSDOF 10
ENDMDL
