MODEL 1
REMARK VINA RESULT:      -7.4      0.000      0.000
REMARK  Name = modded_pdb/CHEMBL2037208_nitrogen_modded_with_ethanol_version_2.pdb
REMARK                            x       y       z     vdW  Elec       q    Type
REMARK                         _______ _______ _______ _____ _____    ______ ____
ROOT
ATOM      1  N   LIG    1      -33.873  77.635  28.080  0.00  0.00    -0.298 N 
ENDROOT
BRANCH   1   2
ATOM      2  C   LIG    1      -33.319  76.401  28.564  0.00  0.00    +0.036 A 
ATOM      3  C   LIG    1      -32.368  76.385  29.604  0.00  0.00    +0.047 A 
ATOM      4  C   LIG    1      -31.774  75.186  29.969  0.00  0.00    +0.043 A 
ATOM      5  N   LIG    1      -30.769  75.006  30.913  0.00  0.00    -0.281 N 
ATOM      6  H   LIG    1      -30.332  75.734  31.457  0.00  0.00    +0.155 HD
ATOM      7  C   LIG    1      -30.399  73.668  31.030  0.00  0.00    +0.249 C 
ATOM      8  O   LIG    1      -29.584  73.219  31.780  0.00  0.00    -0.270 OA
ATOM      9  C   LIG    1      -31.289  72.935  30.042  0.00  0.00    +0.048 C 
ATOM     10  C   LIG    1      -31.359  71.626  29.752  0.00  0.00    +0.039 C 
ATOM     11  C   LIG    1      -32.121  73.964  29.396  0.00  0.00    +0.008 A 
ATOM     12  C   LIG    1      -33.095  73.923  28.426  0.00  0.00    +0.012 A 
ATOM     13  C   LIG    1      -33.688  75.134  28.029  0.00  0.00    +0.024 A 
BRANCH  10  14
ATOM     14  C   LIG    1      -30.594  70.567  30.307  0.00  0.00    +0.040 A 
ATOM     15  N   LIG    1      -29.233  70.477  30.130  0.00  0.00    -0.361 N 
ATOM     16  H   LIG    1      -28.679  71.084  29.534  0.00  0.00    +0.165 HD
ATOM     17  C   LIG    1      -28.741  69.385  30.797  0.00  0.00    +0.083 A 
ATOM     18  C   LIG    1      -29.796  68.754  31.416  0.00  0.00    +0.019 A 
ATOM     19  C   LIG    1      -30.957  69.508  31.121  0.00  0.00    +0.027 A 
ENDBRANCH  10  14
ENDBRANCH   1   2
BRANCH   1  22
ATOM     20  C   LIG    1      -37.549  77.455  27.096  0.00  0.00    +0.035 A 
ATOM     21  C   LIG    1      -36.186  77.121  27.252  0.00  0.00    +0.046 A 
ATOM     22  C   LIG    1      -35.258  77.965  27.912  0.00  0.00    +0.036 A 
ATOM     23  C   LIG    1      -35.778  79.177  28.403  0.00  0.00    +0.023 A 
ATOM     24  C   LIG    1      -37.132  79.507  28.290  0.00  0.00    +0.004 A 
ATOM     25  C   LIG    1      -38.010  78.653  27.633  0.00  0.00    +0.023 A 
BRANCH  20  27
ATOM     26  C   LIG    1      -38.466  76.447  25.001  0.00  0.00    +0.248 C 
ATOM     27  N   LIG    1      -38.388  76.560  26.380  0.00  0.00    -0.281 N 
ATOM     28  H   LIG    1      -39.043  76.021  26.929  0.00  0.00    +0.155 HD
ATOM     29  O   LIG    1      -37.916  77.165  24.173  0.00  0.00    -0.270 OA
BRANCH  26  32
ATOM     30  C   LIG    1      -39.731  73.005  24.138  0.00  0.00    +0.056 A 
ATOM     31  C   LIG    1      -38.935  74.070  24.580  0.00  0.00    +0.025 A 
ATOM     32  C   LIG    1      -39.376  75.395  24.477  0.00  0.00    +0.038 A 
ATOM     33  C   LIG    1      -40.645  75.665  23.954  0.00  0.00    +0.013 A 
ATOM     34  C   LIG    1      -41.454  74.610  23.518  0.00  0.00    +0.001 A 
ATOM     35  C   LIG    1      -40.997  73.288  23.604  0.00  0.00    +0.012 A 
BRANCH  30  37
ATOM     36  F   LIG    1      -39.491  70.988  25.426  0.00  0.00    -0.166 F 
ATOM     37  C   LIG    1      -39.184  71.608  24.255  0.00  0.00    +0.417 C 
ATOM     38  F   LIG    1      -39.655  70.800  23.265  0.00  0.00    -0.166 F 
ATOM     39  F   LIG    1      -37.829  71.573  24.152  0.00  0.00    -0.166 F 
ENDBRANCH  30  37
ENDBRANCH  26  32
ENDBRANCH  20  27
ENDBRANCH   1  22
BRANCH   1  40
ATOM     40  C   LIG    1      -32.914  78.763  27.956  0.00  0.00    +0.138 C 
BRANCH  40  41
ATOM     41  C   LIG    1      -32.471  79.017  26.505  0.00  0.00    +0.175 C 
BRANCH  41  42
ATOM     42  O   LIG    1      -31.799  77.862  26.005  0.00  0.00    -0.393 OA
ATOM     43  H   LIG    1      -32.165  77.676  25.121  0.00  0.00    +0.209 HD
ENDBRANCH  41  42
ENDBRANCH  40  41
ENDBRANCH   1  40
TORSDOF 9
ENDMDL
MODEL 2
REMARK VINA RESULT:      -7.3      1.796      2.199
REMARK  Name = modded_pdb/CHEMBL2037208_nitrogen_modded_with_ethanol_version_2.pdb
REMARK                            x       y       z     vdW  Elec       q    Type
REMARK                         _______ _______ _______ _____ _____    ______ ____
ROOT
ATOM      1  N   LIG    1      -33.845  76.930  27.933  0.00  0.00    -0.298 N 
ENDROOT
BRANCH   1   2
ATOM      2  C   LIG    1      -33.300  75.722  28.486  0.00  0.00    +0.036 A 
ATOM      3  C   LIG    1      -32.279  75.759  29.456  0.00  0.00    +0.047 A 
ATOM      4  C   LIG    1      -31.701  74.573  29.886  0.00  0.00    +0.043 A 
ATOM      5  N   LIG    1      -30.637  74.436  30.771  0.00  0.00    -0.281 N 
ATOM      6  H   LIG    1      -30.138  75.189  31.217  0.00  0.00    +0.155 HD
ATOM      7  C   LIG    1      -30.306  73.099  30.983  0.00  0.00    +0.249 C 
ATOM      8  O   LIG    1      -29.455  72.685  31.712  0.00  0.00    -0.270 OA
ATOM      9  C   LIG    1      -31.289  72.319  30.127  0.00  0.00    +0.048 C 
ATOM     10  C   LIG    1      -31.424  70.993  29.961  0.00  0.00    +0.039 C 
ATOM     11  C   LIG    1      -32.130  73.320  29.450  0.00  0.00    +0.008 A 
ATOM     12  C   LIG    1      -33.171  73.235  28.556  0.00  0.00    +0.012 A 
ATOM     13  C   LIG    1      -33.750  74.430  28.095  0.00  0.00    +0.024 A 
BRANCH  10  14
ATOM     14  C   LIG    1      -30.658  69.957  30.556  0.00  0.00    +0.040 A 
ATOM     15  N   LIG    1      -29.303  69.839  30.349  0.00  0.00    -0.361 N 
ATOM     16  H   LIG    1      -28.758  70.403  29.706  0.00  0.00    +0.165 HD
ATOM     17  C   LIG    1      -28.807  68.779  31.064  0.00  0.00    +0.083 A 
ATOM     18  C   LIG    1      -29.853  68.199  31.745  0.00  0.00    +0.019 A 
ATOM     19  C   LIG    1      -31.013  68.951  31.438  0.00  0.00    +0.027 A 
ENDBRANCH  10  14
ENDBRANCH   1   2
BRANCH   1  22
ATOM     20  C   LIG    1      -37.533  76.767  26.993  0.00  0.00    +0.035 A 
ATOM     21  C   LIG    1      -36.172  76.421  27.143  0.00  0.00    +0.046 A 
ATOM     22  C   LIG    1      -35.228  77.273  27.771  0.00  0.00    +0.036 A 
ATOM     23  C   LIG    1      -35.729  78.502  28.235  0.00  0.00    +0.023 A 
ATOM     24  C   LIG    1      -37.080  78.845  28.127  0.00  0.00    +0.004 A 
ATOM     25  C   LIG    1      -37.974  77.984  27.502  0.00  0.00    +0.023 A 
BRANCH  20  27
ATOM     26  C   LIG    1      -38.714  75.910  24.963  0.00  0.00    +0.248 C 
ATOM     27  N   LIG    1      -38.390  75.863  26.310  0.00  0.00    -0.281 N 
ATOM     28  H   LIG    1      -38.868  75.179  26.880  0.00  0.00    +0.155 HD
ATOM     29  O   LIG    1      -38.409  76.789  24.165  0.00  0.00    -0.270 OA
BRANCH  26  32
ATOM     30  C   LIG    1      -41.690  74.245  23.363  0.00  0.00    +0.056 A 
ATOM     31  C   LIG    1      -40.810  75.198  23.892  0.00  0.00    +0.025 A 
ATOM     32  C   LIG    1      -39.586  74.818  24.457  0.00  0.00    +0.038 A 
ATOM     33  C   LIG    1      -39.216  73.470  24.469  0.00  0.00    +0.013 A 
ATOM     34  C   LIG    1      -40.082  72.509  23.935  0.00  0.00    +0.001 A 
ATOM     35  C   LIG    1      -41.315  72.894  23.390  0.00  0.00    +0.012 A 
BRANCH  30  37
ATOM     36  F   LIG    1      -43.416  74.026  21.703  0.00  0.00    -0.166 F 
ATOM     37  C   LIG    1      -42.999  74.721  22.794  0.00  0.00    +0.417 C 
ATOM     38  F   LIG    1      -44.006  74.629  23.707  0.00  0.00    -0.166 F 
ATOM     39  F   LIG    1      -42.956  76.027  22.417  0.00  0.00    -0.166 F 
ENDBRANCH  30  37
ENDBRANCH  26  32
ENDBRANCH  20  27
ENDBRANCH   1  22
BRANCH   1  40
ATOM     40  C   LIG    1      -32.872  78.032  27.716  0.00  0.00    +0.138 C 
BRANCH  40  41
ATOM     41  C   LIG    1      -32.088  77.890  26.399  0.00  0.00    +0.175 C 
BRANCH  41  42
ATOM     42  O   LIG    1      -32.373  79.004  25.555  0.00  0.00    -0.393 OA
ATOM     43  H   LIG    1      -32.569  78.651  24.667  0.00  0.00    +0.209 HD
ENDBRANCH  41  42
ENDBRANCH  40  41
ENDBRANCH   1  40
TORSDOF 9
ENDMDL
MODEL 3
REMARK VINA RESULT:      -7.3      1.683      2.122
REMARK  Name = modded_pdb/CHEMBL2037208_nitrogen_modded_with_ethanol_version_2.pdb
REMARK                            x       y       z     vdW  Elec       q    Type
REMARK                         _______ _______ _______ _____ _____    ______ ____
ROOT
ATOM      1  N   LIG    1      -33.616  76.750  28.001  0.00  0.00    -0.298 N 
ENDROOT
BRANCH   1   2
ATOM      2  C   LIG    1      -33.235  75.452  28.487  0.00  0.00    +0.036 A 
ATOM      3  C   LIG    1      -33.873  74.284  28.023  0.00  0.00    +0.047 A 
ATOM      4  C   LIG    1      -33.556  73.060  28.595  0.00  0.00    +0.043 A 
ATOM      5  N   LIG    1      -34.142  71.831  28.313  0.00  0.00    -0.281 N 
ATOM      6  H   LIG    1      -34.886  71.668  27.653  0.00  0.00    +0.155 HD
ATOM      7  C   LIG    1      -33.586  70.804  29.072  0.00  0.00    +0.249 C 
ATOM      8  O   LIG    1      -33.874  69.645  29.019  0.00  0.00    -0.270 OA
ATOM      9  C   LIG    1      -32.525  71.483  29.920  0.00  0.00    +0.048 C 
ATOM     10  C   LIG    1      -31.680  70.962  30.825  0.00  0.00    +0.039 C 
ATOM     11  C   LIG    1      -32.575  72.914  29.574  0.00  0.00    +0.008 A 
ATOM     12  C   LIG    1      -31.879  74.018  30.006  0.00  0.00    +0.012 A 
ATOM     13  C   LIG    1      -32.207  75.268  29.453  0.00  0.00    +0.024 A 
BRANCH  10  14
ATOM     14  C   LIG    1      -31.567  69.607  31.233  0.00  0.00    +0.040 A 
ATOM     15  N   LIG    1      -30.658  68.745  30.664  0.00  0.00    -0.361 N 
ATOM     16  H   LIG    1      -30.067  68.961  29.868  0.00  0.00    +0.165 HD
ATOM     17  C   LIG    1      -30.735  67.515  31.265  0.00  0.00    +0.083 A 
ATOM     18  C   LIG    1      -31.707  67.576  32.236  0.00  0.00    +0.019 A 
ATOM     19  C   LIG    1      -32.217  68.896  32.227  0.00  0.00    +0.027 A 
ENDBRANCH  10  14
ENDBRANCH   1   2
BRANCH   1  22
ATOM     20  C   LIG    1      -37.297  77.198  27.124  0.00  0.00    +0.035 A 
ATOM     21  C   LIG    1      -35.996  76.655  27.209  0.00  0.00    +0.046 A 
ATOM     22  C   LIG    1      -34.940  77.294  27.905  0.00  0.00    +0.036 A 
ATOM     23  C   LIG    1      -35.263  78.523  28.509  0.00  0.00    +0.023 A 
ATOM     24  C   LIG    1      -36.553  79.057  28.467  0.00  0.00    +0.004 A 
ATOM     25  C   LIG    1      -37.562  78.402  27.771  0.00  0.00    +0.023 A 
BRANCH  20  27
ATOM     26  C   LIG    1      -38.263  76.326  24.991  0.00  0.00    +0.248 C 
ATOM     27  N   LIG    1      -38.274  76.501  26.365  0.00  0.00    -0.281 N 
ATOM     28  H   LIG    1      -39.090  76.181  26.869  0.00  0.00    +0.155 HD
ATOM     29  O   LIG    1      -37.478  76.828  24.193  0.00  0.00    -0.270 OA
BRANCH  26  32
ATOM     30  C   LIG    1      -40.187  73.258  23.952  0.00  0.00    +0.056 A 
ATOM     31  C   LIG    1      -39.193  74.117  24.441  0.00  0.00    +0.025 A 
ATOM     32  C   LIG    1      -39.365  75.507  24.422  0.00  0.00    +0.038 A 
ATOM     33  C   LIG    1      -40.557  76.052  23.937  0.00  0.00    +0.013 A 
ATOM     34  C   LIG    1      -41.561  75.205  23.454  0.00  0.00    +0.001 A 
ATOM     35  C   LIG    1      -41.374  73.816  23.457  0.00  0.00    +0.012 A 
BRANCH  30  37
ATOM     36  F   LIG    1      -40.527  71.089  22.971  0.00  0.00    -0.166 F 
ATOM     37  C   LIG    1      -39.926  71.777  23.979  0.00  0.00    +0.417 C 
ATOM     38  F   LIG    1      -38.596  71.499  23.884  0.00  0.00    -0.166 F 
ATOM     39  F   LIG    1      -40.346  71.198  25.135  0.00  0.00    -0.166 F 
ENDBRANCH  30  37
ENDBRANCH  26  32
ENDBRANCH  20  27
ENDBRANCH   1  22
BRANCH   1  40
ATOM     40  C   LIG    1      -32.501  77.708  27.789  0.00  0.00    +0.138 C 
BRANCH  40  41
ATOM     41  C   LIG    1      -31.953  77.682  26.351  0.00  0.00    +0.175 C 
BRANCH  41  42
ATOM     42  O   LIG    1      -32.368  78.862  25.663  0.00  0.00    -0.393 OA
ATOM     43  H   LIG    1      -32.001  78.814  24.762  0.00  0.00    +0.209 HD
ENDBRANCH  41  42
ENDBRANCH  40  41
ENDBRANCH   1  40
TORSDOF 9
ENDMDL
MODEL 4
REMARK VINA RESULT:      -7.2      5.411      9.582
REMARK  Name = modded_pdb/CHEMBL2037208_nitrogen_modded_with_ethanol_version_2.pdb
REMARK                            x       y       z     vdW  Elec       q    Type
REMARK                         _______ _______ _______ _____ _____    ______ ____
ROOT
ATOM      1  N   LIG    1      -39.954  72.220  24.640  0.00  0.00    -0.298 N 
ENDROOT
BRANCH   1   2
ATOM      2  C   LIG    1      -39.310  71.111  23.993  0.00  0.00    +0.036 A 
ATOM      3  C   LIG    1      -38.018  70.696  24.370  0.00  0.00    +0.047 A 
ATOM      4  C   LIG    1      -37.384  69.694  23.650  0.00  0.00    +0.043 A 
ATOM      5  N   LIG    1      -36.089  69.223  23.837  0.00  0.00    -0.281 N 
ATOM      6  H   LIG    1      -35.432  69.557  24.524  0.00  0.00    +0.155 HD
ATOM      7  C   LIG    1      -35.769  68.210  22.936  0.00  0.00    +0.249 C 
ATOM      8  O   LIG    1      -34.740  67.605  22.883  0.00  0.00    -0.270 OA
ATOM      9  C   LIG    1      -37.021  68.033  22.095  0.00  0.00    +0.048 C 
ATOM     10  C   LIG    1      -37.269  67.184  21.085  0.00  0.00    +0.039 C 
ATOM     11  C   LIG    1      -37.996  69.017  22.596  0.00  0.00    +0.008 A 
ATOM     12  C   LIG    1      -39.283  69.341  22.239  0.00  0.00    +0.012 A 
ATOM     13  C   LIG    1      -39.928  70.372  22.945  0.00  0.00    +0.024 A 
BRANCH  10  14
ATOM     14  C   LIG    1      -36.394  66.215  20.526  0.00  0.00    +0.040 A 
ATOM     15  N   LIG    1      -35.234  66.564  19.876  0.00  0.00    -0.361 N 
ATOM     16  H   LIG    1      -34.947  67.514  19.662  0.00  0.00    +0.165 HD
ATOM     17  C   LIG    1      -34.564  65.440  19.468  0.00  0.00    +0.083 A 
ATOM     18  C   LIG    1      -35.298  64.343  19.856  0.00  0.00    +0.019 A 
ATOM     19  C   LIG    1      -36.440  64.831  20.536  0.00  0.00    +0.027 A 
ENDBRANCH  10  14
ENDBRANCH   1   2
BRANCH   1  22
ATOM     20  C   LIG    1      -37.860  75.345  25.246  0.00  0.00    +0.035 A 
ATOM     21  C   LIG    1      -38.280  73.997  25.224  0.00  0.00    +0.046 A 
ATOM     22  C   LIG    1      -39.519  73.587  24.671  0.00  0.00    +0.036 A 
ATOM     23  C   LIG    1      -40.323  74.615  24.146  0.00  0.00    +0.023 A 
ATOM     24  C   LIG    1      -39.908  75.949  24.126  0.00  0.00    +0.004 A 
ATOM     25  C   LIG    1      -38.686  76.312  24.681  0.00  0.00    +0.023 A 
BRANCH  20  27
ATOM     26  C   LIG    1      -36.356  75.622  27.222  0.00  0.00    +0.248 C 
ATOM     27  N   LIG    1      -36.620  75.658  25.862  0.00  0.00    -0.281 N 
ATOM     28  H   LIG    1      -35.896  76.020  25.257  0.00  0.00    +0.155 HD
ATOM     29  O   LIG    1      -37.164  75.424  28.122  0.00  0.00    -0.270 OA
BRANCH  26  32
ATOM     30  C   LIG    1      -33.131  77.545  27.534  0.00  0.00    +0.056 A 
ATOM     31  C   LIG    1      -34.428  77.149  27.180  0.00  0.00    +0.025 A 
ATOM     32  C   LIG    1      -34.961  75.935  27.631  0.00  0.00    +0.038 A 
ATOM     33  C   LIG    1      -34.205  75.115  28.475  0.00  0.00    +0.013 A 
ATOM     34  C   LIG    1      -32.912  75.504  28.843  0.00  0.00    +0.001 A 
ATOM     35  C   LIG    1      -32.377  76.710  28.370  0.00  0.00    +0.012 A 
BRANCH  30  37
ATOM     36  F   LIG    1      -32.277  78.809  25.675  0.00  0.00    -0.166 F 
ATOM     37  C   LIG    1      -32.611  78.849  26.992  0.00  0.00    +0.417 C 
ATOM     38  F   LIG    1      -33.529  79.847  27.119  0.00  0.00    -0.166 F 
ATOM     39  F   LIG    1      -31.501  79.278  27.651  0.00  0.00    -0.166 F 
ENDBRANCH  30  37
ENDBRANCH  26  32
ENDBRANCH  20  27
ENDBRANCH   1  22
BRANCH   1  40
ATOM     40  C   LIG    1      -41.331  71.963  25.136  0.00  0.00    +0.138 C 
BRANCH  40  41
ATOM     41  C   LIG    1      -41.363  71.030  26.359  0.00  0.00    +0.175 C 
BRANCH  41  42
ATOM     42  O   LIG    1      -40.446  71.506  27.344  0.00  0.00    -0.393 OA
ATOM     43  H   LIG    1      -40.959  71.679  28.155  0.00  0.00    +0.209 HD
ENDBRANCH  41  42
ENDBRANCH  40  41
ENDBRANCH   1  40
TORSDOF 9
ENDMDL
MODEL 5
REMARK VINA RESULT:      -6.9      6.224     11.273
REMARK  Name = modded_pdb/CHEMBL2037208_nitrogen_modded_with_ethanol_version_2.pdb
REMARK                            x       y       z     vdW  Elec       q    Type
REMARK                         _______ _______ _______ _____ _____    ______ ____
ROOT
ATOM      1  N   LIG    1      -39.145  70.198  24.779  0.00  0.00    -0.298 N 
ENDROOT
BRANCH   1   2
ATOM      2  C   LIG    1      -39.258  71.614  24.564  0.00  0.00    +0.036 A 
ATOM      3  C   LIG    1      -38.227  72.494  24.949  0.00  0.00    +0.047 A 
ATOM      4  C   LIG    1      -38.416  73.863  24.828  0.00  0.00    +0.043 A 
ATOM      5  N   LIG    1      -37.541  74.866  25.230  0.00  0.00    -0.281 N 
ATOM      6  H   LIG    1      -36.646  74.726  25.673  0.00  0.00    +0.155 HD
ATOM      7  C   LIG    1      -38.046  76.136  24.963  0.00  0.00    +0.249 C 
ATOM      8  O   LIG    1      -37.499  77.178  25.175  0.00  0.00    -0.270 OA
ATOM      9  C   LIG    1      -39.395  75.884  24.312  0.00  0.00    +0.048 C 
ATOM     10  C   LIG    1      -40.303  76.756  23.846  0.00  0.00    +0.039 C 
ATOM     11  C   LIG    1      -39.567  74.422  24.275  0.00  0.00    +0.008 A 
ATOM     12  C   LIG    1      -40.570  73.598  23.822  0.00  0.00    +0.012 A 
ATOM     13  C   LIG    1      -40.401  72.209  23.960  0.00  0.00    +0.024 A 
BRANCH  10  14
ATOM     14  C   LIG    1      -40.233  78.174  23.849  0.00  0.00    +0.040 A 
ATOM     15  N   LIG    1      -39.312  78.863  23.095  0.00  0.00    -0.361 N 
ATOM     16  H   LIG    1      -38.565  78.440  22.555  0.00  0.00    +0.165 HD
ATOM     17  C   LIG    1      -39.486  80.214  23.257  0.00  0.00    +0.083 A 
ATOM     18  C   LIG    1      -40.532  80.407  24.128  0.00  0.00    +0.019 A 
ATOM     19  C   LIG    1      -41.013  79.124  24.487  0.00  0.00    +0.027 A 
ENDBRANCH  10  14
ENDBRANCH   1   2
BRANCH   1  22
ATOM     20  C   LIG    1      -35.972  68.279  23.903  0.00  0.00    +0.035 A 
ATOM     21  C   LIG    1      -37.156  69.039  23.778  0.00  0.00    +0.046 A 
ATOM     22  C   LIG    1      -37.944  69.423  24.893  0.00  0.00    +0.036 A 
ATOM     23  C   LIG    1      -37.477  68.991  26.147  0.00  0.00    +0.023 A 
ATOM     24  C   LIG    1      -36.289  68.271  26.293  0.00  0.00    +0.004 A 
ATOM     25  C   LIG    1      -35.545  67.910  25.175  0.00  0.00    +0.023 A 
BRANCH  20  27
ATOM     26  C   LIG    1      -35.607  66.856  21.881  0.00  0.00    +0.248 C 
ATOM     27  N   LIG    1      -35.278  67.908  22.720  0.00  0.00    -0.281 N 
ATOM     28  H   LIG    1      -34.421  68.407  22.527  0.00  0.00    +0.155 HD
ATOM     29  O   LIG    1      -36.474  66.010  22.070  0.00  0.00    -0.270 OA
BRANCH  26  32
ATOM     30  C   LIG    1      -34.720  66.619  18.228  0.00  0.00    +0.056 A 
ATOM     31  C   LIG    1      -35.428  66.735  19.431  0.00  0.00    +0.025 A 
ATOM     32  C   LIG    1      -34.767  66.695  20.666  0.00  0.00    +0.038 A 
ATOM     33  C   LIG    1      -33.375  66.568  20.704  0.00  0.00    +0.013 A 
ATOM     34  C   LIG    1      -32.656  66.461  19.509  0.00  0.00    +0.001 A 
ATOM     35  C   LIG    1      -33.326  66.480  18.277  0.00  0.00    +0.012 A 
BRANCH  30  37
ATOM     36  F   LIG    1      -34.957  67.445  15.981  0.00  0.00    -0.166 F 
ATOM     37  C   LIG    1      -35.496  66.644  16.939  0.00  0.00    +0.417 C 
ATOM     38  F   LIG    1      -35.588  65.403  16.384  0.00  0.00    -0.166 F 
ATOM     39  F   LIG    1      -36.775  67.070  17.113  0.00  0.00    -0.166 F 
ENDBRANCH  30  37
ENDBRANCH  26  32
ENDBRANCH  20  27
ENDBRANCH   1  22
BRANCH   1  40
ATOM     40  C   LIG    1      -40.406  69.503  25.145  0.00  0.00    +0.138 C 
BRANCH  40  41
ATOM     41  C   LIG    1      -40.846  68.466  24.097  0.00  0.00    +0.175 C 
BRANCH  41  42
ATOM     42  O   LIG    1      -41.864  69.029  23.270  0.00  0.00    -0.393 OA
ATOM     43  H   LIG    1      -42.492  68.313  23.060  0.00  0.00    +0.209 HD
ENDBRANCH  41  42
ENDBRANCH  40  41
ENDBRANCH   1  40
TORSDOF 9
ENDMDL
MODEL 6
REMARK VINA RESULT:      -6.9      6.394     11.378
REMARK  Name = modded_pdb/CHEMBL2037208_nitrogen_modded_with_ethanol_version_2.pdb
REMARK                            x       y       z     vdW  Elec       q    Type
REMARK                         _______ _______ _______ _____ _____    ______ ____
ROOT
ATOM      1  N   LIG    1      -38.537  70.069  24.853  0.00  0.00    -0.298 N 
ENDROOT
BRANCH   1   2
ATOM      2  C   LIG    1      -38.771  71.471  24.641  0.00  0.00    +0.036 A 
ATOM      3  C   LIG    1      -37.837  72.438  25.061  0.00  0.00    +0.047 A 
ATOM      4  C   LIG    1      -38.146  73.785  24.940  0.00  0.00    +0.043 A 
ATOM      5  N   LIG    1      -37.378  74.860  25.373  0.00  0.00    -0.281 N 
ATOM      6  H   LIG    1      -36.488  74.799  25.844  0.00  0.00    +0.155 HD
ATOM      7  C   LIG    1      -37.988  76.081  25.095  0.00  0.00    +0.249 C 
ATOM      8  O   LIG    1      -37.545  77.166  25.328  0.00  0.00    -0.270 OA
ATOM      9  C   LIG    1      -39.288  75.712  24.401  0.00  0.00    +0.048 C 
ATOM     10  C   LIG    1      -40.257  76.501  23.910  0.00  0.00    +0.039 C 
ATOM     11  C   LIG    1      -39.325  74.241  24.353  0.00  0.00    +0.008 A 
ATOM     12  C   LIG    1      -40.234  73.332  23.865  0.00  0.00    +0.012 A 
ATOM     13  C   LIG    1      -39.944  71.963  24.003  0.00  0.00    +0.024 A 
BRANCH  10  14
ATOM     14  C   LIG    1      -40.316  77.919  23.921  0.00  0.00    +0.040 A 
ATOM     15  N   LIG    1      -39.358  78.697  23.313  0.00  0.00    -0.361 N 
ATOM     16  H   LIG    1      -38.503  78.349  22.892  0.00  0.00    +0.165 HD
ATOM     17  C   LIG    1      -39.675  80.025  23.444  0.00  0.00    +0.083 A 
ATOM     18  C   LIG    1      -40.853  80.113  24.148  0.00  0.00    +0.019 A 
ATOM     19  C   LIG    1      -41.265  78.789  24.432  0.00  0.00    +0.027 A 
ENDBRANCH  10  14
ENDBRANCH   1   2
BRANCH   1  22
ATOM     20  C   LIG    1      -35.411  68.043  24.051  0.00  0.00    +0.035 A 
ATOM     21  C   LIG    1      -36.658  68.693  23.917  0.00  0.00    +0.046 A 
ATOM     22  C   LIG    1      -37.273  69.402  24.979  0.00  0.00    +0.036 A 
ATOM     23  C   LIG    1      -36.566  69.416  26.194  0.00  0.00    +0.023 A 
ATOM     24  C   LIG    1      -35.314  68.810  26.335  0.00  0.00    +0.004 A 
ATOM     25  C   LIG    1      -34.745  68.121  25.270  0.00  0.00    +0.023 A 
BRANCH  20  27
ATOM     26  C   LIG    1      -35.007  65.955  22.739  0.00  0.00    +0.248 C 
ATOM     27  N   LIG    1      -34.900  67.322  22.940  0.00  0.00    -0.281 N 
ATOM     28  H   LIG    1      -34.337  67.846  22.284  0.00  0.00    +0.155 HD
ATOM     29  O   LIG    1      -35.457  65.131  23.527  0.00  0.00    -0.270 OA
BRANCH  26  32
ATOM     30  C   LIG    1      -32.752  65.703  19.732  0.00  0.00    +0.056 A 
ATOM     31  C   LIG    1      -33.367  66.134  20.915  0.00  0.00    +0.025 A 
ATOM     32  C   LIG    1      -34.444  65.430  21.468  0.00  0.00    +0.038 A 
ATOM     33  C   LIG    1      -34.897  64.259  20.852  0.00  0.00    +0.013 A 
ATOM     34  C   LIG    1      -34.285  63.813  19.676  0.00  0.00    +0.001 A 
ATOM     35  C   LIG    1      -33.221  64.534  19.116  0.00  0.00    +0.012 A 
BRANCH  30  37
ATOM     36  F   LIG    1      -30.446  66.376  19.855  0.00  0.00    -0.166 F 
ATOM     37  C   LIG    1      -31.617  66.522  19.179  0.00  0.00    +0.417 C 
ATOM     38  F   LIG    1      -31.348  66.198  17.884  0.00  0.00    -0.166 F 
ATOM     39  F   LIG    1      -31.891  67.854  19.181  0.00  0.00    -0.166 F 
ENDBRANCH  30  37
ENDBRANCH  26  32
ENDBRANCH  20  27
ENDBRANCH   1  22
BRANCH   1  40
ATOM     40  C   LIG    1      -39.736  69.264  25.203  0.00  0.00    +0.138 C 
BRANCH  40  41
ATOM     41  C   LIG    1      -40.180  69.453  26.663  0.00  0.00    +0.175 C 
BRANCH  41  42
ATOM     42  O   LIG    1      -39.901  68.264  27.402  0.00  0.00    -0.393 OA
ATOM     43  H   LIG    1      -39.380  67.679  26.821  0.00  0.00    +0.209 HD
ENDBRANCH  41  42
ENDBRANCH  40  41
ENDBRANCH   1  40
TORSDOF 9
ENDMDL
MODEL 7
REMARK VINA RESULT:      -6.8     16.626     18.404
REMARK  Name = modded_pdb/CHEMBL2037208_nitrogen_modded_with_ethanol_version_2.pdb
REMARK                            x       y       z     vdW  Elec       q    Type
REMARK                         _______ _______ _______ _____ _____    ______ ____
ROOT
ATOM      1  N   LIG    1      -29.175  77.749  10.356  0.00  0.00    -0.298 N 
ENDROOT
BRANCH   1   2
ATOM      2  C   LIG    1      -28.131  78.250  11.206  0.00  0.00    +0.036 A 
ATOM      3  C   LIG    1      -27.941  77.742  12.506  0.00  0.00    +0.047 A 
ATOM      4  C   LIG    1      -26.996  78.325  13.338  0.00  0.00    +0.043 A 
ATOM      5  N   LIG    1      -26.738  78.000  14.665  0.00  0.00    -0.281 N 
ATOM      6  H   LIG    1      -27.214  77.294  15.204  0.00  0.00    +0.155 HD
ATOM      7  C   LIG    1      -25.723  78.787  15.205  0.00  0.00    +0.249 C 
ATOM      8  O   LIG    1      -25.275  78.710  16.310  0.00  0.00    -0.270 OA
ATOM      9  C   LIG    1      -25.302  79.704  14.069  0.00  0.00    +0.048 C 
ATOM     10  C   LIG    1      -24.356  80.657  14.036  0.00  0.00    +0.039 C 
ATOM     11  C   LIG    1      -26.163  79.364  12.924  0.00  0.00    +0.008 A 
ATOM     12  C   LIG    1      -26.266  79.844  11.640  0.00  0.00    +0.012 A 
ATOM     13  C   LIG    1      -27.236  79.278  10.795  0.00  0.00    +0.024 A 
BRANCH  10  14
ATOM     14  C   LIG    1      -23.491  81.064  15.086  0.00  0.00    +0.040 A 
ATOM     15  N   LIG    1      -22.708  80.169  15.777  0.00  0.00    -0.361 N 
ATOM     16  H   LIG    1      -22.738  79.160  15.670  0.00  0.00    +0.165 HD
ATOM     17  C   LIG    1      -21.947  80.828  16.708  0.00  0.00    +0.083 A 
ATOM     18  C   LIG    1      -22.239  82.170  16.623  0.00  0.00    +0.019 A 
ATOM     19  C   LIG    1      -23.197  82.319  15.591  0.00  0.00    +0.027 A 
ENDBRANCH  10  14
ENDBRANCH   1   2
BRANCH   1  22
ATOM     20  C   LIG    1      -32.627  79.265  10.912  0.00  0.00    +0.035 A 
ATOM     21  C   LIG    1      -31.230  79.138  10.742  0.00  0.00    +0.046 A 
ATOM     22  C   LIG    1      -30.591  77.890  10.535  0.00  0.00    +0.036 A 
ATOM     23  C   LIG    1      -31.438  76.767  10.516  0.00  0.00    +0.023 A 
ATOM     24  C   LIG    1      -32.825  76.877  10.646  0.00  0.00    +0.004 A 
ATOM     25  C   LIG    1      -33.414  78.120  10.851  0.00  0.00    +0.023 A 
BRANCH  20  27
ATOM     26  C   LIG    1      -33.438  81.519  10.200  0.00  0.00    +0.248 C 
ATOM     27  N   LIG    1      -33.164  80.556  11.158  0.00  0.00    -0.281 N 
ATOM     28  H   LIG    1      -33.274  80.820  12.127  0.00  0.00    +0.155 HD
ATOM     29  O   LIG    1      -33.165  81.464   9.006  0.00  0.00    -0.270 OA
BRANCH  26  32
ATOM     30  C   LIG    1      -33.685  85.102  11.338  0.00  0.00    +0.056 A 
ATOM     31  C   LIG    1      -33.195  83.863  10.902  0.00  0.00    +0.025 A 
ATOM     32  C   LIG    1      -34.056  82.779  10.689  0.00  0.00    +0.038 A 
ATOM     33  C   LIG    1      -35.432  82.937  10.881  0.00  0.00    +0.013 A 
ATOM     34  C   LIG    1      -35.935  84.172  11.307  0.00  0.00    +0.001 A 
ATOM     35  C   LIG    1      -35.065  85.246  11.539  0.00  0.00    +0.012 A 
BRANCH  30  37
ATOM     36  F   LIG    1      -32.404  86.938  10.459  0.00  0.00    -0.166 F 
ATOM     37  C   LIG    1      -32.701  86.216  11.572  0.00  0.00    +0.417 C 
ATOM     38  F   LIG    1      -33.164  87.110  12.490  0.00  0.00    -0.166 F 
ATOM     39  F   LIG    1      -31.514  85.764  12.058  0.00  0.00    -0.166 F 
ENDBRANCH  30  37
ENDBRANCH  26  32
ENDBRANCH  20  27
ENDBRANCH   1  22
BRANCH   1  40
ATOM     40  C   LIG    1      -28.733  77.226   9.038  0.00  0.00    +0.138 C 
BRANCH  40  41
ATOM     41  C   LIG    1      -27.817  75.996   9.157  0.00  0.00    +0.175 C 
BRANCH  41  42
ATOM     42  O   LIG    1      -28.483  74.978   9.903  0.00  0.00    -0.393 OA
ATOM     43  H   LIG    1      -28.251  75.109  10.841  0.00  0.00    +0.209 HD
ENDBRANCH  41  42
ENDBRANCH  40  41
ENDBRANCH   1  40
TORSDOF 9
ENDMDL
MODEL 8
REMARK VINA RESULT:      -6.8     16.370     18.136
REMARK  Name = modded_pdb/CHEMBL2037208_nitrogen_modded_with_ethanol_version_2.pdb
REMARK                            x       y       z     vdW  Elec       q    Type
REMARK                         _______ _______ _______ _____ _____    ______ ____
ROOT
ATOM      1  N   LIG    1      -29.270  77.823  10.443  0.00  0.00    -0.298 N 
ENDROOT
BRANCH   1   2
ATOM      2  C   LIG    1      -28.191  78.294  11.266  0.00  0.00    +0.036 A 
ATOM      3  C   LIG    1      -27.974  77.770  12.555  0.00  0.00    +0.047 A 
ATOM      4  C   LIG    1      -26.993  78.327  13.363  0.00  0.00    +0.043 A 
ATOM      5  N   LIG    1      -26.702  77.985  14.679  0.00  0.00    -0.281 N 
ATOM      6  H   LIG    1      -27.177  77.284  15.227  0.00  0.00    +0.155 HD
ATOM      7  C   LIG    1      -25.656  78.745  15.195  0.00  0.00    +0.249 C 
ATOM      8  O   LIG    1      -25.177  78.649  16.286  0.00  0.00    -0.270 OA
ATOM      9  C   LIG    1      -25.249  79.663  14.056  0.00  0.00    +0.048 C 
ATOM     10  C   LIG    1      -24.285  80.596  14.002  0.00  0.00    +0.039 C 
ATOM     11  C   LIG    1      -26.150  79.351  12.934  0.00  0.00    +0.008 A 
ATOM     12  C   LIG    1      -26.281  79.845  11.657  0.00  0.00    +0.012 A 
ATOM     13  C   LIG    1      -27.287  79.306  10.837  0.00  0.00    +0.024 A 
BRANCH  10  14
ATOM     14  C   LIG    1      -23.381  80.976  15.029  0.00  0.00    +0.040 A 
ATOM     15  N   LIG    1      -22.529  80.074  15.624  0.00  0.00    -0.361 N 
ATOM     16  H   LIG    1      -22.527  79.073  15.457  0.00  0.00    +0.165 HD
ATOM     17  C   LIG    1      -21.744  80.709  16.553  0.00  0.00    +0.083 A 
ATOM     18  C   LIG    1      -22.091  82.040  16.564  0.00  0.00    +0.019 A 
ATOM     19  C   LIG    1      -23.107  82.210  15.593  0.00  0.00    +0.027 A 
ENDBRANCH  10  14
ENDBRANCH   1   2
BRANCH   1  22
ATOM     20  C   LIG    1      -32.579  79.652  10.916  0.00  0.00    +0.035 A 
ATOM     21  C   LIG    1      -31.198  79.397  10.769  0.00  0.00    +0.046 A 
ATOM     22  C   LIG    1      -30.671  78.093  10.597  0.00  0.00    +0.036 A 
ATOM     23  C   LIG    1      -31.614  77.050  10.588  0.00  0.00    +0.023 A 
ATOM     24  C   LIG    1      -32.988  77.287  10.695  0.00  0.00    +0.004 A 
ATOM     25  C   LIG    1      -33.465  78.581  10.866  0.00  0.00    +0.023 A 
BRANCH  20  27
ATOM     26  C   LIG    1      -33.507  81.846  10.160  0.00  0.00    +0.248 C 
ATOM     27  N   LIG    1      -33.002  80.991  11.127  0.00  0.00    -0.281 N 
ATOM     28  H   LIG    1      -32.838  81.375  12.047  0.00  0.00    +0.155 HD
ATOM     29  O   LIG    1      -33.573  81.634   8.955  0.00  0.00    -0.270 OA
BRANCH  26  32
ATOM     30  C   LIG    1      -35.779  84.537  11.499  0.00  0.00    +0.056 A 
ATOM     31  C   LIG    1      -35.281  83.319  11.018  0.00  0.00    +0.025 A 
ATOM     32  C   LIG    1      -33.941  83.188  10.630  0.00  0.00    +0.038 A 
ATOM     33  C   LIG    1      -33.074  84.278  10.751  0.00  0.00    +0.013 A 
ATOM     34  C   LIG    1      -33.557  85.497  11.239  0.00  0.00    +0.001 A 
ATOM     35  C   LIG    1      -34.904  85.627  11.606  0.00  0.00    +0.012 A 
BRANCH  30  37
ATOM     36  F   LIG    1      -37.988  83.592  11.387  0.00  0.00    -0.166 F 
ATOM     37  C   LIG    1      -37.234  84.614  11.874  0.00  0.00    +0.417 C 
ATOM     38  F   LIG    1      -37.407  84.599  13.225  0.00  0.00    -0.166 F 
ATOM     39  F   LIG    1      -37.822  85.759  11.435  0.00  0.00    -0.166 F 
ENDBRANCH  30  37
ENDBRANCH  26  32
ENDBRANCH  20  27
ENDBRANCH   1  22
BRANCH   1  40
ATOM     40  C   LIG    1      -28.869  77.172   9.169  0.00  0.00    +0.138 C 
BRANCH  40  41
ATOM     41  C   LIG    1      -28.070  75.875   9.384  0.00  0.00    +0.175 C 
BRANCH  41  42
ATOM     42  O   LIG    1      -28.795  75.009  10.256  0.00  0.00    -0.393 OA
ATOM     43  H   LIG    1      -28.212  74.257  10.466  0.00  0.00    +0.209 HD
ENDBRANCH  41  42
ENDBRANCH  40  41
ENDBRANCH   1  40
TORSDOF 9
ENDMDL
MODEL 9
REMARK VINA RESULT:      -6.7      4.838      9.345
REMARK  Name = modded_pdb/CHEMBL2037208_nitrogen_modded_with_ethanol_version_2.pdb
REMARK                            x       y       z     vdW  Elec       q    Type
REMARK                         _______ _______ _______ _____ _____    ______ ____
ROOT
ATOM      1  N   LIG    1      -35.705  79.511  29.612  0.00  0.00    -0.298 N 
ENDROOT
BRANCH   1   2
ATOM      2  C   LIG    1      -35.555  80.932  29.464  0.00  0.00    +0.036 A 
ATOM      3  C   LIG    1      -35.974  81.592  28.292  0.00  0.00    +0.047 A 
ATOM      4  C   LIG    1      -35.712  82.946  28.139  0.00  0.00    +0.043 A 
ATOM      5  N   LIG    1      -35.985  83.727  27.021  0.00  0.00    -0.281 N 
ATOM      6  H   LIG    1      -36.407  83.406  26.164  0.00  0.00    +0.155 HD
ATOM      7  C   LIG    1      -35.589  85.050  27.203  0.00  0.00    +0.249 C 
ATOM      8  O   LIG    1      -35.725  85.946  26.423  0.00  0.00    -0.270 OA
ATOM      9  C   LIG    1      -35.008  85.089  28.605  0.00  0.00    +0.048 C 
ATOM     10  C   LIG    1      -34.486  86.117  29.294  0.00  0.00    +0.039 C 
ATOM     11  C   LIG    1      -35.106  83.716  29.129  0.00  0.00    +0.008 A 
ATOM     12  C   LIG    1      -34.744  83.128  30.318  0.00  0.00    +0.012 A 
ATOM     13  C   LIG    1      -34.981  81.751  30.477  0.00  0.00    +0.024 A 
BRANCH  10  14
ATOM     14  C   LIG    1      -34.337  87.464  28.872  0.00  0.00    +0.040 A 
ATOM     15  N   LIG    1      -35.362  88.161  28.276  0.00  0.00    -0.361 N 
ATOM     16  H   LIG    1      -36.259  87.769  28.008  0.00  0.00    +0.165 HD
ATOM     17  C   LIG    1      -34.963  89.444  28.001  0.00  0.00    +0.083 A 
ATOM     18  C   LIG    1      -33.661  89.584  28.422  0.00  0.00    +0.019 A 
ATOM     19  C   LIG    1      -33.274  88.344  28.986  0.00  0.00    +0.027 A 
ENDBRANCH  10  14
ENDBRANCH   1   2
BRANCH   1  22
ATOM     20  C   LIG    1      -35.605  76.595  27.162  0.00  0.00    +0.035 A 
ATOM     21  C   LIG    1      -36.085  77.600  28.030  0.00  0.00    +0.046 A 
ATOM     22  C   LIG    1      -35.228  78.485  28.731  0.00  0.00    +0.036 A 
ATOM     23  C   LIG    1      -33.850  78.297  28.517  0.00  0.00    +0.023 A 
ATOM     24  C   LIG    1      -33.358  77.333  27.633  0.00  0.00    +0.004 A 
ATOM     25  C   LIG    1      -34.232  76.481  26.966  0.00  0.00    +0.023 A 
BRANCH  20  27
ATOM     26  C   LIG    1      -37.413  76.075  25.517  0.00  0.00    +0.248 C 
ATOM     27  N   LIG    1      -36.544  75.731  26.541  0.00  0.00    -0.281 N 
ATOM     28  H   LIG    1      -36.642  74.809  26.943  0.00  0.00    +0.155 HD
ATOM     29  O   LIG    1      -37.594  77.196  25.054  0.00  0.00    -0.270 OA
BRANCH  26  32
ATOM     30  C   LIG    1      -38.502  72.582  24.623  0.00  0.00    +0.056 A 
ATOM     31  C   LIG    1      -37.761  73.681  25.075  0.00  0.00    +0.025 A 
ATOM     32  C   LIG    1      -38.268  74.983  24.983  0.00  0.00    +0.038 A 
ATOM     33  C   LIG    1      -39.548  75.194  24.461  0.00  0.00    +0.013 A 
ATOM     34  C   LIG    1      -40.302  74.103  24.014  0.00  0.00    +0.001 A 
ATOM     35  C   LIG    1      -39.780  72.805  24.090  0.00  0.00    +0.012 A 
BRANCH  30  37
ATOM     36  F   LIG    1      -38.446  70.423  25.683  0.00  0.00    -0.166 F 
ATOM     37  C   LIG    1      -37.886  71.213  24.729  0.00  0.00    +0.417 C 
ATOM     38  F   LIG    1      -37.991  70.523  23.559  0.00  0.00    -0.166 F 
ATOM     39  F   LIG    1      -36.557  71.264  25.013  0.00  0.00    -0.166 F 
ENDBRANCH  30  37
ENDBRANCH  26  32
ENDBRANCH  20  27
ENDBRANCH   1  22
BRANCH   1  40
ATOM     40  C   LIG    1      -36.211  79.054  30.932  0.00  0.00    +0.138 C 
BRANCH  40  41
ATOM     41  C   LIG    1      -35.207  78.164  31.684  0.00  0.00    +0.175 C 
BRANCH  41  42
ATOM     42  O   LIG    1      -34.091  78.952  32.099  0.00  0.00    -0.393 OA
ATOM     43  H   LIG    1      -33.285  78.458  31.861  0.00  0.00    +0.209 HD
ENDBRANCH  41  42
ENDBRANCH  40  41
ENDBRANCH   1  40
TORSDOF 9
ENDMDL
