MODEL 1
REMARK VINA RESULT:      -7.6      0.000      0.000
REMARK  Name = modded_pdb/CHEMBL2037213_nitrogen_modded_with_ethanol_version_1.pdb
REMARK                            x       y       z     vdW  Elec       q    Type
REMARK                         _______ _______ _______ _____ _____    ______ ____
ROOT
ATOM      1  C   LIG    1      -26.384  76.347  32.380  0.00  0.00    +0.038 A 
ATOM      2  C   LIG    1      -27.484  76.847  31.645  0.00  0.00    +0.046 A 
ATOM      3  C   LIG    1      -28.780  76.312  31.814  0.00  0.00    +0.033 A 
ATOM      4  C   LIG    1      -28.942  75.348  32.815  0.00  0.00    +0.023 A 
ATOM      5  C   LIG    1      -27.877  74.866  33.569  0.00  0.00    +0.004 A 
ATOM      6  C   LIG    1      -26.597  75.364  33.354  0.00  0.00    +0.023 A 
ENDROOT
BRANCH   1   8
ATOM      7  C   LIG    1      -24.684  77.914  33.275  0.00  0.00    +0.251 C 
ATOM      8  N   LIG    1      -25.085  76.970  32.261  0.00  0.00    -0.265 N 
ATOM      9  O   LIG    1      -25.501  78.300  34.125  0.00  0.00    -0.270 OA
BRANCH   7  14
ATOM     10  C   LIG    1      -20.761  78.343  32.983  0.00  0.00    +0.031 A 
ATOM     11  C   LIG    1      -20.548  79.274  33.951  0.00  0.00    +0.035 A 
ATOM     12  C   LIG    1      -21.639  79.828  34.687  0.00  0.00    +0.057 A 
ATOM     13  C   LIG    1      -22.993  79.425  34.485  0.00  0.00    +0.025 A 
ATOM     14  C   LIG    1      -23.274  78.507  33.487  0.00  0.00    +0.040 A 
ATOM     15  C   LIG    1      -22.115  78.109  32.794  0.00  0.00    +0.036 A 
BRANCH  10  19
ATOM     16  C   LIG    1      -18.439  75.543  31.546  0.00  0.00    +0.118 C 
ATOM     17  C   LIG    1      -19.928  75.632  31.201  0.00  0.00    +0.050 C 
ATOM     18  C   LIG    1      -20.349  77.059  30.877  0.00  0.00    +0.107 C 
ATOM     19  N   LIG    1      -19.906  77.938  31.976  0.00  0.00    -0.330 N 
ATOM     20  C   LIG    1      -18.459  78.021  32.067  0.00  0.00    +0.107 C 
ATOM     21  C   LIG    1      -17.946  76.652  32.481  0.00  0.00    +0.050 C 
BRANCH  16  22
ATOM     22  O   LIG    1      -17.686  75.566  30.333  0.00  0.00    -0.392 OA
ATOM     23  H   LIG    1      -17.147  76.377  30.347  0.00  0.00    +0.210 HD
ENDBRANCH  16  22
ENDBRANCH  10  19
BRANCH  12  24
ATOM     24  C   LIG    1      -21.249  80.849  35.706  0.00  0.00    +0.417 C 
ATOM     25  F   LIG    1      -20.247  80.408  36.516  0.00  0.00    -0.166 F 
ATOM     26  F   LIG    1      -22.294  81.139  36.530  0.00  0.00    -0.166 F 
ATOM     27  F   LIG    1      -20.828  82.030  35.185  0.00  0.00    -0.166 F 
ENDBRANCH  12  24
ENDBRANCH   7  14
BRANCH   8  28
ATOM     28  C   LIG    1      -24.422  76.489  31.018  0.00  0.00    +0.141 C 
BRANCH  28  29
ATOM     29  C   LIG    1      -24.384  77.485  29.941  0.00  0.00    +0.175 C 
BRANCH  29  30
ATOM     30  O   LIG    1      -23.292  77.603  29.078  0.00  0.00    -0.393 OA
ATOM     31  H   LIG    1      -22.890  78.467  29.289  0.00  0.00    +0.209 HD
ENDBRANCH  29  30
ENDBRANCH  28  29
ENDBRANCH   8  28
ENDBRANCH   1   8
BRANCH   3  32
ATOM     32  N   LIG    1      -29.850  76.672  30.957  0.00  0.00    -0.314 N 
ATOM     33  H   LIG    1      -30.102  77.653  31.012  0.00  0.00    +0.152 HD
BRANCH  32  34
ATOM     34  C   LIG    1      -30.791  75.869  30.258  0.00  0.00    +0.033 A 
ATOM     35  C   LIG    1      -31.935  76.463  29.708  0.00  0.00    +0.047 A 
ATOM     36  C   LIG    1      -32.881  75.641  29.113  0.00  0.00    +0.043 A 
ATOM     37  N   LIG    1      -34.059  76.058  28.506  0.00  0.00    -0.281 N 
ATOM     38  H   LIG    1      -34.380  77.009  28.421  0.00  0.00    +0.155 HD
ATOM     39  C   LIG    1      -34.792  74.984  27.988  0.00  0.00    +0.249 C 
ATOM     40  O   LIG    1      -35.831  75.051  27.430  0.00  0.00    -0.270 OA
ATOM     41  C   LIG    1      -33.977  73.753  28.375  0.00  0.00    +0.048 C 
ATOM     42  C   LIG    1      -34.249  72.451  28.182  0.00  0.00    +0.039 C 
ATOM     43  C   LIG    1      -32.767  74.252  29.049  0.00  0.00    +0.008 A 
ATOM     44  C   LIG    1      -31.642  73.645  29.551  0.00  0.00    +0.012 A 
ATOM     45  C   LIG    1      -30.654  74.463  30.120  0.00  0.00    +0.024 A 
BRANCH  42  46
ATOM     46  C   LIG    1      -35.362  71.895  27.501  0.00  0.00    +0.040 A 
ATOM     47  N   LIG    1      -35.311  71.566  26.166  0.00  0.00    -0.361 N 
ATOM     48  H   LIG    1      -34.486  71.631  25.579  0.00  0.00    +0.165 HD
ATOM     49  C   LIG    1      -36.497  71.001  25.772  0.00  0.00    +0.083 A 
ATOM     50  C   LIG    1      -37.348  71.012  26.850  0.00  0.00    +0.019 A 
ATOM     51  C   LIG    1      -36.646  71.602  27.930  0.00  0.00    +0.027 A 
ENDBRANCH  42  46
ENDBRANCH  32  34
ENDBRANCH   3  32
TORSDOF 11
ENDMDL
MODEL 2
REMARK VINA RESULT:      -7.4     10.114     14.010
REMARK  Name = modded_pdb/CHEMBL2037213_nitrogen_modded_with_ethanol_version_1.pdb
REMARK                            x       y       z     vdW  Elec       q    Type
REMARK                         _______ _______ _______ _____ _____    ______ ____
ROOT
ATOM      1  C   LIG    1      -38.591  74.433  24.993  0.00  0.00    +0.038 A 
ATOM      2  C   LIG    1      -38.044  73.130  25.070  0.00  0.00    +0.046 A 
ATOM      3  C   LIG    1      -38.781  72.003  24.645  0.00  0.00    +0.033 A 
ATOM      4  C   LIG    1      -40.021  72.244  24.046  0.00  0.00    +0.023 A 
ATOM      5  C   LIG    1      -40.561  73.521  23.933  0.00  0.00    +0.004 A 
ATOM      6  C   LIG    1      -39.848  74.618  24.405  0.00  0.00    +0.023 A 
ENDROOT
BRANCH   1   8
ATOM      7  C   LIG    1      -37.309  75.693  26.701  0.00  0.00    +0.251 C 
ATOM      8  N   LIG    1      -37.787  75.582  25.345  0.00  0.00    -0.265 N 
ATOM      9  O   LIG    1      -37.722  74.912  27.572  0.00  0.00    -0.270 OA
BRANCH   7  14
ATOM     10  C   LIG    1      -35.721  79.083  27.983  0.00  0.00    +0.031 A 
ATOM     11  C   LIG    1      -34.403  78.749  27.974  0.00  0.00    +0.035 A 
ATOM     12  C   LIG    1      -33.983  77.434  27.613  0.00  0.00    +0.057 A 
ATOM     13  C   LIG    1      -34.896  76.413  27.210  0.00  0.00    +0.025 A 
ATOM     14  C   LIG    1      -36.253  76.683  27.236  0.00  0.00    +0.040 A 
ATOM     15  C   LIG    1      -36.523  77.989  27.687  0.00  0.00    +0.036 A 
BRANCH  10  19
ATOM     16  C   LIG    1      -35.658  82.919  28.739  0.00  0.00    +0.118 C 
ATOM     17  C   LIG    1      -36.346  82.338  27.500  0.00  0.00    +0.050 C 
ATOM     18  C   LIG    1      -37.179  81.110  27.840  0.00  0.00    +0.107 C 
ATOM     19  N   LIG    1      -36.332  80.164  28.591  0.00  0.00    -0.330 N 
ATOM     20  C   LIG    1      -35.942  80.682  29.890  0.00  0.00    +0.107 C 
ATOM     21  C   LIG    1      -35.022  81.868  29.653  0.00  0.00    +0.050 C 
BRANCH  16  22
ATOM     22  O   LIG    1      -36.614  83.684  29.476  0.00  0.00    -0.392 OA
ATOM     23  H   LIG    1      -37.488  83.286  29.310  0.00  0.00    +0.210 HD
ENDBRANCH  16  22
ENDBRANCH  10  19
BRANCH  12  24
ATOM     24  C   LIG    1      -32.505  77.215  27.664  0.00  0.00    +0.417 C 
ATOM     25  F   LIG    1      -31.862  78.216  28.326  0.00  0.00    -0.166 F 
ATOM     26  F   LIG    1      -31.972  77.194  26.411  0.00  0.00    -0.166 F 
ATOM     27  F   LIG    1      -32.130  76.056  28.264  0.00  0.00    -0.166 F 
ENDBRANCH  12  24
ENDBRANCH   7  14
BRANCH   8  28
ATOM     28  C   LIG    1      -37.650  76.467  24.156  0.00  0.00    +0.141 C 
BRANCH  28  29
ATOM     29  C   LIG    1      -38.544  77.630  24.174  0.00  0.00    +0.175 C 
BRANCH  29  30
ATOM     30  O   LIG    1      -39.373  77.947  23.096  0.00  0.00    -0.393 OA
ATOM     31  H   LIG    1      -38.814  78.461  22.483  0.00  0.00    +0.209 HD
ENDBRANCH  29  30
ENDBRANCH  28  29
ENDBRANCH   8  28
ENDBRANCH   1   8
BRANCH   3  32
ATOM     32  N   LIG    1      -38.323  70.682  24.887  0.00  0.00    -0.314 N 
ATOM     33  H   LIG    1      -38.414  70.392  25.854  0.00  0.00    +0.152 HD
BRANCH  32  34
ATOM     34  C   LIG    1      -37.525  69.816  24.092  0.00  0.00    +0.033 A 
ATOM     35  C   LIG    1      -37.882  69.576  22.758  0.00  0.00    +0.047 A 
ATOM     36  C   LIG    1      -37.139  68.654  22.034  0.00  0.00    +0.043 A 
ATOM     37  N   LIG    1      -37.339  68.308  20.704  0.00  0.00    -0.281 N 
ATOM     38  H   LIG    1      -38.049  68.678  20.093  0.00  0.00    +0.155 HD
ATOM     39  C   LIG    1      -36.412  67.357  20.264  0.00  0.00    +0.249 C 
ATOM     40  O   LIG    1      -36.357  66.882  19.184  0.00  0.00    -0.270 OA
ATOM     41  C   LIG    1      -35.572  67.052  21.501  0.00  0.00    +0.048 C 
ATOM     42  C   LIG    1      -34.576  66.163  21.662  0.00  0.00    +0.039 C 
ATOM     43  C   LIG    1      -36.068  67.937  22.568  0.00  0.00    +0.008 A 
ATOM     44  C   LIG    1      -35.676  68.174  23.862  0.00  0.00    +0.012 A 
ATOM     45  C   LIG    1      -36.388  69.133  24.598  0.00  0.00    +0.024 A 
BRANCH  42  46
ATOM     46  C   LIG    1      -34.011  65.314  20.675  0.00  0.00    +0.040 A 
ATOM     47  N   LIG    1      -34.507  64.056  20.424  0.00  0.00    -0.361 N 
ATOM     48  H   LIG    1      -35.329  63.654  20.860  0.00  0.00    +0.165 HD
ATOM     49  C   LIG    1      -33.816  63.473  19.392  0.00  0.00    +0.083 A 
ATOM     50  C   LIG    1      -32.824  64.340  19.005  0.00  0.00    +0.019 A 
ATOM     51  C   LIG    1      -32.927  65.487  19.831  0.00  0.00    +0.027 A 
ENDBRANCH  42  46
ENDBRANCH  32  34
ENDBRANCH   3  32
TORSDOF 11
ENDMDL
MODEL 3
REMARK VINA RESULT:      -7.3      1.730      2.058
REMARK  Name = modded_pdb/CHEMBL2037213_nitrogen_modded_with_ethanol_version_1.pdb
REMARK                            x       y       z     vdW  Elec       q    Type
REMARK                         _______ _______ _______ _____ _____    ______ ____
ROOT
ATOM      1  C   LIG    1      -25.944  75.617  31.874  0.00  0.00    +0.038 A 
ATOM      2  C   LIG    1      -27.232  76.152  32.116  0.00  0.00    +0.046 A 
ATOM      3  C   LIG    1      -28.360  75.312  32.242  0.00  0.00    +0.033 A 
ATOM      4  C   LIG    1      -28.128  73.932  32.228  0.00  0.00    +0.023 A 
ATOM      5  C   LIG    1      -26.864  73.389  32.023  0.00  0.00    +0.004 A 
ATOM      6  C   LIG    1      -25.770  74.229  31.846  0.00  0.00    +0.023 A 
ENDROOT
BRANCH   1   8
ATOM      7  C   LIG    1      -24.476  77.252  33.022  0.00  0.00    +0.251 C 
ATOM      8  N   LIG    1      -24.790  76.487  31.841  0.00  0.00    -0.265 N 
ATOM      9  O   LIG    1      -25.274  77.287  33.972  0.00  0.00    -0.270 OA
BRANCH   7  14
ATOM     10  C   LIG    1      -20.660  78.287  32.865  0.00  0.00    +0.031 A 
ATOM     11  C   LIG    1      -20.615  79.195  33.876  0.00  0.00    +0.035 A 
ATOM     12  C   LIG    1      -21.795  79.543  34.601  0.00  0.00    +0.057 A 
ATOM     13  C   LIG    1      -23.066  78.947  34.343  0.00  0.00    +0.025 A 
ATOM     14  C   LIG    1      -23.180  78.044  33.300  0.00  0.00    +0.040 A 
ATOM     15  C   LIG    1      -21.958  77.858  32.626  0.00  0.00    +0.036 A 
BRANCH  10  19
ATOM     16  C   LIG    1      -18.289  75.748  31.068  0.00  0.00    +0.118 C 
ATOM     17  C   LIG    1      -19.740  75.969  30.629  0.00  0.00    +0.050 C 
ATOM     18  C   LIG    1      -20.096  77.448  30.578  0.00  0.00    +0.107 C 
ATOM     19  N   LIG    1      -19.730  78.063  31.867  0.00  0.00    -0.330 N 
ATOM     20  C   LIG    1      -18.295  78.065  32.090  0.00  0.00    +0.107 C 
ATOM     21  C   LIG    1      -17.854  76.620  32.251  0.00  0.00    +0.050 C 
BRANCH  16  22
ATOM     22  O   LIG    1      -17.432  75.988  29.951  0.00  0.00    -0.392 OA
ATOM     23  H   LIG    1      -16.654  75.411  30.059  0.00  0.00    +0.210 HD
ENDBRANCH  16  22
ENDBRANCH  10  19
BRANCH  12  24
ATOM     24  C   LIG    1      -21.590  80.565  35.672  0.00  0.00    +0.417 C 
ATOM     25  F   LIG    1      -22.644  80.624  36.532  0.00  0.00    -0.166 F 
ATOM     26  F   LIG    1      -21.474  81.813  35.139  0.00  0.00    -0.166 F 
ATOM     27  F   LIG    1      -20.484  80.365  36.434  0.00  0.00    -0.166 F 
ENDBRANCH  12  24
ENDBRANCH   7  14
BRANCH   8  28
ATOM     28  C   LIG    1      -24.160  76.414  30.495  0.00  0.00    +0.141 C 
BRANCH  28  29
ATOM     29  C   LIG    1      -24.308  77.640  29.702  0.00  0.00    +0.175 C 
BRANCH  29  30
ATOM     30  O   LIG    1      -23.229  78.234  29.045  0.00  0.00    -0.393 OA
ATOM     31  H   LIG    1      -23.588  79.049  28.645  0.00  0.00    +0.209 HD
ENDBRANCH  29  30
ENDBRANCH  28  29
ENDBRANCH   8  28
ENDBRANCH   1   8
BRANCH   3  32
ATOM     32  N   LIG    1      -29.676  75.838  32.298  0.00  0.00    -0.314 N 
ATOM     33  H   LIG    1      -29.941  76.173  33.218  0.00  0.00    +0.152 HD
BRANCH  32  34
ATOM     34  C   LIG    1      -30.758  75.729  31.384  0.00  0.00    +0.033 A 
ATOM     35  C   LIG    1      -30.708  76.421  30.166  0.00  0.00    +0.047 A 
ATOM     36  C   LIG    1      -31.819  76.371  29.336  0.00  0.00    +0.043 A 
ATOM     37  N   LIG    1      -31.936  76.979  28.092  0.00  0.00    -0.281 N 
ATOM     38  H   LIG    1      -31.233  77.535  27.632  0.00  0.00    +0.155 HD
ATOM     39  C   LIG    1      -33.179  76.728  27.500  0.00  0.00    +0.249 C 
ATOM     40  O   LIG    1      -33.547  77.127  26.451  0.00  0.00    -0.270 OA
ATOM     41  C   LIG    1      -33.930  75.902  28.541  0.00  0.00    +0.048 C 
ATOM     42  C   LIG    1      -35.192  75.440  28.519  0.00  0.00    +0.039 C 
ATOM     43  C   LIG    1      -32.992  75.688  29.655  0.00  0.00    +0.008 A 
ATOM     44  C   LIG    1      -33.059  74.975  30.828  0.00  0.00    +0.012 A 
ATOM     45  C   LIG    1      -31.931  74.979  31.662  0.00  0.00    +0.024 A 
BRANCH  42  46
ATOM     46  C   LIG    1      -36.136  75.562  27.467  0.00  0.00    +0.040 A 
ATOM     47  N   LIG    1      -36.372  76.760  26.833  0.00  0.00    -0.361 N 
ATOM     48  H   LIG    1      -35.870  77.623  27.009  0.00  0.00    +0.165 HD
ATOM     49  C   LIG    1      -37.287  76.589  25.825  0.00  0.00    +0.083 A 
ATOM     50  C   LIG    1      -37.690  75.275  25.839  0.00  0.00    +0.019 A 
ATOM     51  C   LIG    1      -36.989  74.636  26.891  0.00  0.00    +0.027 A 
ENDBRANCH  42  46
ENDBRANCH  32  34
ENDBRANCH   3  32
TORSDOF 11
ENDMDL
MODEL 4
REMARK VINA RESULT:      -7.2     14.976     17.889
REMARK  Name = modded_pdb/CHEMBL2037213_nitrogen_modded_with_ethanol_version_1.pdb
REMARK                            x       y       z     vdW  Elec       q    Type
REMARK                         _______ _______ _______ _____ _____    ______ ____
ROOT
ATOM      1  C   LIG    1      -38.128  67.874  21.651  0.00  0.00    +0.038 A 
ATOM      2  C   LIG    1      -37.949  68.769  22.731  0.00  0.00    +0.046 A 
ATOM      3  C   LIG    1      -39.021  69.102  23.589  0.00  0.00    +0.033 A 
ATOM      4  C   LIG    1      -40.228  68.425  23.389  0.00  0.00    +0.023 A 
ATOM      5  C   LIG    1      -40.412  67.517  22.351  0.00  0.00    +0.004 A 
ATOM      6  C   LIG    1      -39.364  67.239  21.480  0.00  0.00    +0.023 A 
ENDROOT
BRANCH   1   8
ATOM      7  C   LIG    1      -36.086  66.494  21.379  0.00  0.00    +0.251 C 
ATOM      8  N   LIG    1      -36.998  67.474  20.842  0.00  0.00    -0.265 N 
ATOM      9  O   LIG    1      -36.179  66.139  22.563  0.00  0.00    -0.270 OA
BRANCH   7  14
ATOM     10  C   LIG    1      -32.746  65.904  19.340  0.00  0.00    +0.031 A 
ATOM     11  C   LIG    1      -32.929  64.615  18.947  0.00  0.00    +0.035 A 
ATOM     12  C   LIG    1      -34.084  63.881  19.355  0.00  0.00    +0.057 A 
ATOM     13  C   LIG    1      -35.119  64.451  20.156  0.00  0.00    +0.025 A 
ATOM     14  C   LIG    1      -34.970  65.748  20.616  0.00  0.00    +0.040 A 
ATOM     15  C   LIG    1      -33.751  66.318  20.202  0.00  0.00    +0.036 A 
BRANCH  10  19
ATOM     16  C   LIG    1      -29.683  67.200  17.283  0.00  0.00    +0.118 C 
ATOM     17  C   LIG    1      -31.005  67.968  17.358  0.00  0.00    +0.050 C 
ATOM     18  C   LIG    1      -31.546  68.025  18.779  0.00  0.00    +0.107 C 
ATOM     19  N   LIG    1      -31.585  66.653  19.320  0.00  0.00    -0.330 N 
ATOM     20  C   LIG    1      -30.258  66.085  19.482  0.00  0.00    +0.107 C 
ATOM     21  C   LIG    1      -29.666  65.901  18.095  0.00  0.00    +0.050 C 
BRANCH  16  22
ATOM     22  O   LIG    1      -28.629  68.057  17.724  0.00  0.00    -0.392 OA
ATOM     23  H   LIG    1      -27.789  67.626  17.482  0.00  0.00    +0.210 HD
ENDBRANCH  16  22
ENDBRANCH  10  19
BRANCH  12  24
ATOM     24  C   LIG    1      -34.137  62.474  18.856  0.00  0.00    +0.417 C 
ATOM     25  F   LIG    1      -34.775  61.645  19.728  0.00  0.00    -0.166 F 
ATOM     26  F   LIG    1      -32.884  61.963  18.706  0.00  0.00    -0.166 F 
ATOM     27  F   LIG    1      -34.762  62.325  17.660  0.00  0.00    -0.166 F 
ENDBRANCH  12  24
ENDBRANCH   7  14
BRANCH   8  28
ATOM     28  C   LIG    1      -37.014  68.238  19.565  0.00  0.00    +0.141 C 
BRANCH  28  29
ATOM     29  C   LIG    1      -37.284  67.413  18.382  0.00  0.00    +0.175 C 
BRANCH  29  30
ATOM     30  O   LIG    1      -36.349  67.259  17.356  0.00  0.00    -0.393 OA
ATOM     31  H   LIG    1      -36.575  66.412  16.927  0.00  0.00    +0.209 HD
ENDBRANCH  29  30
ENDBRANCH  28  29
ENDBRANCH   8  28
ENDBRANCH   1   8
BRANCH   3  32
ATOM     32  N   LIG    1      -38.905  70.134  24.555  0.00  0.00    -0.314 N 
ATOM     33  H   LIG    1      -38.941  69.799  25.512  0.00  0.00    +0.152 HD
BRANCH  32  34
ATOM     34  C   LIG    1      -39.024  71.544  24.427  0.00  0.00    +0.033 A 
ATOM     35  C   LIG    1      -38.013  72.372  24.934  0.00  0.00    +0.047 A 
ATOM     36  C   LIG    1      -38.200  73.746  24.878  0.00  0.00    +0.043 A 
ATOM     37  N   LIG    1      -37.300  74.711  25.315  0.00  0.00    -0.281 N 
ATOM     38  H   LIG    1      -36.399  74.539  25.730  0.00  0.00    +0.155 HD
ATOM     39  C   LIG    1      -37.780  76.009  25.106  0.00  0.00    +0.249 C 
ATOM     40  O   LIG    1      -37.226  77.012  25.390  0.00  0.00    -0.270 OA
ATOM     41  C   LIG    1      -39.170  75.803  24.511  0.00  0.00    +0.048 C 
ATOM     42  C   LIG    1      -40.101  76.713  24.176  0.00  0.00    +0.039 C 
ATOM     43  C   LIG    1      -39.347  74.349  24.364  0.00  0.00    +0.008 A 
ATOM     44  C   LIG    1      -40.341  73.564  23.831  0.00  0.00    +0.012 A 
ATOM     45  C   LIG    1      -40.153  72.174  23.841  0.00  0.00    +0.024 A 
BRANCH  42  46
ATOM     46  C   LIG    1      -39.988  78.126  24.241  0.00  0.00    +0.040 A 
ATOM     47  N   LIG    1      -39.528  78.871  23.179  0.00  0.00    -0.361 N 
ATOM     48  H   LIG    1      -39.294  78.502  22.264  0.00  0.00    +0.165 HD
ATOM     49  C   LIG    1      -39.568  80.207  23.487  0.00  0.00    +0.083 A 
ATOM     50  C   LIG    1      -40.007  80.329  24.783  0.00  0.00    +0.019 A 
ATOM     51  C   LIG    1      -40.242  79.019  25.268  0.00  0.00    +0.027 A 
ENDBRANCH  42  46
ENDBRANCH  32  34
ENDBRANCH   3  32
TORSDOF 11
ENDMDL
MODEL 5
REMARK VINA RESULT:      -7.2     11.296     16.370
REMARK  Name = modded_pdb/CHEMBL2037213_nitrogen_modded_with_ethanol_version_1.pdb
REMARK                            x       y       z     vdW  Elec       q    Type
REMARK                         _______ _______ _______ _____ _____    ______ ____
ROOT
ATOM      1  C   LIG    1      -35.248  76.373  27.729  0.00  0.00    +0.038 A 
ATOM      2  C   LIG    1      -35.348  77.634  28.363  0.00  0.00    +0.046 A 
ATOM      3  C   LIG    1      -34.201  78.422  28.606  0.00  0.00    +0.033 A 
ATOM      4  C   LIG    1      -32.987  77.951  28.094  0.00  0.00    +0.023 A 
ATOM      5  C   LIG    1      -32.876  76.728  27.441  0.00  0.00    +0.004 A 
ATOM      6  C   LIG    1      -34.004  75.937  27.257  0.00  0.00    +0.023 A 
ENDROOT
BRANCH   1   8
ATOM      7  C   LIG    1      -37.055  75.838  26.119  0.00  0.00    +0.251 C 
ATOM      8  N   LIG    1      -36.442  75.625  27.406  0.00  0.00    -0.265 N 
ATOM      9  O   LIG    1      -36.663  76.760  25.388  0.00  0.00    -0.270 OA
BRANCH   7  14
ATOM     10  C   LIG    1      -38.909  72.691  24.596  0.00  0.00    +0.031 A 
ATOM     11  C   LIG    1      -39.991  73.297  24.037  0.00  0.00    +0.035 A 
ATOM     12  C   LIG    1      -40.192  74.704  24.168  0.00  0.00    +0.057 A 
ATOM     13  C   LIG    1      -39.272  75.557  24.849  0.00  0.00    +0.025 A 
ATOM     14  C   LIG    1      -38.171  74.992  25.469  0.00  0.00    +0.040 A 
ATOM     15  C   LIG    1      -38.145  73.592  25.325  0.00  0.00    +0.036 A 
BRANCH  10  19
ATOM     16  C   LIG    1      -38.604  69.067  23.157  0.00  0.00    +0.118 C 
ATOM     17  C   LIG    1      -37.394  69.992  23.316  0.00  0.00    +0.050 C 
ATOM     18  C   LIG    1      -37.396  70.701  24.663  0.00  0.00    +0.107 C 
ATOM     19  N   LIG    1      -38.709  71.347  24.849  0.00  0.00    -0.330 N 
ATOM     20  C   LIG    1      -39.788  70.382  24.968  0.00  0.00    +0.107 C 
ATOM     21  C   LIG    1      -39.927  69.681  23.628  0.00  0.00    +0.050 C 
BRANCH  16  22
ATOM     22  O   LIG    1      -38.353  67.857  23.874  0.00  0.00    -0.392 OA
ATOM     23  H   LIG    1      -38.727  67.129  23.346  0.00  0.00    +0.210 HD
ENDBRANCH  16  22
ENDBRANCH  10  19
BRANCH  12  24
ATOM     24  C   LIG    1      -41.432  75.220  23.514  0.00  0.00    +0.417 C 
ATOM     25  F   LIG    1      -41.185  76.310  22.735  0.00  0.00    -0.166 F 
ATOM     26  F   LIG    1      -42.341  75.626  24.443  0.00  0.00    -0.166 F 
ATOM     27  F   LIG    1      -42.065  74.318  22.721  0.00  0.00    -0.166 F 
ENDBRANCH  12  24
ENDBRANCH   7  14
BRANCH   8  28
ATOM     28  C   LIG    1      -36.812  74.768  28.566  0.00  0.00    +0.141 C 
BRANCH  28  29
ATOM     29  C   LIG    1      -38.108  75.104  29.165  0.00  0.00    +0.175 C 
BRANCH  29  30
ATOM     30  O   LIG    1      -38.556  76.421  29.276  0.00  0.00    -0.393 OA
ATOM     31  H   LIG    1      -38.679  76.571  30.233  0.00  0.00    +0.209 HD
ENDBRANCH  29  30
ENDBRANCH  28  29
ENDBRANCH   8  28
ENDBRANCH   1   8
BRANCH   3  32
ATOM     32  N   LIG    1      -34.260  79.595  29.401  0.00  0.00    -0.314 N 
ATOM     33  H   LIG    1      -34.097  79.426  30.388  0.00  0.00    +0.152 HD
BRANCH  32  34
ATOM     34  C   LIG    1      -34.767  80.890  29.109  0.00  0.00    +0.033 A 
ATOM     35  C   LIG    1      -35.300  81.155  27.840  0.00  0.00    +0.047 A 
ATOM     36  C   LIG    1      -35.701  82.452  27.553  0.00  0.00    +0.043 A 
ATOM     37  N   LIG    1      -36.263  82.887  26.360  0.00  0.00    -0.281 N 
ATOM     38  H   LIG    1      -36.450  82.321  25.548  0.00  0.00    +0.155 HD
ATOM     39  C   LIG    1      -36.571  84.252  26.391  0.00  0.00    +0.249 C 
ATOM     40  O   LIG    1      -37.049  84.881  25.514  0.00  0.00    -0.270 OA
ATOM     41  C   LIG    1      -36.088  84.713  27.764  0.00  0.00    +0.048 C 
ATOM     42  C   LIG    1      -36.080  85.946  28.299  0.00  0.00    +0.039 C 
ATOM     43  C   LIG    1      -35.585  83.512  28.451  0.00  0.00    +0.008 A 
ATOM     44  C   LIG    1      -35.097  83.277  29.713  0.00  0.00    +0.012 A 
ATOM     45  C   LIG    1      -34.724  81.963  30.037  0.00  0.00    +0.024 A 
BRANCH  42  46
ATOM     46  C   LIG    1      -36.590  87.139  27.723  0.00  0.00    +0.040 A 
ATOM     47  N   LIG    1      -35.990  87.740  26.640  0.00  0.00    -0.361 N 
ATOM     48  H   LIG    1      -35.194  87.370  26.132  0.00  0.00    +0.165 HD
ATOM     49  C   LIG    1      -36.710  88.841  26.252  0.00  0.00    +0.083 A 
ATOM     50  C   LIG    1      -37.760  88.989  27.127  0.00  0.00    +0.019 A 
ATOM     51  C   LIG    1      -37.667  87.936  28.070  0.00  0.00    +0.027 A 
ENDBRANCH  42  46
ENDBRANCH  32  34
ENDBRANCH   3  32
TORSDOF 11
ENDMDL
MODEL 6
REMARK VINA RESULT:      -7.1     11.397     14.615
REMARK  Name = modded_pdb/CHEMBL2037213_nitrogen_modded_with_ethanol_version_1.pdb
REMARK                            x       y       z     vdW  Elec       q    Type
REMARK                         _______ _______ _______ _____ _____    ______ ____
ROOT
ATOM      1  C   LIG    1      -36.934  68.357  24.389  0.00  0.00    +0.038 A 
ATOM      2  C   LIG    1      -38.042  69.149  24.771  0.00  0.00    +0.046 A 
ATOM      3  C   LIG    1      -38.924  69.685  23.807  0.00  0.00    +0.033 A 
ATOM      4  C   LIG    1      -38.715  69.307  22.476  0.00  0.00    +0.023 A 
ATOM      5  C   LIG    1      -37.649  68.504  22.086  0.00  0.00    +0.004 A 
ATOM      6  C   LIG    1      -36.756  68.027  23.040  0.00  0.00    +0.023 A 
ENDROOT
BRANCH   1   8
ATOM      7  C   LIG    1      -34.886  68.416  25.785  0.00  0.00    +0.251 C 
ATOM      8  N   LIG    1      -36.098  67.740  25.395  0.00  0.00    -0.265 N 
ATOM      9  O   LIG    1      -34.494  69.407  25.150  0.00  0.00    -0.270 OA
BRANCH   7  14
ATOM     10  C   LIG    1      -33.200  66.309  28.680  0.00  0.00    +0.031 A 
ATOM     11  C   LIG    1      -32.588  67.304  29.376  0.00  0.00    +0.035 A 
ATOM     12  C   LIG    1      -32.648  68.657  28.925  0.00  0.00    +0.057 A 
ATOM     13  C   LIG    1      -33.368  69.054  27.758  0.00  0.00    +0.025 A 
ATOM     14  C   LIG    1      -33.980  68.079  26.989  0.00  0.00    +0.040 A 
ATOM     15  C   LIG    1      -33.772  66.788  27.509  0.00  0.00    +0.036 A 
BRANCH  10  19
ATOM     16  C   LIG    1      -31.111  63.371  30.195  0.00  0.00    +0.118 C 
ATOM     17  C   LIG    1      -32.356  63.935  30.886  0.00  0.00    +0.050 C 
ATOM     18  C   LIG    1      -33.499  64.150  29.905  0.00  0.00    +0.107 C 
ATOM     19  N   LIG    1      -32.997  64.945  28.769  0.00  0.00    -0.330 N 
ATOM     20  C   LIG    1      -32.007  64.227  27.987  0.00  0.00    +0.107 C 
ATOM     21  C   LIG    1      -30.777  64.045  28.860  0.00  0.00    +0.050 C 
BRANCH  16  22
ATOM     22  O   LIG    1      -31.296  61.968  29.994  0.00  0.00    -0.392 OA
ATOM     23  H   LIG    1      -30.737  61.713  29.237  0.00  0.00    +0.210 HD
ENDBRANCH  16  22
ENDBRANCH  10  19
BRANCH  12  24
ATOM     24  C   LIG    1      -31.915  69.634  29.787  0.00  0.00    +0.417 C 
ATOM     25  F   LIG    1      -31.614  70.782  29.118  0.00  0.00    -0.166 F 
ATOM     26  F   LIG    1      -30.725  69.121  30.202  0.00  0.00    -0.166 F 
ATOM     27  F   LIG    1      -32.586  70.009  30.906  0.00  0.00    -0.166 F 
ENDBRANCH  12  24
ENDBRANCH   7  14
BRANCH   8  28
ATOM     28  C   LIG    1      -36.703  66.444  25.806  0.00  0.00    +0.141 C 
BRANCH  28  29
ATOM     29  C   LIG    1      -36.069  65.270  25.196  0.00  0.00    +0.175 C 
BRANCH  29  30
ATOM     30  O   LIG    1      -34.913  65.371  24.419  0.00  0.00    -0.393 OA
ATOM     31  H   LIG    1      -34.386  66.081  24.831  0.00  0.00    +0.209 HD
ENDBRANCH  29  30
ENDBRANCH  28  29
ENDBRANCH   8  28
ENDBRANCH   1   8
BRANCH   3  32
ATOM     32  N   LIG    1      -39.924  70.627  24.158  0.00  0.00    -0.314 N 
ATOM     33  H   LIG    1      -40.834  70.211  24.325  0.00  0.00    +0.152 HD
BRANCH  32  34
ATOM     34  C   LIG    1      -39.944  72.044  24.049  0.00  0.00    +0.033 A 
ATOM     35  C   LIG    1      -38.884  72.793  24.577  0.00  0.00    +0.047 A 
ATOM     36  C   LIG    1      -38.976  74.178  24.540  0.00  0.00    +0.043 A 
ATOM     37  N   LIG    1      -38.017  75.072  24.999  0.00  0.00    -0.281 N 
ATOM     38  H   LIG    1      -37.134  74.833  25.420  0.00  0.00    +0.155 HD
ATOM     39  C   LIG    1      -38.404  76.402  24.806  0.00  0.00    +0.249 C 
ATOM     40  O   LIG    1      -37.785  77.361  25.109  0.00  0.00    -0.270 OA
ATOM     41  C   LIG    1      -39.798  76.302  24.194  0.00  0.00    +0.048 C 
ATOM     42  C   LIG    1      -40.661  77.278  23.864  0.00  0.00    +0.039 C 
ATOM     43  C   LIG    1      -40.074  74.865  24.024  0.00  0.00    +0.008 A 
ATOM     44  C   LIG    1      -41.113  74.158  23.470  0.00  0.00    +0.012 A 
ATOM     45  C   LIG    1      -41.021  72.758  23.461  0.00  0.00    +0.024 A 
BRANCH  42  46
ATOM     46  C   LIG    1      -40.451  78.679  23.951  0.00  0.00    +0.040 A 
ATOM     47  N   LIG    1      -39.495  79.322  23.199  0.00  0.00    -0.361 N 
ATOM     48  H   LIG    1      -38.913  78.883  22.494  0.00  0.00    +0.165 HD
ATOM     49  C   LIG    1      -39.538  80.672  23.434  0.00  0.00    +0.083 A 
ATOM     50  C   LIG    1      -40.497  80.904  24.391  0.00  0.00    +0.019 A 
ATOM     51  C   LIG    1      -41.051  79.647  24.738  0.00  0.00    +0.027 A 
ENDBRANCH  42  46
ENDBRANCH  32  34
ENDBRANCH   3  32
TORSDOF 11
ENDMDL
MODEL 7
REMARK VINA RESULT:      -7.1      8.792     12.534
REMARK  Name = modded_pdb/CHEMBL2037213_nitrogen_modded_with_ethanol_version_1.pdb
REMARK                            x       y       z     vdW  Elec       q    Type
REMARK                         _______ _______ _______ _____ _____    ______ ____
ROOT
ATOM      1  C   LIG    1      -35.593  82.306  28.873  0.00  0.00    +0.038 A 
ATOM      2  C   LIG    1      -34.777  81.478  28.065  0.00  0.00    +0.046 A 
ATOM      3  C   LIG    1      -35.043  80.097  27.933  0.00  0.00    +0.033 A 
ATOM      4  C   LIG    1      -36.205  79.613  28.543  0.00  0.00    +0.023 A 
ATOM      5  C   LIG    1      -37.035  80.419  29.315  0.00  0.00    +0.004 A 
ATOM      6  C   LIG    1      -36.732  81.766  29.482  0.00  0.00    +0.023 A 
ENDROOT
BRANCH   1   8
ATOM      7  C   LIG    1      -34.333  84.228  29.801  0.00  0.00    +0.251 C 
ATOM      8  N   LIG    1      -35.361  83.732  28.921  0.00  0.00    -0.265 N 
ATOM      9  O   LIG    1      -33.787  83.466  30.613  0.00  0.00    -0.270 OA
BRANCH   7  14
ATOM     10  C   LIG    1      -33.970  88.102  29.077  0.00  0.00    +0.031 A 
ATOM     11  C   LIG    1      -32.713  88.318  29.549  0.00  0.00    +0.035 A 
ATOM     12  C   LIG    1      -31.966  87.262  30.153  0.00  0.00    +0.057 A 
ATOM     13  C   LIG    1      -32.463  85.929  30.268  0.00  0.00    +0.025 A 
ATOM     14  C   LIG    1      -33.751  85.658  29.838  0.00  0.00    +0.040 A 
ATOM     15  C   LIG    1      -34.394  86.807  29.340  0.00  0.00    +0.036 A 
BRANCH  10  19
ATOM     16  C   LIG    1      -35.880  90.075  26.292  0.00  0.00    +0.118 C 
ATOM     17  C   LIG    1      -36.358  88.715  26.810  0.00  0.00    +0.050 C 
ATOM     18  C   LIG    1      -36.296  88.633  28.328  0.00  0.00    +0.107 C 
ATOM     19  N   LIG    1      -34.943  89.031  28.763  0.00  0.00    -0.330 N 
ATOM     20  C   LIG    1      -34.662  90.428  28.484  0.00  0.00    +0.107 C 
ATOM     21  C   LIG    1      -34.609  90.592  26.974  0.00  0.00    +0.050 C 
BRANCH  16  22
ATOM     22  O   LIG    1      -36.936  91.023  26.457  0.00  0.00    -0.392 OA
ATOM     23  H   LIG    1      -37.353  91.140  25.584  0.00  0.00    +0.210 HD
ENDBRANCH  16  22
ENDBRANCH  10  19
BRANCH  12  24
ATOM     24  C   LIG    1      -30.608  87.656  30.636  0.00  0.00    +0.417 C 
ATOM     25  F   LIG    1      -30.127  86.793  31.573  0.00  0.00    -0.166 F 
ATOM     26  F   LIG    1      -30.640  88.878  31.236  0.00  0.00    -0.166 F 
ATOM     27  F   LIG    1      -29.665  87.729  29.662  0.00  0.00    -0.166 F 
ENDBRANCH  12  24
ENDBRANCH   7  14
BRANCH   8  28
ATOM     28  C   LIG    1      -36.322  84.415  28.012  0.00  0.00    +0.141 C 
BRANCH  28  29
ATOM     29  C   LIG    1      -35.862  84.511  26.622  0.00  0.00    +0.175 C 
BRANCH  29  30
ATOM     30  O   LIG    1      -34.872  85.413  26.228  0.00  0.00    -0.393 OA
ATOM     31  H   LIG    1      -35.138  85.715  25.339  0.00  0.00    +0.209 HD
ENDBRANCH  29  30
ENDBRANCH  28  29
ENDBRANCH   8  28
ENDBRANCH   1   8
BRANCH   3  32
ATOM     32  N   LIG    1      -34.134  79.225  27.282  0.00  0.00    -0.314 N 
ATOM     33  H   LIG    1      -33.953  79.474  26.315  0.00  0.00    +0.152 HD
BRANCH  32  34
ATOM     34  C   LIG    1      -33.656  77.939  27.649  0.00  0.00    +0.033 A 
ATOM     35  C   LIG    1      -34.414  76.803  27.332  0.00  0.00    +0.047 A 
ATOM     36  C   LIG    1      -33.970  75.569  27.785  0.00  0.00    +0.043 A 
ATOM     37  N   LIG    1      -34.582  74.344  27.550  0.00  0.00    -0.281 N 
ATOM     38  H   LIG    1      -35.427  74.193  27.024  0.00  0.00    +0.155 HD
ATOM     39  C   LIG    1      -33.878  73.285  28.133  0.00  0.00    +0.249 C 
ATOM     40  O   LIG    1      -34.177  72.143  28.096  0.00  0.00    -0.270 OA
ATOM     41  C   LIG    1      -32.715  73.960  28.855  0.00  0.00    +0.048 C 
ATOM     42  C   LIG    1      -31.759  73.420  29.631  0.00  0.00    +0.039 C 
ATOM     43  C   LIG    1      -32.821  75.398  28.558  0.00  0.00    +0.008 A 
ATOM     44  C   LIG    1      -32.042  76.488  28.858  0.00  0.00    +0.012 A 
ATOM     45  C   LIG    1      -32.452  77.739  28.373  0.00  0.00    +0.024 A 
BRANCH  42  46
ATOM     46  C   LIG    1      -31.561  72.045  29.923  0.00  0.00    +0.040 A 
ATOM     47  N   LIG    1      -32.466  71.318  30.662  0.00  0.00    -0.361 N 
ATOM     48  H   LIG    1      -33.355  71.666  31.004  0.00  0.00    +0.165 HD
ATOM     49  C   LIG    1      -32.062  70.011  30.751  0.00  0.00    +0.083 A 
ATOM     50  C   LIG    1      -30.853  69.898  30.108  0.00  0.00    +0.019 A 
ATOM     51  C   LIG    1      -30.522  71.184  29.613  0.00  0.00    +0.027 A 
ENDBRANCH  42  46
ENDBRANCH  32  34
ENDBRANCH   3  32
TORSDOF 11
ENDMDL
MODEL 8
REMARK VINA RESULT:      -7.1     10.761     14.555
REMARK  Name = modded_pdb/CHEMBL2037213_nitrogen_modded_with_ethanol_version_1.pdb
REMARK                            x       y       z     vdW  Elec       q    Type
REMARK                         _______ _______ _______ _____ _____    ______ ____
ROOT
ATOM      1  C   LIG    1      -40.047  75.332  24.418  0.00  0.00    +0.038 A 
ATOM      2  C   LIG    1      -39.833  73.934  24.462  0.00  0.00    +0.046 A 
ATOM      3  C   LIG    1      -40.754  73.036  23.879  0.00  0.00    +0.033 A 
ATOM      4  C   LIG    1      -41.821  73.594  23.167  0.00  0.00    +0.023 A 
ATOM      5  C   LIG    1      -42.029  74.967  23.087  0.00  0.00    +0.004 A 
ATOM      6  C   LIG    1      -41.144  75.839  23.712  0.00  0.00    +0.023 A 
ENDROOT
BRANCH   1   8
ATOM      7  C   LIG    1      -38.652  76.102  26.318  0.00  0.00    +0.251 C 
ATOM      8  N   LIG    1      -39.047  76.238  24.938  0.00  0.00    -0.265 N 
ATOM      9  O   LIG    1      -39.278  75.343  27.073  0.00  0.00    -0.270 OA
BRANCH   7  14
ATOM     10  C   LIG    1      -36.402  78.960  27.875  0.00  0.00    +0.031 A 
ATOM     11  C   LIG    1      -35.233  78.285  28.038  0.00  0.00    +0.035 A 
ATOM     12  C   LIG    1      -35.136  76.899  27.709  0.00  0.00    +0.057 A 
ATOM     13  C   LIG    1      -36.226  76.155  27.165  0.00  0.00    +0.025 A 
ATOM     14  C   LIG    1      -37.452  76.780  27.012  0.00  0.00    +0.040 A 
ATOM     15  C   LIG    1      -37.419  78.118  27.450  0.00  0.00    +0.036 A 
BRANCH  10  19
ATOM     16  C   LIG    1      -35.427  82.661  28.680  0.00  0.00    +0.118 C 
ATOM     17  C   LIG    1      -36.088  82.255  27.360  0.00  0.00    +0.050 C 
ATOM     18  C   LIG    1      -37.249  81.295  27.580  0.00  0.00    +0.107 C 
ATOM     19  N   LIG    1      -36.777  80.176  28.417  0.00  0.00    -0.330 N 
ATOM     20  C   LIG    1      -36.424  80.600  29.760  0.00  0.00    +0.107 C 
ATOM     21  C   LIG    1      -35.204  81.498  29.652  0.00  0.00    +0.050 C 
BRANCH  16  22
ATOM     22  O   LIG    1      -36.231  83.664  29.305  0.00  0.00    -0.392 OA
ATOM     23  H   LIG    1      -36.508  84.284  28.606  0.00  0.00    +0.210 HD
ENDBRANCH  16  22
ENDBRANCH  10  19
BRANCH  12  24
ATOM     24  C   LIG    1      -33.793  76.292  27.955  0.00  0.00    +0.417 C 
ATOM     25  F   LIG    1      -33.415  75.458  26.947  0.00  0.00    -0.166 F 
ATOM     26  F   LIG    1      -33.802  75.532  29.085  0.00  0.00    -0.166 F 
ATOM     27  F   LIG    1      -32.789  77.193  28.103  0.00  0.00    -0.166 F 
ENDBRANCH  12  24
ENDBRANCH   7  14
BRANCH   8  28
ATOM     28  C   LIG    1      -38.645  77.191  23.867  0.00  0.00    +0.141 C 
BRANCH  28  29
ATOM     29  C   LIG    1      -39.026  78.582  24.136  0.00  0.00    +0.175 C 
BRANCH  29  30
ATOM     30  O   LIG    1      -40.202  79.140  23.633  0.00  0.00    -0.393 OA
ATOM     31  H   LIG    1      -40.392  79.904  24.210  0.00  0.00    +0.209 HD
ENDBRANCH  29  30
ENDBRANCH  28  29
ENDBRANCH   8  28
ENDBRANCH   1   8
BRANCH   3  32
ATOM     32  N   LIG    1      -40.651  71.635  24.074  0.00  0.00    -0.314 N 
ATOM     33  H   LIG    1      -41.116  71.307  24.914  0.00  0.00    +0.152 HD
BRANCH  32  34
ATOM     34  C   LIG    1      -39.799  70.673  23.468  0.00  0.00    +0.033 A 
ATOM     35  C   LIG    1      -38.522  70.447  23.999  0.00  0.00    +0.047 A 
ATOM     36  C   LIG    1      -37.678  69.571  23.331  0.00  0.00    +0.043 A 
ATOM     37  N   LIG    1      -36.393  69.217  23.722  0.00  0.00    -0.281 N 
ATOM     38  H   LIG    1      -35.907  69.551  24.539  0.00  0.00    +0.155 HD
ATOM     39  C   LIG    1      -35.809  68.301  22.840  0.00  0.00    +0.249 C 
ATOM     40  O   LIG    1      -34.725  67.840  22.928  0.00  0.00    -0.270 OA
ATOM     41  C   LIG    1      -36.857  68.113  21.747  0.00  0.00    +0.048 C 
ATOM     42  C   LIG    1      -36.796  67.387  20.618  0.00  0.00    +0.039 C 
ATOM     43  C   LIG    1      -38.023  68.919  22.147  0.00  0.00    +0.008 A 
ATOM     44  C   LIG    1      -39.279  69.097  21.620  0.00  0.00    +0.012 A 
ATOM     45  C   LIG    1      -40.161  69.946  22.303  0.00  0.00    +0.024 A 
BRANCH  42  46
ATOM     46  C   LIG    1      -35.733  66.549  20.188  0.00  0.00    +0.040 A 
ATOM     47  N   LIG    1      -35.373  65.416  20.881  0.00  0.00    -0.361 N 
ATOM     48  H   LIG    1      -35.852  65.052  21.697  0.00  0.00    +0.165 HD
ATOM     49  C   LIG    1      -34.359  64.765  20.225  0.00  0.00    +0.083 A 
ATOM     50  C   LIG    1      -34.020  65.512  19.124  0.00  0.00    +0.019 A 
ATOM     51  C   LIG    1      -34.863  66.650  19.117  0.00  0.00    +0.027 A 
ENDBRANCH  42  46
ENDBRANCH  32  34
ENDBRANCH   3  32
TORSDOF 11
ENDMDL
MODEL 9
REMARK VINA RESULT:      -7.0     10.409     15.449
REMARK  Name = modded_pdb/CHEMBL2037213_nitrogen_modded_with_ethanol_version_1.pdb
REMARK                            x       y       z     vdW  Elec       q    Type
REMARK                         _______ _______ _______ _____ _____    ______ ____
ROOT
ATOM      1  C   LIG    1      -34.424  71.986  28.147  0.00  0.00    +0.038 A 
ATOM      2  C   LIG    1      -33.697  73.200  28.181  0.00  0.00    +0.046 A 
ATOM      3  C   LIG    1      -32.717  73.437  29.170  0.00  0.00    +0.033 A 
ATOM      4  C   LIG    1      -32.423  72.381  30.038  0.00  0.00    +0.023 A 
ATOM      5  C   LIG    1      -33.105  71.169  29.999  0.00  0.00    +0.004 A 
ATOM      6  C   LIG    1      -34.106  70.969  29.055  0.00  0.00    +0.023 A 
ENDROOT
BRANCH   1   8
ATOM      7  C   LIG    1      -36.735  72.101  27.257  0.00  0.00    +0.251 C 
ATOM      8  N   LIG    1      -35.355  71.725  27.073  0.00  0.00    -0.265 N 
ATOM      9  O   LIG    1      -37.134  72.479  28.369  0.00  0.00    -0.270 OA
BRANCH   7  14
ATOM     10  C   LIG    1      -39.008  70.943  24.233  0.00  0.00    +0.031 A 
ATOM     11  C   LIG    1      -39.637  72.113  23.943  0.00  0.00    +0.035 A 
ATOM     12  C   LIG    1      -39.400  73.285  24.723  0.00  0.00    +0.057 A 
ATOM     13  C   LIG    1      -38.480  73.316  25.814  0.00  0.00    +0.025 A 
ATOM     14  C   LIG    1      -37.838  72.145  26.179  0.00  0.00    +0.040 A 
ATOM     15  C   LIG    1      -38.227  71.057  25.374  0.00  0.00    +0.036 A 
BRANCH  10  19
ATOM     16  C   LIG    1      -38.428  68.061  21.654  0.00  0.00    +0.118 C 
ATOM     17  C   LIG    1      -37.610  68.186  22.942  0.00  0.00    +0.050 C 
ATOM     18  C   LIG    1      -38.492  68.498  24.143  0.00  0.00    +0.107 C 
ATOM     19  N   LIG    1      -39.332  69.665  23.817  0.00  0.00    -0.330 N 
ATOM     20  C   LIG    1      -40.285  69.381  22.758  0.00  0.00    +0.107 C 
ATOM     21  C   LIG    1      -39.495  69.147  21.481  0.00  0.00    +0.050 C 
BRANCH  16  22
ATOM     22  O   LIG    1      -39.044  66.772  21.626  0.00  0.00    -0.392 OA
ATOM     23  H   LIG    1      -40.006  66.916  21.572  0.00  0.00    +0.210 HD
ENDBRANCH  16  22
ENDBRANCH  10  19
BRANCH  12  24
ATOM     24  C   LIG    1      -40.175  74.488  24.292  0.00  0.00    +0.417 C 
ATOM     25  F   LIG    1      -41.050  74.904  25.249  0.00  0.00    -0.166 F 
ATOM     26  F   LIG    1      -40.928  74.215  23.192  0.00  0.00    -0.166 F 
ATOM     27  F   LIG    1      -39.410  75.566  23.980  0.00  0.00    -0.166 F 
ENDBRANCH  12  24
ENDBRANCH   7  14
BRANCH   8  28
ATOM     28  C   LIG    1      -34.638  71.052  25.955  0.00  0.00    +0.141 C 
BRANCH  28  29
ATOM     29  C   LIG    1      -34.960  69.628  25.813  0.00  0.00    +0.175 C 
BRANCH  29  30
ATOM     30  O   LIG    1      -34.534  68.876  24.716  0.00  0.00    -0.393 OA
ATOM     31  H   LIG    1      -33.559  68.888  24.759  0.00  0.00    +0.209 HD
ENDBRANCH  29  30
ENDBRANCH  28  29
ENDBRANCH   8  28
ENDBRANCH   1   8
BRANCH   3  32
ATOM     32  N   LIG    1      -32.116  74.712  29.329  0.00  0.00    -0.314 N 
ATOM     33  H   LIG    1      -31.252  74.690  29.860  0.00  0.00    +0.152 HD
BRANCH  32  34
ATOM     34  C   LIG    1      -32.639  76.017  29.121  0.00  0.00    +0.033 A 
ATOM     35  C   LIG    1      -33.502  76.577  30.073  0.00  0.00    +0.047 A 
ATOM     36  C   LIG    1      -34.070  77.813  29.798  0.00  0.00    +0.043 A 
ATOM     37  N   LIG    1      -34.929  78.520  30.631  0.00  0.00    -0.281 N 
ATOM     38  H   LIG    1      -35.252  78.227  31.538  0.00  0.00    +0.155 HD
ATOM     39  C   LIG    1      -35.316  79.741  30.070  0.00  0.00    +0.249 C 
ATOM     40  O   LIG    1      -36.044  80.534  30.556  0.00  0.00    -0.270 OA
ATOM     41  C   LIG    1      -34.644  79.755  28.700  0.00  0.00    +0.048 C 
ATOM     42  C   LIG    1      -34.726  80.665  27.714  0.00  0.00    +0.039 C 
ATOM     43  C   LIG    1      -33.846  78.520  28.617  0.00  0.00    +0.008 A 
ATOM     44  C   LIG    1      -32.980  78.011  27.680  0.00  0.00    +0.012 A 
ATOM     45  C   LIG    1      -32.363  76.782  27.958  0.00  0.00    +0.024 A 
BRANCH  42  46
ATOM     46  C   LIG    1      -35.430  81.897  27.736  0.00  0.00    +0.040 A 
ATOM     47  N   LIG    1      -35.062  82.933  28.563  0.00  0.00    -0.361 N 
ATOM     48  H   LIG    1      -34.248  82.938  29.168  0.00  0.00    +0.165 HD
ATOM     49  C   LIG    1      -35.871  84.020  28.348  0.00  0.00    +0.083 A 
ATOM     50  C   LIG    1      -36.811  83.667  27.409  0.00  0.00    +0.019 A 
ATOM     51  C   LIG    1      -36.553  82.322  27.046  0.00  0.00    +0.027 A 
ENDBRANCH  42  46
ENDBRANCH  32  34
ENDBRANCH   3  32
TORSDOF 11
ENDMDL
