MODEL 1
REMARK VINA RESULT:      -6.0      0.000      0.000
REMARK  Name = modded_pdb/CHEMBL1983268_nitrogen_modded_with_ethanol_version_2.pdb
REMARK                            x       y       z     vdW  Elec       q    Type
REMARK                         _______ _______ _______ _____ _____    ______ ____
ROOT
ATOM      1  C   LIG    1      -22.220  78.246  34.390  0.00  0.00    +0.032 A 
ATOM      2  C   LIG    1      -22.031  77.390  33.283  0.00  0.00    +0.047 A 
ATOM      3  C   LIG    1      -23.068  76.889  32.415  0.00  0.00    +0.044 A 
ATOM      4  C   LIG    1      -24.314  77.567  32.499  0.00  0.00    +0.058 A 
ATOM      5  C   LIG    1      -24.478  78.524  33.515  0.00  0.00    +0.017 A 
ATOM      6  C   LIG    1      -23.475  78.841  34.437  0.00  0.00    +0.024 A 
ENDROOT
BRANCH   1  11
ATOM      7  C   LIG    1      -20.249  81.538  37.001  0.00  0.00    +0.105 C 
ATOM      8  N   LIG    1      -19.651  80.229  37.268  0.00  0.00    -0.302 NA
ATOM      9  C   LIG    1      -19.052  79.636  36.059  0.00  0.00    +0.103 C 
ATOM     10  C   LIG    1      -20.050  79.279  34.936  0.00  0.00    +0.120 C 
ATOM     11  N   LIG    1      -21.227  78.483  35.383  0.00  0.00    -0.327 N 
ATOM     12  C   LIG    1      -21.740  78.841  36.739  0.00  0.00    +0.120 C 
ATOM     13  C   LIG    1      -20.649  79.263  37.760  0.00  0.00    +0.103 C 
ENDBRANCH   1  11
BRANCH   4  14
ATOM     14  C   LIG    1      -25.567  77.320  31.698  0.00  0.00    +0.251 C 
ATOM     15  N   LIG    1      -26.747  77.210  32.439  0.00  0.00    -0.264 N 
ATOM     16  H   LIG    1      -26.712  77.315  33.438  0.00  0.00    +0.157 HD
ATOM     17  O   LIG    1      -25.469  77.163  30.462  0.00  0.00    -0.270 OA
BRANCH  15  18
ATOM     18  C   LIG    1      -27.977  76.804  31.948  0.00  0.00    +0.155 A 
ATOM     19  C   LIG    1      -28.525  75.459  32.031  0.00  0.00    +0.042 A 
ATOM     20  C   LIG    1      -28.151  74.197  32.571  0.00  0.00    +0.017 A 
ATOM     21  C   LIG    1      -28.953  73.054  32.317  0.00  0.00    -0.042 A 
ATOM     22  C   LIG    1      -30.128  73.203  31.560  0.00  0.00    +0.006 A 
ATOM     23  C   LIG    1      -30.530  74.431  31.045  0.00  0.00    +0.028 A 
ATOM     24  C   LIG    1      -29.709  75.525  31.301  0.00  0.00    +0.068 A 
ATOM     25  N   LIG    1      -29.824  76.825  30.905  0.00  0.00    -0.275 N 
ATOM     26  H   LIG    1      -30.558  77.233  30.340  0.00  0.00    +0.189 HD
ATOM     27  N   LIG    1      -28.814  77.605  31.289  0.00  0.00    -0.157 NA
BRANCH  21  28
ATOM     28  C   LIG    1      -28.570  71.680  32.862  0.00  0.00    +0.070 C 
BRANCH  28  29
ATOM     29  C   LIG    1      -27.309  71.103  32.239  0.00  0.00    -0.038 A 
ATOM     30  C   LIG    1      -27.271  70.736  30.881  0.00  0.00    +0.042 A 
ATOM     31  C   LIG    1      -26.063  70.368  30.287  0.00  0.00    +0.126 A 
ATOM     32  F   LIG    1      -26.036  70.074  28.981  0.00  0.00    -0.205 F 
ATOM     33  C   LIG    1      -24.884  70.337  31.018  0.00  0.00    +0.076 A 
ATOM     34  C   LIG    1      -24.924  70.683  32.360  0.00  0.00    +0.126 A 
ATOM     35  F   LIG    1      -23.791  70.677  33.076  0.00  0.00    -0.205 F 
ATOM     36  C   LIG    1      -26.115  71.066  32.975  0.00  0.00    +0.042 A 
ENDBRANCH  28  29
ENDBRANCH  21  28
ENDBRANCH  15  18
ENDBRANCH   4  14
BRANCH   3  37
ATOM     37  N   LIG    1      -22.745  75.771  31.633  0.00  0.00    -0.324 N 
BRANCH  37  38
ATOM     38  C   LIG    1      -23.194  74.371  32.010  0.00  0.00    +0.078 C 
ATOM     39  C   LIG    1      -24.182  74.337  33.195  0.00  0.00    +0.050 C 
ATOM     40  C   LIG    1      -23.539  74.202  34.566  0.00  0.00    +0.161 C 
ATOM     41  O   LIG    1      -22.602  73.133  34.617  0.00  0.00    -0.380 OA
ATOM     42  C   LIG    1      -21.575  73.228  33.639  0.00  0.00    +0.161 C 
ATOM     43  C   LIG    1      -22.140  73.277  32.229  0.00  0.00    +0.050 C 
ENDBRANCH  37  38
BRANCH  37  44
ATOM     44  C   LIG    1      -22.220  75.901  30.242  0.00  0.00    +0.133 C 
BRANCH  44  45
ATOM     45  C   LIG    1      -22.080  77.334  29.715  0.00  0.00    +0.174 C 
BRANCH  45  46
ATOM     46  O   LIG    1      -23.142  77.688  28.831  0.00  0.00    -0.393 OA
ATOM     47  H   LIG    1      -23.077  77.093  28.064  0.00  0.00    +0.209 HD
ENDBRANCH  45  46
ENDBRANCH  44  45
ENDBRANCH  37  44
ENDBRANCH   3  37
TORSDOF 10
ENDMDL
MODEL 2
REMARK VINA RESULT:      -5.7      4.989     11.519
REMARK  Name = modded_pdb/CHEMBL1983268_nitrogen_modded_with_ethanol_version_2.pdb
REMARK                            x       y       z     vdW  Elec       q    Type
REMARK                         _______ _______ _______ _____ _____    ______ ____
ROOT
ATOM      1  C   LIG    1      -33.744  72.578  28.869  0.00  0.00    +0.032 A 
ATOM      2  C   LIG    1      -33.920  73.961  28.642  0.00  0.00    +0.047 A 
ATOM      3  C   LIG    1      -33.113  75.019  29.197  0.00  0.00    +0.044 A 
ATOM      4  C   LIG    1      -31.869  74.611  29.748  0.00  0.00    +0.058 A 
ATOM      5  C   LIG    1      -31.615  73.233  29.861  0.00  0.00    +0.017 A 
ATOM      6  C   LIG    1      -32.525  72.252  29.452  0.00  0.00    +0.024 A 
ENDROOT
BRANCH   1  11
ATOM      7  C   LIG    1      -36.277  70.820  25.400  0.00  0.00    +0.105 C 
ATOM      8  N   LIG    1      -36.559  70.128  26.659  0.00  0.00    -0.302 NA
ATOM      9  C   LIG    1      -37.064  71.045  27.695  0.00  0.00    +0.103 C 
ATOM     10  C   LIG    1      -36.062  72.120  28.170  0.00  0.00    +0.120 C 
ATOM     11  N   LIG    1      -34.720  71.594  28.545  0.00  0.00    -0.327 N 
ATOM     12  C   LIG    1      -34.240  70.460  27.700  0.00  0.00    +0.120 C 
ATOM     13  C   LIG    1      -35.352  69.491  27.215  0.00  0.00    +0.103 C 
ENDBRANCH   1  11
BRANCH   4  14
ATOM     14  C   LIG    1      -30.788  75.472  30.354  0.00  0.00    +0.251 C 
ATOM     15  N   LIG    1      -30.566  75.290  31.722  0.00  0.00    -0.264 N 
ATOM     16  H   LIG    1      -31.104  74.604  32.221  0.00  0.00    +0.157 HD
ATOM     17  O   LIG    1      -30.223  76.321  29.632  0.00  0.00    -0.270 OA
BRANCH  15  18
ATOM     18  C   LIG    1      -29.767  76.087  32.524  0.00  0.00    +0.155 A 
ATOM     19  C   LIG    1      -28.322  75.984  32.658  0.00  0.00    +0.042 A 
ATOM     20  C   LIG    1      -27.264  75.202  32.116  0.00  0.00    +0.017 A 
ATOM     21  C   LIG    1      -25.947  75.343  32.627  0.00  0.00    -0.042 A 
ATOM     22  C   LIG    1      -25.710  76.287  33.641  0.00  0.00    +0.006 A 
ATOM     23  C   LIG    1      -26.722  77.084  34.167  0.00  0.00    +0.028 A 
ATOM     24  C   LIG    1      -28.002  76.904  33.653  0.00  0.00    +0.068 A 
ATOM     25  N   LIG    1      -29.179  77.505  33.989  0.00  0.00    -0.275 N 
ATOM     26  H   LIG    1      -29.327  78.217  34.693  0.00  0.00    +0.189 HD
ATOM     27  N   LIG    1      -30.238  77.046  33.322  0.00  0.00    -0.157 NA
BRANCH  21  28
ATOM     28  C   LIG    1      -24.792  74.505  32.085  0.00  0.00    +0.070 C 
BRANCH  28  29
ATOM     29  C   LIG    1      -23.786  75.301  31.268  0.00  0.00    -0.038 A 
ATOM     30  C   LIG    1      -24.161  76.486  30.609  0.00  0.00    +0.042 A 
ATOM     31  C   LIG    1      -23.193  77.290  30.006  0.00  0.00    +0.126 A 
ATOM     32  F   LIG    1      -23.560  78.441  29.430  0.00  0.00    -0.205 F 
ATOM     33  C   LIG    1      -21.852  76.935  30.026  0.00  0.00    +0.076 A 
ATOM     34  C   LIG    1      -21.484  75.758  30.661  0.00  0.00    +0.126 A 
ATOM     35  F   LIG    1      -20.191  75.410  30.706  0.00  0.00    -0.205 F 
ATOM     36  C   LIG    1      -22.430  74.944  31.282  0.00  0.00    +0.042 A 
ENDBRANCH  28  29
ENDBRANCH  21  28
ENDBRANCH  15  18
ENDBRANCH   4  14
BRANCH   3  37
ATOM     37  N   LIG    1      -33.666  76.306  29.174  0.00  0.00    -0.324 N 
BRANCH  37  38
ATOM     38  C   LIG    1      -34.182  76.935  27.893  0.00  0.00    +0.078 C 
ATOM     39  C   LIG    1      -33.113  77.052  26.787  0.00  0.00    +0.050 C 
ATOM     40  C   LIG    1      -32.328  78.355  26.784  0.00  0.00    +0.161 C 
ATOM     41  O   LIG    1      -33.179  79.495  26.831  0.00  0.00    -0.380 OA
ATOM     42  C   LIG    1      -34.065  79.498  27.942  0.00  0.00    +0.161 C 
ATOM     43  C   LIG    1      -34.951  78.262  27.963  0.00  0.00    +0.050 C 
ENDBRANCH  37  38
BRANCH  37  44
ATOM     44  C   LIG    1      -34.069  77.020  30.422  0.00  0.00    +0.133 C 
BRANCH  44  45
ATOM     45  C   LIG    1      -34.315  76.130  31.646  0.00  0.00    +0.174 C 
BRANCH  45  46
ATOM     46  O   LIG    1      -33.312  76.303  32.646  0.00  0.00    -0.393 OA
ATOM     47  H   LIG    1      -33.647  76.975  33.264  0.00  0.00    +0.209 HD
ENDBRANCH  45  46
ENDBRANCH  44  45
ENDBRANCH  37  44
ENDBRANCH   3  37
TORSDOF 10
ENDMDL
MODEL 3
REMARK VINA RESULT:      -5.7     18.041     21.415
REMARK  Name = modded_pdb/CHEMBL1983268_nitrogen_modded_with_ethanol_version_2.pdb
REMARK                            x       y       z     vdW  Elec       q    Type
REMARK                         _______ _______ _______ _____ _____    ______ ____
ROOT
ATOM      1  C   LIG    1      -21.041  86.225  13.124  0.00  0.00    +0.032 A 
ATOM      2  C   LIG    1      -21.945  85.249  13.599  0.00  0.00    +0.047 A 
ATOM      3  C   LIG    1      -21.671  83.840  13.744  0.00  0.00    +0.044 A 
ATOM      4  C   LIG    1      -20.296  83.481  13.706  0.00  0.00    +0.058 A 
ATOM      5  C   LIG    1      -19.362  84.474  13.365  0.00  0.00    +0.017 A 
ATOM      6  C   LIG    1      -19.722  85.793  13.069  0.00  0.00    +0.024 A 
ENDROOT
BRANCH   1  11
ATOM      7  C   LIG    1      -23.290  88.628   9.852  0.00  0.00    +0.105 C 
ATOM      8  N   LIG    1      -22.764  89.518  10.889  0.00  0.00    -0.302 NA
ATOM      9  C   LIG    1      -21.299  89.422  11.011  0.00  0.00    +0.103 C 
ATOM     10  C   LIG    1      -20.767  88.057  11.499  0.00  0.00    +0.120 C 
ATOM     11  N   LIG    1      -21.431  87.535  12.726  0.00  0.00    -0.327 N 
ATOM     12  C   LIG    1      -22.892  87.831  12.814  0.00  0.00    +0.120 C 
ATOM     13  C   LIG    1      -23.319  89.199  12.216  0.00  0.00    +0.103 C 
ENDBRANCH   1  11
BRANCH   4  14
ATOM     14  C   LIG    1      -19.684  82.113  13.876  0.00  0.00    +0.251 C 
ATOM     15  N   LIG    1      -19.397  81.737  15.191  0.00  0.00    -0.264 N 
ATOM     16  H   LIG    1      -19.622  82.365  15.942  0.00  0.00    +0.157 HD
ATOM     17  O   LIG    1      -19.411  81.448  12.854  0.00  0.00    -0.270 OA
BRANCH  15  18
ATOM     18  C   LIG    1      -18.672  80.622  15.574  0.00  0.00    +0.155 A 
ATOM     19  C   LIG    1      -19.139  79.245  15.530  0.00  0.00    +0.042 A 
ATOM     20  C   LIG    1      -20.305  78.538  15.125  0.00  0.00    +0.017 A 
ATOM     21  C   LIG    1      -20.408  77.144  15.373  0.00  0.00    -0.042 A 
ATOM     22  C   LIG    1      -19.331  76.482  15.985  0.00  0.00    +0.006 A 
ATOM     23  C   LIG    1      -18.168  77.145  16.364  0.00  0.00    +0.028 A 
ATOM     24  C   LIG    1      -18.111  78.514  16.120  0.00  0.00    +0.068 A 
ATOM     25  N   LIG    1      -17.134  79.421  16.406  0.00  0.00    -0.275 N 
ATOM     26  H   LIG    1      -16.245  79.245  16.858  0.00  0.00    +0.189 HD
ATOM     27  N   LIG    1      -17.439  80.676  16.079  0.00  0.00    -0.157 NA
BRANCH  21  28
ATOM     28  C   LIG    1      -21.654  76.358  14.973  0.00  0.00    +0.070 C 
BRANCH  28  29
ATOM     29  C   LIG    1      -22.788  77.228  14.452  0.00  0.00    -0.038 A 
ATOM     30  C   LIG    1      -23.706  77.830  15.331  0.00  0.00    +0.042 A 
ATOM     31  C   LIG    1      -24.632  78.756  14.852  0.00  0.00    +0.126 A 
ATOM     32  F   LIG    1      -25.463  79.360  15.712  0.00  0.00    -0.205 F 
ATOM     33  C   LIG    1      -24.683  79.090  13.506  0.00  0.00    +0.076 A 
ATOM     34  C   LIG    1      -23.789  78.484  12.636  0.00  0.00    +0.126 A 
ATOM     35  F   LIG    1      -23.813  78.809  11.336  0.00  0.00    -0.205 F 
ATOM     36  C   LIG    1      -22.845  77.564  13.091  0.00  0.00    +0.042 A 
ENDBRANCH  28  29
ENDBRANCH  21  28
ENDBRANCH  15  18
ENDBRANCH   4  14
BRANCH   3  37
ATOM     37  N   LIG    1      -22.781  82.993  13.854  0.00  0.00    -0.324 N 
BRANCH  37  38
ATOM     38  C   LIG    1      -23.484  82.429  12.633  0.00  0.00    +0.078 C 
ATOM     39  C   LIG    1      -22.540  82.167  11.442  0.00  0.00    +0.050 C 
ATOM     40  C   LIG    1      -22.385  83.329  10.474  0.00  0.00    +0.161 C 
ATOM     41  O   LIG    1      -23.642  83.852  10.058  0.00  0.00    -0.380 OA
ATOM     42  C   LIG    1      -24.473  84.262  11.136  0.00  0.00    +0.161 C 
ATOM     43  C   LIG    1      -24.747  83.123  12.104  0.00  0.00    +0.050 C 
ENDBRANCH  37  38
BRANCH  37  44
ATOM     44  C   LIG    1      -23.158  82.342  15.143  0.00  0.00    +0.133 C 
BRANCH  44  45
ATOM     45  C   LIG    1      -22.802  83.126  16.412  0.00  0.00    +0.174 C 
BRANCH  45  46
ATOM     46  O   LIG    1      -21.656  82.589  17.071  0.00  0.00    -0.393 OA
ATOM     47  H   LIG    1      -20.974  82.465  16.388  0.00  0.00    +0.209 HD
ENDBRANCH  45  46
ENDBRANCH  44  45
ENDBRANCH  37  44
ENDBRANCH   3  37
TORSDOF 10
ENDMDL
MODEL 4
REMARK VINA RESULT:      -5.7     12.606     18.660
REMARK  Name = modded_pdb/CHEMBL1983268_nitrogen_modded_with_ethanol_version_2.pdb
REMARK                            x       y       z     vdW  Elec       q    Type
REMARK                         _______ _______ _______ _____ _____    ______ ____
ROOT
ATOM      1  C   LIG    1      -40.750  73.183  24.022  0.00  0.00    +0.032 A 
ATOM      2  C   LIG    1      -40.952  74.577  24.124  0.00  0.00    +0.047 A 
ATOM      3  C   LIG    1      -40.017  75.530  24.670  0.00  0.00    +0.044 A 
ATOM      4  C   LIG    1      -38.684  75.061  24.814  0.00  0.00    +0.058 A 
ATOM      5  C   LIG    1      -38.434  73.697  24.586  0.00  0.00    +0.017 A 
ATOM      6  C   LIG    1      -39.432  72.787  24.219  0.00  0.00    +0.024 A 
ENDROOT
BRANCH   1  11
ATOM      7  C   LIG    1      -42.425  70.269  20.822  0.00  0.00    +0.105 C 
ATOM      8  N   LIG    1      -43.255  70.258  22.028  0.00  0.00    -0.302 NA
ATOM      9  C   LIG    1      -43.809  71.588  22.333  0.00  0.00    +0.103 C 
ATOM     10  C   LIG    1      -42.767  72.666  22.704  0.00  0.00    +0.120 C 
ATOM     11  N   LIG    1      -41.792  72.251  23.751  0.00  0.00    -0.327 N 
ATOM     12  C   LIG    1      -41.377  70.818  23.679  0.00  0.00    +0.120 C 
ATOM     13  C   LIG    1      -42.489  69.839  23.215  0.00  0.00    +0.103 C 
ENDBRANCH   1  11
BRANCH   4  14
ATOM     14  C   LIG    1      -37.475  75.819  25.303  0.00  0.00    +0.251 C 
ATOM     15  N   LIG    1      -36.968  75.415  26.542  0.00  0.00    -0.264 N 
ATOM     16  H   LIG    1      -37.404  74.652  27.026  0.00  0.00    +0.157 HD
ATOM     17  O   LIG    1      -37.056  76.781  24.624  0.00  0.00    -0.270 OA
BRANCH  15  18
ATOM     18  C   LIG    1      -35.993  76.075  27.270  0.00  0.00    +0.155 A 
ATOM     19  C   LIG    1      -36.067  77.448  27.744  0.00  0.00    +0.042 A 
ATOM     20  C   LIG    1      -36.995  78.527  27.717  0.00  0.00    +0.017 A 
ATOM     21  C   LIG    1      -36.613  79.801  28.213  0.00  0.00    -0.042 A 
ATOM     22  C   LIG    1      -35.327  79.960  28.757  0.00  0.00    +0.006 A 
ATOM     23  C   LIG    1      -34.412  78.914  28.821  0.00  0.00    +0.028 A 
ATOM     24  C   LIG    1      -34.817  77.685  28.310  0.00  0.00    +0.068 A 
ATOM     25  N   LIG    1      -34.138  76.507  28.205  0.00  0.00    -0.275 N 
ATOM     26  H   LIG    1      -33.188  76.316  28.499  0.00  0.00    +0.189 HD
ATOM     27  N   LIG    1      -34.821  75.533  27.604  0.00  0.00    -0.157 NA
BRANCH  21  28
ATOM     28  C   LIG    1      -37.574  80.986  28.179  0.00  0.00    +0.070 C 
BRANCH  28  29
ATOM     29  C   LIG    1      -37.522  81.782  26.884  0.00  0.00    -0.038 A 
ATOM     30  C   LIG    1      -38.602  81.776  25.983  0.00  0.00    +0.042 A 
ATOM     31  C   LIG    1      -38.606  82.641  24.888  0.00  0.00    +0.126 A 
ATOM     32  F   LIG    1      -39.667  82.660  24.071  0.00  0.00    -0.205 F 
ATOM     33  C   LIG    1      -37.547  83.506  24.652  0.00  0.00    +0.076 A 
ATOM     34  C   LIG    1      -36.475  83.499  25.531  0.00  0.00    +0.126 A 
ATOM     35  F   LIG    1      -35.452  84.341  25.328  0.00  0.00    -0.205 F 
ATOM     36  C   LIG    1      -36.451  82.654  26.640  0.00  0.00    +0.042 A 
ENDBRANCH  28  29
ENDBRANCH  21  28
ENDBRANCH  15  18
ENDBRANCH   4  14
BRANCH   3  37
ATOM     37  N   LIG    1      -40.537  76.778  25.037  0.00  0.00    -0.324 N 
BRANCH  37  38
ATOM     38  C   LIG    1      -40.408  77.317  26.450  0.00  0.00    +0.078 C 
ATOM     39  C   LIG    1      -40.548  76.235  27.540  0.00  0.00    +0.050 C 
ATOM     40  C   LIG    1      -41.963  76.012  28.050  0.00  0.00    +0.161 C 
ATOM     41  O   LIG    1      -42.599  77.231  28.418  0.00  0.00    -0.380 OA
ATOM     42  C   LIG    1      -42.636  78.192  27.373  0.00  0.00    +0.161 C 
ATOM     43  C   LIG    1      -41.243  78.535  26.869  0.00  0.00    +0.050 C 
ENDBRANCH  37  38
BRANCH  37  44
ATOM     44  C   LIG    1      -40.969  77.787  24.025  0.00  0.00    +0.133 C 
BRANCH  44  45
ATOM     45  C   LIG    1      -39.967  78.911  23.738  0.00  0.00    +0.174 C 
BRANCH  45  46
ATOM     46  O   LIG    1      -38.741  78.415  23.203  0.00  0.00    -0.393 OA
ATOM     47  H   LIG    1      -38.807  78.492  22.236  0.00  0.00    +0.209 HD
ENDBRANCH  45  46
ENDBRANCH  44  45
ENDBRANCH  37  44
ENDBRANCH   3  37
TORSDOF 10
ENDMDL
MODEL 5
REMARK VINA RESULT:      -5.7     16.041     19.445
REMARK  Name = modded_pdb/CHEMBL1983268_nitrogen_modded_with_ethanol_version_2.pdb
REMARK                            x       y       z     vdW  Elec       q    Type
REMARK                         _______ _______ _______ _____ _____    ______ ____
ROOT
ATOM      1  C   LIG    1      -20.313  84.595  13.557  0.00  0.00    +0.032 A 
ATOM      2  C   LIG    1      -21.284  83.720  14.093  0.00  0.00    +0.047 A 
ATOM      3  C   LIG    1      -21.155  82.289  14.221  0.00  0.00    +0.044 A 
ATOM      4  C   LIG    1      -19.834  81.783  14.091  0.00  0.00    +0.058 A 
ATOM      5  C   LIG    1      -18.822  82.671  13.687  0.00  0.00    +0.017 A 
ATOM      6  C   LIG    1      -19.055  84.023  13.414  0.00  0.00    +0.024 A 
ENDROOT
BRANCH   1  11
ATOM      7  C   LIG    1      -22.499  88.473  14.867  0.00  0.00    +0.105 C 
ATOM      8  N   LIG    1      -21.815  88.663  13.586  0.00  0.00    -0.302 NA
ATOM      9  C   LIG    1      -22.297  87.728  12.556  0.00  0.00    +0.103 C 
ATOM     10  C   LIG    1      -22.000  86.237  12.829  0.00  0.00    +0.120 C 
ATOM     11  N   LIG    1      -20.583  85.942  13.184  0.00  0.00    -0.327 N 
ATOM     12  C   LIG    1      -19.922  86.990  14.017  0.00  0.00    +0.120 C 
ATOM     13  C   LIG    1      -20.362  88.446  13.706  0.00  0.00    +0.103 C 
ENDBRANCH   1  11
BRANCH   4  14
ATOM     14  C   LIG    1      -19.364  80.356  14.221  0.00  0.00    +0.251 C 
ATOM     15  N   LIG    1      -18.978  79.960  15.505  0.00  0.00    -0.264 N 
ATOM     16  H   LIG    1      -19.047  80.615  16.263  0.00  0.00    +0.157 HD
ATOM     17  O   LIG    1      -19.281  79.655  13.189  0.00  0.00    -0.270 OA
BRANCH  15  18
ATOM     18  C   LIG    1      -18.345  78.772  15.829  0.00  0.00    +0.155 A 
ATOM     19  C   LIG    1      -18.960  77.454  15.841  0.00  0.00    +0.042 A 
ATOM     20  C   LIG    1      -20.228  76.878  15.553  0.00  0.00    +0.017 A 
ATOM     21  C   LIG    1      -20.458  75.503  15.821  0.00  0.00    -0.042 A 
ATOM     22  C   LIG    1      -19.406  74.727  16.338  0.00  0.00    +0.006 A 
ATOM     23  C   LIG    1      -18.148  75.261  16.601  0.00  0.00    +0.028 A 
ATOM     24  C   LIG    1      -17.967  76.616  16.340  0.00  0.00    +0.068 A 
ATOM     25  N   LIG    1      -16.875  77.411  16.527  0.00  0.00    -0.275 N 
ATOM     26  H   LIG    1      -15.972  77.139  16.896  0.00  0.00    +0.189 HD
ATOM     27  N   LIG    1      -17.072  78.692  16.218  0.00  0.00    -0.157 NA
BRANCH  21  28
ATOM     28  C   LIG    1      -21.813  74.857  15.546  0.00  0.00    +0.070 C 
BRANCH  28  29
ATOM     29  C   LIG    1      -22.097  73.636  16.408  0.00  0.00    -0.038 A 
ATOM     30  C   LIG    1      -22.434  73.769  17.768  0.00  0.00    +0.042 A 
ATOM     31  C   LIG    1      -22.855  72.657  18.498  0.00  0.00    +0.126 A 
ATOM     32  F   LIG    1      -23.223  72.812  19.776  0.00  0.00    -0.205 F 
ATOM     33  C   LIG    1      -22.934  71.402  17.913  0.00  0.00    +0.076 A 
ATOM     34  C   LIG    1      -22.586  71.267  16.577  0.00  0.00    +0.126 A 
ATOM     35  F   LIG    1      -22.674  70.066  15.991  0.00  0.00    -0.205 F 
ATOM     36  C   LIG    1      -22.174  72.364  15.821  0.00  0.00    +0.042 A 
ENDBRANCH  28  29
ENDBRANCH  21  28
ENDBRANCH  15  18
ENDBRANCH   4  14
BRANCH   3  37
ATOM     37  N   LIG    1      -22.341  81.568  14.406  0.00  0.00    -0.324 N 
BRANCH  37  38
ATOM     38  C   LIG    1      -22.698  80.373  13.540  0.00  0.00    +0.078 C 
ATOM     39  C   LIG    1      -23.850  80.648  12.553  0.00  0.00    +0.050 C 
ATOM     40  C   LIG    1      -25.241  80.331  13.080  0.00  0.00    +0.161 C 
ATOM     41  O   LIG    1      -25.317  79.027  13.645  0.00  0.00    -0.380 OA
ATOM     42  C   LIG    1      -24.372  78.799  14.681  0.00  0.00    +0.161 C 
ATOM     43  C   LIG    1      -22.944  79.011  14.202  0.00  0.00    +0.050 C 
ENDBRANCH  37  38
BRANCH  37  44
ATOM     44  C   LIG    1      -23.175  81.713  15.636  0.00  0.00    +0.133 C 
BRANCH  44  45
ATOM     45  C   LIG    1      -22.401  81.834  16.953  0.00  0.00    +0.174 C 
BRANCH  45  46
ATOM     46  O   LIG    1      -22.437  83.161  17.478  0.00  0.00    -0.393 OA
ATOM     47  H   LIG    1      -21.537  83.363  17.788  0.00  0.00    +0.209 HD
ENDBRANCH  45  46
ENDBRANCH  44  45
ENDBRANCH  37  44
ENDBRANCH   3  37
TORSDOF 10
ENDMDL
MODEL 6
REMARK VINA RESULT:      -5.6     19.905     23.578
REMARK  Name = modded_pdb/CHEMBL1983268_nitrogen_modded_with_ethanol_version_2.pdb
REMARK                            x       y       z     vdW  Elec       q    Type
REMARK                         _______ _______ _______ _____ _____    ______ ____
ROOT
ATOM      1  C   LIG    1      -21.542  89.140  10.613  0.00  0.00    +0.032 A 
ATOM      2  C   LIG    1      -22.178  88.426  11.652  0.00  0.00    +0.047 A 
ATOM      3  C   LIG    1      -21.620  87.310  12.376  0.00  0.00    +0.044 A 
ATOM      4  C   LIG    1      -20.216  87.137  12.241  0.00  0.00    +0.058 A 
ATOM      5  C   LIG    1      -19.539  87.936  11.304  0.00  0.00    +0.017 A 
ATOM      6  C   LIG    1      -20.179  88.891  10.507  0.00  0.00    +0.024 A 
ENDROOT
BRANCH   1  11
ATOM      7  C   LIG    1      -20.967  92.786   7.799  0.00  0.00    +0.105 C 
ATOM      8  N   LIG    1      -22.368  92.362   7.829  0.00  0.00    -0.302 NA
ATOM      9  C   LIG    1      -22.937  92.422   9.186  0.00  0.00    +0.103 C 
ATOM     10  C   LIG    1      -22.314  91.446  10.206  0.00  0.00    +0.120 C 
ATOM     11  N   LIG    1      -22.222  90.034   9.738  0.00  0.00    -0.327 N 
ATOM     12  C   LIG    1      -21.911  89.882   8.285  0.00  0.00    +0.120 C 
ATOM     13  C   LIG    1      -22.527  90.971   7.368  0.00  0.00    +0.103 C 
ENDBRANCH   1  11
BRANCH   4  14
ATOM     14  C   LIG    1      -19.334  86.108  12.901  0.00  0.00    +0.251 C 
ATOM     15  N   LIG    1      -19.318  84.847  12.296  0.00  0.00    -0.264 N 
ATOM     16  H   LIG    1      -19.861  84.694  11.466  0.00  0.00    +0.157 HD
ATOM     17  O   LIG    1      -18.743  86.413  13.959  0.00  0.00    -0.270 OA
BRANCH  15  18
ATOM     18  C   LIG    1      -18.738  83.705  12.822  0.00  0.00    +0.155 A 
ATOM     19  C   LIG    1      -19.324  82.840  13.833  0.00  0.00    +0.042 A 
ATOM     20  C   LIG    1      -20.532  82.756  14.580  0.00  0.00    +0.017 A 
ATOM     21  C   LIG    1      -20.665  81.780  15.602  0.00  0.00    -0.042 A 
ATOM     22  C   LIG    1      -19.604  80.887  15.831  0.00  0.00    +0.006 A 
ATOM     23  C   LIG    1      -18.425  80.930  15.095  0.00  0.00    +0.028 A 
ATOM     24  C   LIG    1      -18.325  81.911  14.113  0.00  0.00    +0.068 A 
ATOM     25  N   LIG    1      -17.297  82.214  13.270  0.00  0.00    -0.275 N 
ATOM     26  H   LIG    1      -16.397  81.755  13.209  0.00  0.00    +0.189 HD
ATOM     27  N   LIG    1      -17.524  83.267  12.485  0.00  0.00    -0.157 NA
BRANCH  21  28
ATOM     28  C   LIG    1      -21.938  81.676  16.439  0.00  0.00    +0.070 C 
BRANCH  28  29
ATOM     29  C   LIG    1      -23.157  81.227  15.648  0.00  0.00    -0.038 A 
ATOM     30  C   LIG    1      -23.745  82.063  14.682  0.00  0.00    +0.042 A 
ATOM     31  C   LIG    1      -24.753  81.573  13.851  0.00  0.00    +0.126 A 
ATOM     32  F   LIG    1      -25.264  82.367  12.901  0.00  0.00    -0.205 F 
ATOM     33  C   LIG    1      -25.209  80.268  13.967  0.00  0.00    +0.076 A 
ATOM     34  C   LIG    1      -24.641  79.449  14.931  0.00  0.00    +0.126 A 
ATOM     35  F   LIG    1      -25.057  78.180  15.045  0.00  0.00    -0.205 F 
ATOM     36  C   LIG    1      -23.624  79.909  15.766  0.00  0.00    +0.042 A 
ENDBRANCH  28  29
ENDBRANCH  21  28
ENDBRANCH  15  18
ENDBRANCH   4  14
BRANCH   3  37
ATOM     37  N   LIG    1      -22.524  86.505  13.080  0.00  0.00    -0.324 N 
BRANCH  37  38
ATOM     38  C   LIG    1      -23.300  85.389  12.405  0.00  0.00    +0.078 C 
ATOM     39  C   LIG    1      -22.487  84.629  11.337  0.00  0.00    +0.050 C 
ATOM     40  C   LIG    1      -22.597  85.186   9.926  0.00  0.00    +0.161 C 
ATOM     41  O   LIG    1      -23.950  85.384   9.531  0.00  0.00    -0.380 OA
ATOM     42  C   LIG    1      -24.683  86.224  10.412  0.00  0.00    +0.161 C 
ATOM     43  C   LIG    1      -24.694  85.682  11.832  0.00  0.00    +0.050 C 
ENDBRANCH  37  38
BRANCH  37  44
ATOM     44  C   LIG    1      -22.562  86.472  14.572  0.00  0.00    +0.133 C 
BRANCH  44  45
ATOM     45  C   LIG    1      -22.064  87.739  15.278  0.00  0.00    +0.174 C 
BRANCH  45  46
ATOM     46  O   LIG    1      -21.470  87.451  16.543  0.00  0.00    -0.393 OA
ATOM     47  H   LIG    1      -21.039  88.271  16.841  0.00  0.00    +0.209 HD
ENDBRANCH  45  46
ENDBRANCH  44  45
ENDBRANCH  37  44
ENDBRANCH   3  37
TORSDOF 10
ENDMDL
MODEL 7
REMARK VINA RESULT:      -5.6     10.410     16.493
REMARK  Name = modded_pdb/CHEMBL1983268_nitrogen_modded_with_ethanol_version_2.pdb
REMARK                            x       y       z     vdW  Elec       q    Type
REMARK                         _______ _______ _______ _____ _____    ______ ____
ROOT
ATOM      1  C   LIG    1      -40.933  73.074  23.956  0.00  0.00    +0.032 A 
ATOM      2  C   LIG    1      -39.868  72.504  24.689  0.00  0.00    +0.047 A 
ATOM      3  C   LIG    1      -38.622  73.152  25.013  0.00  0.00    +0.044 A 
ATOM      4  C   LIG    1      -38.611  74.564  24.855  0.00  0.00    +0.058 A 
ATOM      5  C   LIG    1      -39.724  75.170  24.248  0.00  0.00    +0.017 A 
ATOM      6  C   LIG    1      -40.837  74.451  23.799  0.00  0.00    +0.024 A 
ENDROOT
BRANCH   1  11
ATOM      7  C   LIG    1      -42.625  71.250  20.039  0.00  0.00    +0.105 C 
ATOM      8  N   LIG    1      -43.506  70.966  21.173  0.00  0.00    -0.302 NA
ATOM      9  C   LIG    1      -43.998  72.196  21.814  0.00  0.00    +0.103 C 
ATOM     10  C   LIG    1      -42.917  73.064  22.493  0.00  0.00    +0.120 C 
ATOM     11  N   LIG    1      -42.011  72.320  23.413  0.00  0.00    -0.327 N 
ATOM     12  C   LIG    1      -41.673  70.936  22.964  0.00  0.00    +0.120 C 
ATOM     13  C   LIG    1      -42.815  70.193  22.221  0.00  0.00    +0.103 C 
ENDBRANCH   1  11
BRANCH   4  14
ATOM     14  C   LIG    1      -37.491  75.529  25.154  0.00  0.00    +0.251 C 
ATOM     15  N   LIG    1      -36.964  75.462  26.447  0.00  0.00    -0.264 N 
ATOM     16  H   LIG    1      -37.328  74.784  27.092  0.00  0.00    +0.157 HD
ATOM     17  O   LIG    1      -37.160  76.355  24.277  0.00  0.00    -0.270 OA
BRANCH  15  18
ATOM     18  C   LIG    1      -36.070  76.361  27.004  0.00  0.00    +0.155 A 
ATOM     19  C   LIG    1      -34.831  76.019  27.686  0.00  0.00    +0.042 A 
ATOM     20  C   LIG    1      -34.091  74.848  28.006  0.00  0.00    +0.017 A 
ATOM     21  C   LIG    1      -32.936  74.943  28.828  0.00  0.00    -0.042 A 
ATOM     22  C   LIG    1      -32.529  76.210  29.280  0.00  0.00    +0.006 A 
ATOM     23  C   LIG    1      -33.219  77.373  28.957  0.00  0.00    +0.028 A 
ATOM     24  C   LIG    1      -34.355  77.237  28.164  0.00  0.00    +0.068 A 
ATOM     25  N   LIG    1      -35.238  78.176  27.721  0.00  0.00    -0.275 N 
ATOM     26  H   LIG    1      -35.215  79.173  27.895  0.00  0.00    +0.189 HD
ATOM     27  N   LIG    1      -36.257  77.681  27.019  0.00  0.00    -0.157 NA
BRANCH  21  28
ATOM     28  C   LIG    1      -32.131  73.705  29.211  0.00  0.00    +0.070 C 
BRANCH  28  29
ATOM     29  C   LIG    1      -32.938  72.655  29.958  0.00  0.00    -0.038 A 
ATOM     30  C   LIG    1      -33.802  73.014  31.009  0.00  0.00    +0.042 A 
ATOM     31  C   LIG    1      -34.658  72.065  31.568  0.00  0.00    +0.126 A 
ATOM     32  F   LIG    1      -35.512  72.436  32.531  0.00  0.00    -0.205 F 
ATOM     33  C   LIG    1      -34.665  70.752  31.121  0.00  0.00    +0.076 A 
ATOM     34  C   LIG    1      -33.801  70.393  30.096  0.00  0.00    +0.126 A 
ATOM     35  F   LIG    1      -33.809  69.134  29.639  0.00  0.00    -0.205 F 
ATOM     36  C   LIG    1      -32.945  71.325  29.511  0.00  0.00    +0.042 A 
ENDBRANCH  28  29
ENDBRANCH  21  28
ENDBRANCH  15  18
ENDBRANCH   4  14
BRANCH   3  37
ATOM     37  N   LIG    1      -37.563  72.319  25.395  0.00  0.00    -0.324 N 
BRANCH  37  38
ATOM     38  C   LIG    1      -37.276  72.001  26.851  0.00  0.00    +0.078 C 
ATOM     39  C   LIG    1      -35.828  71.534  27.108  0.00  0.00    +0.050 C 
ATOM     40  C   LIG    1      -35.611  70.031  27.023  0.00  0.00    +0.161 C 
ATOM     41  O   LIG    1      -36.556  69.307  27.804  0.00  0.00    -0.380 OA
ATOM     42  C   LIG    1      -37.908  69.593  27.472  0.00  0.00    +0.161 C 
ATOM     43  C   LIG    1      -38.226  71.073  27.619  0.00  0.00    +0.050 C 
ENDBRANCH  37  38
BRANCH  37  44
ATOM     44  C   LIG    1      -36.846  71.448  24.416  0.00  0.00    +0.133 C 
BRANCH  44  45
ATOM     45  C   LIG    1      -37.630  70.232  23.911  0.00  0.00    +0.174 C 
BRANCH  45  46
ATOM     46  O   LIG    1      -37.017  69.633  22.769  0.00  0.00    -0.393 OA
ATOM     47  H   LIG    1      -36.203  69.202  23.084  0.00  0.00    +0.209 HD
ENDBRANCH  45  46
ENDBRANCH  44  45
ENDBRANCH  37  44
ENDBRANCH   3  37
TORSDOF 10
ENDMDL
MODEL 8
REMARK VINA RESULT:      -5.5      4.451      8.764
REMARK  Name = modded_pdb/CHEMBL1983268_nitrogen_modded_with_ethanol_version_2.pdb
REMARK                            x       y       z     vdW  Elec       q    Type
REMARK                         _______ _______ _______ _____ _____    ______ ____
ROOT
ATOM      1  C   LIG    1      -24.216  80.957  36.261  0.00  0.00    +0.032 A 
ATOM      2  C   LIG    1      -23.051  81.186  37.027  0.00  0.00    +0.047 A 
ATOM      3  C   LIG    1      -21.792  80.499  36.877  0.00  0.00    +0.044 A 
ATOM      4  C   LIG    1      -21.634  79.774  35.665  0.00  0.00    +0.058 A 
ATOM      5  C   LIG    1      -22.749  79.647  34.820  0.00  0.00    +0.017 A 
ATOM      6  C   LIG    1      -23.999  80.203  35.114  0.00  0.00    +0.024 A 
ENDROOT
BRANCH   1  11
ATOM      7  C   LIG    1      -26.774  82.505  39.811  0.00  0.00    +0.105 C 
ATOM      8  N   LIG    1      -27.551  82.491  38.570  0.00  0.00    -0.302 NA
ATOM      9  C   LIG    1      -27.642  81.141  37.988  0.00  0.00    +0.103 C 
ATOM     10  C   LIG    1      -26.304  80.541  37.503  0.00  0.00    +0.120 C 
ATOM     11  N   LIG    1      -25.505  81.440  36.622  0.00  0.00    -0.327 N 
ATOM     12  C   LIG    1      -25.577  82.887  36.984  0.00  0.00    +0.120 C 
ATOM     13  C   LIG    1      -26.950  83.354  37.538  0.00  0.00    +0.103 C 
ENDBRANCH   1  11
BRANCH   4  14
ATOM     14  C   LIG    1      -20.430  78.999  35.191  0.00  0.00    +0.251 C 
ATOM     15  N   LIG    1      -19.819  79.481  34.029  0.00  0.00    -0.264 N 
ATOM     16  H   LIG    1      -20.186  80.305  33.587  0.00  0.00    +0.157 HD
ATOM     17  O   LIG    1      -20.103  77.962  35.806  0.00  0.00    -0.270 OA
BRANCH  15  18
ATOM     18  C   LIG    1      -18.828  78.836  33.309  0.00  0.00    +0.155 A 
ATOM     19  C   LIG    1      -19.015  78.112  32.062  0.00  0.00    +0.042 A 
ATOM     20  C   LIG    1      -20.075  77.814  31.162  0.00  0.00    +0.017 A 
ATOM     21  C   LIG    1      -19.851  76.932  30.072  0.00  0.00    -0.042 A 
ATOM     22  C   LIG    1      -18.565  76.398  29.884  0.00  0.00    +0.006 A 
ATOM     23  C   LIG    1      -17.504  76.697  30.733  0.00  0.00    +0.028 A 
ATOM     24  C   LIG    1      -17.767  77.551  31.800  0.00  0.00    +0.068 A 
ATOM     25  N   LIG    1      -16.950  77.991  32.799  0.00  0.00    -0.275 N 
ATOM     26  H   LIG    1      -15.973  77.766  32.938  0.00  0.00    +0.189 HD
ATOM     27  N   LIG    1      -17.554  78.766  33.699  0.00  0.00    -0.157 NA
BRANCH  21  28
ATOM     28  C   LIG    1      -20.972  76.572  29.101  0.00  0.00    +0.070 C 
BRANCH  28  29
ATOM     29  C   LIG    1      -22.349  76.520  29.745  0.00  0.00    -0.038 A 
ATOM     30  C   LIG    1      -22.718  75.454  30.585  0.00  0.00    +0.042 A 
ATOM     31  C   LIG    1      -23.916  75.506  31.299  0.00  0.00    +0.126 A 
ATOM     32  F   LIG    1      -24.226  74.507  32.135  0.00  0.00    -0.205 F 
ATOM     33  C   LIG    1      -24.774  76.591  31.184  0.00  0.00    +0.076 A 
ATOM     34  C   LIG    1      -24.418  77.634  30.343  0.00  0.00    +0.126 A 
ATOM     35  F   LIG    1      -25.225  78.698  30.234  0.00  0.00    -0.205 F 
ATOM     36  C   LIG    1      -23.221  77.613  29.628  0.00  0.00    +0.042 A 
ENDBRANCH  28  29
ENDBRANCH  21  28
ENDBRANCH  15  18
ENDBRANCH   4  14
BRANCH   3  37
ATOM     37  N   LIG    1      -20.900  80.584  37.954  0.00  0.00    -0.324 N 
BRANCH  37  38
ATOM     38  C   LIG    1      -19.869  81.693  38.057  0.00  0.00    +0.078 C 
ATOM     39  C   LIG    1      -19.158  81.751  39.424  0.00  0.00    +0.050 C 
ATOM     40  C   LIG    1      -19.820  82.647  40.459  0.00  0.00    +0.161 C 
ATOM     41  O   LIG    1      -20.101  83.944  39.944  0.00  0.00    -0.380 OA
ATOM     42  C   LIG    1      -20.903  83.929  38.771  0.00  0.00    +0.161 C 
ATOM     43  C   LIG    1      -20.259  83.122  37.655  0.00  0.00    +0.050 C 
ENDBRANCH  37  38
BRANCH  37  44
ATOM     44  C   LIG    1      -21.093  79.798  39.209  0.00  0.00    +0.133 C 
BRANCH  44  45
ATOM     45  C   LIG    1      -20.532  78.371  39.192  0.00  0.00    +0.174 C 
BRANCH  45  46
ATOM     46  O   LIG    1      -21.351  77.480  38.435  0.00  0.00    -0.393 OA
ATOM     47  H   LIG    1      -20.749  76.932  37.903  0.00  0.00    +0.209 HD
ENDBRANCH  45  46
ENDBRANCH  44  45
ENDBRANCH  37  44
ENDBRANCH   3  37
TORSDOF 10
ENDMDL
MODEL 9
REMARK VINA RESULT:      -5.5      1.249      2.494
REMARK  Name = modded_pdb/CHEMBL1983268_nitrogen_modded_with_ethanol_version_2.pdb
REMARK                            x       y       z     vdW  Elec       q    Type
REMARK                         _______ _______ _______ _____ _____    ______ ____
ROOT
ATOM      1  C   LIG    1      -21.966  78.797  34.212  0.00  0.00    +0.032 A 
ATOM      2  C   LIG    1      -21.831  77.650  33.399  0.00  0.00    +0.047 A 
ATOM      3  C   LIG    1      -22.890  77.005  32.664  0.00  0.00    +0.044 A 
ATOM      4  C   LIG    1      -24.074  77.773  32.501  0.00  0.00    +0.058 A 
ATOM      5  C   LIG    1      -24.174  78.989  33.198  0.00  0.00    +0.017 A 
ATOM      6  C   LIG    1      -23.165  79.476  34.036  0.00  0.00    +0.024 A 
ENDROOT
BRANCH   1  11
ATOM      7  C   LIG    1      -21.234  79.910  38.658  0.00  0.00    +0.105 C 
ATOM      8  N   LIG    1      -20.003  80.041  37.874  0.00  0.00    -0.302 NA
ATOM      9  C   LIG    1      -20.147  81.008  36.773  0.00  0.00    +0.103 C 
ATOM     10  C   LIG    1      -21.155  80.609  35.673  0.00  0.00    +0.120 C 
ATOM     11  N   LIG    1      -20.976  79.229  35.139  0.00  0.00    -0.327 N 
ATOM     12  C   LIG    1      -20.557  78.220  36.157  0.00  0.00    +0.120 C 
ATOM     13  C   LIG    1      -19.608  78.761  37.261  0.00  0.00    +0.103 C 
ENDBRANCH   1  11
BRANCH   4  14
ATOM     14  C   LIG    1      -25.329  77.407  31.749  0.00  0.00    +0.251 C 
ATOM     15  N   LIG    1      -26.489  77.301  32.523  0.00  0.00    -0.264 N 
ATOM     16  H   LIG    1      -26.441  77.486  33.509  0.00  0.00    +0.157 HD
ATOM     17  O   LIG    1      -25.245  77.157  30.527  0.00  0.00    -0.270 OA
BRANCH  15  18
ATOM     18  C   LIG    1      -27.706  76.802  32.092  0.00  0.00    +0.155 A 
ATOM     19  C   LIG    1      -28.099  75.402  32.088  0.00  0.00    +0.042 A 
ATOM     20  C   LIG    1      -27.547  74.149  32.474  0.00  0.00    +0.017 A 
ATOM     21  C   LIG    1      -28.242  72.947  32.175  0.00  0.00    -0.042 A 
ATOM     22  C   LIG    1      -29.488  73.026  31.529  0.00  0.00    +0.006 A 
ATOM     23  C   LIG    1      -30.061  74.240  31.166  0.00  0.00    +0.028 A 
ATOM     24  C   LIG    1      -29.343  75.395  31.461  0.00  0.00    +0.068 A 
ATOM     25  N   LIG    1      -29.629  76.703  31.202  0.00  0.00    -0.275 N 
ATOM     26  H   LIG    1      -30.449  77.072  30.737  0.00  0.00    +0.189 HD
ATOM     27  N   LIG    1      -28.679  77.557  31.579  0.00  0.00    -0.157 NA
BRANCH  21  28
ATOM     28  C   LIG    1      -27.669  71.584  32.554  0.00  0.00    +0.070 C 
BRANCH  28  29
ATOM     29  C   LIG    1      -26.531  71.125  31.655  0.00  0.00    -0.038 A 
ATOM     30  C   LIG    1      -26.783  70.394  30.481  0.00  0.00    +0.042 A 
ATOM     31  C   LIG    1      -25.747  70.128  29.585  0.00  0.00    +0.126 A 
ATOM     32  F   LIG    1      -26.014  69.476  28.446  0.00  0.00    -0.205 F 
ATOM     33  C   LIG    1      -24.452  70.558  29.836  0.00  0.00    +0.076 A 
ATOM     34  C   LIG    1      -24.200  71.265  31.002  0.00  0.00    +0.126 A 
ATOM     35  F   LIG    1      -22.959  71.704  31.252  0.00  0.00    -0.205 F 
ATOM     36  C   LIG    1      -25.220  71.555  31.908  0.00  0.00    +0.042 A 
ENDBRANCH  28  29
ENDBRANCH  21  28
ENDBRANCH  15  18
ENDBRANCH   4  14
BRANCH   3  37
ATOM     37  N   LIG    1      -22.650  75.690  32.243  0.00  0.00    -0.324 N 
BRANCH  37  38
ATOM     38  C   LIG    1      -21.865  75.382  30.981  0.00  0.00    +0.078 C 
ATOM     39  C   LIG    1      -20.418  74.921  31.251  0.00  0.00    +0.050 C 
ATOM     40  C   LIG    1      -19.383  76.035  31.292  0.00  0.00    +0.161 C 
ATOM     41  O   LIG    1      -19.472  76.892  30.159  0.00  0.00    -0.380 OA
ATOM     42  C   LIG    1      -20.758  77.469  29.981  0.00  0.00    +0.161 C 
ATOM     43  C   LIG    1      -21.839  76.410  29.841  0.00  0.00    +0.050 C 
ENDBRANCH  37  38
BRANCH  37  44
ATOM     44  C   LIG    1      -22.868  74.517  33.140  0.00  0.00    +0.133 C 
BRANCH  44  45
ATOM     45  C   LIG    1      -23.567  74.819  34.471  0.00  0.00    +0.174 C 
BRANCH  45  46
ATOM     46  O   LIG    1      -24.822  74.150  34.583  0.00  0.00    -0.393 OA
ATOM     47  H   LIG    1      -25.493  74.839  34.731  0.00  0.00    +0.209 HD
ENDBRANCH  45  46
ENDBRANCH  44  45
ENDBRANCH  37  44
ENDBRANCH   3  37
TORSDOF 10
ENDMDL
