MODEL 1
REMARK VINA RESULT:      -7.4      0.000      0.000
REMARK  Name = modded_pdb/CHEMBL2037208_nitrogen_modded_with_ethanol_version_3.pdb
REMARK                            x       y       z     vdW  Elec       q    Type
REMARK                         _______ _______ _______ _____ _____    ______ ____
ROOT
ATOM      1  N   LIG    1      -39.850  71.704  24.669  0.00  0.00    -0.314 N 
ATOM      2  H   LIG    1      -40.249  71.370  25.544  0.00  0.00    +0.152 HD
ENDROOT
BRANCH   1   3
ATOM      3  C   LIG    1      -39.054  70.697  24.067  0.00  0.00    +0.033 A 
ATOM      4  C   LIG    1      -37.968  70.133  24.747  0.00  0.00    +0.047 A 
ATOM      5  C   LIG    1      -37.194  69.187  24.108  0.00  0.00    +0.046 A 
ATOM      6  N   LIG    1      -36.034  68.566  24.587  0.00  0.00    -0.265 N 
ATOM      7  C   LIG    1      -35.515  67.678  23.649  0.00  0.00    +0.252 C 
ATOM      8  O   LIG    1      -34.539  66.980  23.784  0.00  0.00    -0.270 OA
ATOM      9  C   LIG    1      -36.445  67.772  22.456  0.00  0.00    +0.048 C 
ATOM     10  C   LIG    1      -36.358  67.160  21.264  0.00  0.00    +0.039 C 
ATOM     11  C   LIG    1      -37.490  68.743  22.815  0.00  0.00    +0.009 A 
ATOM     12  C   LIG    1      -38.587  69.256  22.140  0.00  0.00    +0.012 A 
ATOM     13  C   LIG    1      -39.373  70.231  22.776  0.00  0.00    +0.024 A 
BRANCH  10  14
ATOM     14  C   LIG    1      -35.349  66.259  20.834  0.00  0.00    +0.040 A 
ATOM     15  N   LIG    1      -34.027  66.632  20.759  0.00  0.00    -0.361 N 
ATOM     16  H   LIG    1      -33.677  67.573  20.907  0.00  0.00    +0.165 HD
ATOM     17  C   LIG    1      -33.263  65.585  20.316  0.00  0.00    +0.083 A 
ATOM     18  C   LIG    1      -34.094  64.508  20.125  0.00  0.00    +0.019 A 
ATOM     19  C   LIG    1      -35.403  64.926  20.470  0.00  0.00    +0.027 A 
ENDBRANCH  10  14
BRANCH   6  20
ATOM     20  C   LIG    1      -35.386  68.849  25.852  0.00  0.00    +0.142 C 
BRANCH  20  21
ATOM     21  C   LIG    1      -34.175  69.778  25.694  0.00  0.00    +0.175 C 
BRANCH  21  22
ATOM     22  O   LIG    1      -34.551  71.101  25.306  0.00  0.00    -0.393 OA
ATOM     23  H   LIG    1      -33.725  71.529  25.011  0.00  0.00    +0.209 HD
ENDBRANCH  21  22
ENDBRANCH  20  21
ENDBRANCH   6  20
ENDBRANCH   1   3
BRANCH   1  26
ATOM     24  C   LIG    1      -37.996  74.909  25.273  0.00  0.00    +0.035 A 
ATOM     25  C   LIG    1      -38.339  73.552  25.245  0.00  0.00    +0.046 A 
ATOM     26  C   LIG    1      -39.550  73.089  24.702  0.00  0.00    +0.033 A 
ATOM     27  C   LIG    1      -40.411  74.024  24.127  0.00  0.00    +0.023 A 
ATOM     28  C   LIG    1      -40.083  75.386  24.144  0.00  0.00    +0.004 A 
ATOM     29  C   LIG    1      -38.879  75.828  24.711  0.00  0.00    +0.023 A 
BRANCH  24  31
ATOM     30  C   LIG    1      -36.566  75.637  27.202  0.00  0.00    +0.248 C 
ATOM     31  N   LIG    1      -36.769  75.232  25.895  0.00  0.00    -0.281 N 
ATOM     32  H   LIG    1      -35.971  75.267  25.271  0.00  0.00    +0.155 HD
ATOM     33  O   LIG    1      -37.437  75.819  28.043  0.00  0.00    -0.270 OA
BRANCH  30  36
ATOM     34  C   LIG    1      -33.262  77.513  27.498  0.00  0.00    +0.056 A 
ATOM     35  C   LIG    1      -34.580  77.162  27.148  0.00  0.00    +0.025 A 
ATOM     36  C   LIG    1      -35.142  75.942  27.567  0.00  0.00    +0.038 A 
ATOM     37  C   LIG    1      -34.367  75.066  28.341  0.00  0.00    +0.013 A 
ATOM     38  C   LIG    1      -33.068  75.422  28.719  0.00  0.00    +0.001 A 
ATOM     39  C   LIG    1      -32.523  76.639  28.309  0.00  0.00    +0.012 A 
BRANCH  34  41
ATOM     40  F   LIG    1      -31.532  79.174  27.675  0.00  0.00    -0.166 F 
ATOM     41  C   LIG    1      -32.649  78.797  26.988  0.00  0.00    +0.417 C 
ATOM     42  F   LIG    1      -32.263  78.703  25.686  0.00  0.00    -0.166 F 
ATOM     43  F   LIG    1      -33.501  79.856  27.055  0.00  0.00    -0.166 F 
ENDBRANCH  34  41
ENDBRANCH  30  36
ENDBRANCH  24  31
ENDBRANCH   1  26
TORSDOF 9
ENDMDL
MODEL 2
REMARK VINA RESULT:      -7.1      1.292      1.487
REMARK  Name = modded_pdb/CHEMBL2037208_nitrogen_modded_with_ethanol_version_3.pdb
REMARK                            x       y       z     vdW  Elec       q    Type
REMARK                         _______ _______ _______ _____ _____    ______ ____
ROOT
ATOM      1  N   LIG    1      -39.594  71.034  24.611  0.00  0.00    -0.314 N 
ATOM      2  H   LIG    1      -39.704  70.666  25.554  0.00  0.00    +0.152 HD
ENDROOT
BRANCH   1   3
ATOM      3  C   LIG    1      -38.833  70.144  23.814  0.00  0.00    +0.033 A 
ATOM      4  C   LIG    1      -37.624  69.612  24.279  0.00  0.00    +0.047 A 
ATOM      5  C   LIG    1      -36.893  68.784  23.453  0.00  0.00    +0.046 A 
ATOM      6  N   LIG    1      -35.637  68.218  23.705  0.00  0.00    -0.265 N 
ATOM      7  C   LIG    1      -35.205  67.451  22.627  0.00  0.00    +0.252 C 
ATOM      8  O   LIG    1      -34.177  66.823  22.558  0.00  0.00    -0.270 OA
ATOM      9  C   LIG    1      -36.305  67.568  21.591  0.00  0.00    +0.048 C 
ATOM     10  C   LIG    1      -36.356  67.063  20.348  0.00  0.00    +0.039 C 
ATOM     11  C   LIG    1      -37.347  68.424  22.181  0.00  0.00    +0.009 A 
ATOM     12  C   LIG    1      -38.563  68.902  21.717  0.00  0.00    +0.012 A 
ATOM     13  C   LIG    1      -39.308  69.759  22.544  0.00  0.00    +0.024 A 
BRANCH  10  14
ATOM     14  C   LIG    1      -35.366  66.280  19.700  0.00  0.00    +0.040 A 
ATOM     15  N   LIG    1      -34.149  66.808  19.331  0.00  0.00    -0.361 N 
ATOM     16  H   LIG    1      -33.894  67.787  19.400  0.00  0.00    +0.165 HD
ATOM     17  C   LIG    1      -33.380  65.850  18.724  0.00  0.00    +0.083 A 
ATOM     18  C   LIG    1      -34.094  64.677  18.721  0.00  0.00    +0.019 A 
ATOM     19  C   LIG    1      -35.335  64.941  19.352  0.00  0.00    +0.027 A 
ENDBRANCH  10  14
BRANCH   6  20
ATOM     20  C   LIG    1      -34.828  68.449  24.886  0.00  0.00    +0.142 C 
BRANCH  20  21
ATOM     21  C   LIG    1      -34.966  67.323  25.919  0.00  0.00    +0.175 C 
BRANCH  21  22
ATOM     22  O   LIG    1      -34.086  66.229  25.652  0.00  0.00    -0.393 OA
ATOM     23  H   LIG    1      -34.666  65.483  25.408  0.00  0.00    +0.209 HD
ENDBRANCH  21  22
ENDBRANCH  20  21
ENDBRANCH   6  20
ENDBRANCH   1   3
BRANCH   1  26
ATOM     24  C   LIG    1      -38.273  74.509  25.111  0.00  0.00    +0.035 A 
ATOM     25  C   LIG    1      -38.404  73.116  25.139  0.00  0.00    +0.046 A 
ATOM     26  C   LIG    1      -39.510  72.449  24.586  0.00  0.00    +0.033 A 
ATOM     27  C   LIG    1      -40.483  73.215  23.943  0.00  0.00    +0.023 A 
ATOM     28  C   LIG    1      -40.367  74.610  23.904  0.00  0.00    +0.004 A 
ATOM     29  C   LIG    1      -39.265  75.256  24.482  0.00  0.00    +0.023 A 
BRANCH  24  31
ATOM     30  C   LIG    1      -36.935  75.233  27.106  0.00  0.00    +0.248 C 
ATOM     31  N   LIG    1      -37.131  75.043  25.751  0.00  0.00    -0.281 N 
ATOM     32  H   LIG    1      -36.430  75.421  25.125  0.00  0.00    +0.155 HD
ATOM     33  O   LIG    1      -37.747  74.997  27.992  0.00  0.00    -0.270 OA
BRANCH  30  36
ATOM     34  C   LIG    1      -34.330  77.890  27.934  0.00  0.00    +0.056 A 
ATOM     35  C   LIG    1      -35.528  77.258  27.546  0.00  0.00    +0.025 A 
ATOM     36  C   LIG    1      -35.622  75.856  27.486  0.00  0.00    +0.038 A 
ATOM     37  C   LIG    1      -34.499  75.084  27.815  0.00  0.00    +0.013 A 
ATOM     38  C   LIG    1      -33.316  75.703  28.232  0.00  0.00    +0.001 A 
ATOM     39  C   LIG    1      -33.235  77.095  28.300  0.00  0.00    +0.012 A 
BRANCH  34  41
ATOM     40  F   LIG    1      -33.322  79.876  27.028  0.00  0.00    -0.166 F 
ATOM     41  C   LIG    1      -34.223  79.398  27.933  0.00  0.00    +0.417 C 
ATOM     42  F   LIG    1      -35.406  79.999  27.624  0.00  0.00    -0.166 F 
ATOM     43  F   LIG    1      -33.844  79.904  29.137  0.00  0.00    -0.166 F 
ENDBRANCH  34  41
ENDBRANCH  30  36
ENDBRANCH  24  31
ENDBRANCH   1  26
TORSDOF 9
ENDMDL
MODEL 3
REMARK VINA RESULT:      -7.0      2.095      2.609
REMARK  Name = modded_pdb/CHEMBL2037208_nitrogen_modded_with_ethanol_version_3.pdb
REMARK                            x       y       z     vdW  Elec       q    Type
REMARK                         _______ _______ _______ _____ _____    ______ ____
ROOT
ATOM      1  N   LIG    1      -39.806  70.860  24.255  0.00  0.00    -0.314 N 
ATOM      2  H   LIG    1      -40.040  70.416  25.141  0.00  0.00    +0.152 HD
ENDROOT
BRANCH   1   3
ATOM      3  C   LIG    1      -38.982  70.012  23.473  0.00  0.00    +0.033 A 
ATOM      4  C   LIG    1      -37.782  69.502  23.982  0.00  0.00    +0.047 A 
ATOM      5  C   LIG    1      -36.990  68.716  23.172  0.00  0.00    +0.046 A 
ATOM      6  N   LIG    1      -35.732  68.178  23.470  0.00  0.00    -0.265 N 
ATOM      7  C   LIG    1      -35.228  67.452  22.395  0.00  0.00    +0.252 C 
ATOM      8  O   LIG    1      -34.179  66.854  22.360  0.00  0.00    -0.270 OA
ATOM      9  C   LIG    1      -36.280  67.566  21.310  0.00  0.00    +0.048 C 
ATOM     10  C   LIG    1      -36.258  67.092  20.054  0.00  0.00    +0.039 C 
ATOM     11  C   LIG    1      -37.373  68.377  21.871  0.00  0.00    +0.009 A 
ATOM     12  C   LIG    1      -38.578  68.833  21.361  0.00  0.00    +0.012 A 
ATOM     13  C   LIG    1      -39.386  69.648  22.172  0.00  0.00    +0.024 A 
BRANCH  10  14
ATOM     14  C   LIG    1      -35.216  66.354  19.435  0.00  0.00    +0.040 A 
ATOM     15  N   LIG    1      -34.913  65.066  19.815  0.00  0.00    -0.361 N 
ATOM     16  H   LIG    1      -35.326  64.578  20.602  0.00  0.00    +0.165 HD
ATOM     17  C   LIG    1      -33.872  64.583  19.067  0.00  0.00    +0.083 A 
ATOM     18  C   LIG    1      -33.509  65.559  18.171  0.00  0.00    +0.019 A 
ATOM     19  C   LIG    1      -34.367  66.665  18.388  0.00  0.00    +0.027 A 
ENDBRANCH  10  14
BRANCH   6  20
ATOM     20  C   LIG    1      -34.986  68.399  24.693  0.00  0.00    +0.142 C 
BRANCH  20  21
ATOM     21  C   LIG    1      -35.174  67.264  25.707  0.00  0.00    +0.175 C 
BRANCH  21  22
ATOM     22  O   LIG    1      -34.355  66.130  25.413  0.00  0.00    -0.393 OA
ATOM     23  H   LIG    1      -34.893  65.352  25.652  0.00  0.00    +0.209 HD
ENDBRANCH  21  22
ENDBRANCH  20  21
ENDBRANCH   6  20
ENDBRANCH   1   3
BRANCH   1  26
ATOM     24  C   LIG    1      -38.363  74.223  25.081  0.00  0.00    +0.035 A 
ATOM     25  C   LIG    1      -38.540  72.839  24.971  0.00  0.00    +0.046 A 
ATOM     26  C   LIG    1      -39.675  72.267  24.370  0.00  0.00    +0.033 A 
ATOM     27  C   LIG    1      -40.630  73.124  23.823  0.00  0.00    +0.023 A 
ATOM     28  C   LIG    1      -40.467  74.512  23.922  0.00  0.00    +0.004 A 
ATOM     29  C   LIG    1      -39.338  75.061  24.545  0.00  0.00    +0.023 A 
BRANCH  24  31
ATOM     30  C   LIG    1      -37.040  74.884  27.108  0.00  0.00    +0.248 C 
ATOM     31  N   LIG    1      -37.197  74.653  25.753  0.00  0.00    -0.281 N 
ATOM     32  H   LIG    1      -36.429  74.919  25.147  0.00  0.00    +0.155 HD
ATOM     33  O   LIG    1      -37.913  74.784  27.961  0.00  0.00    -0.270 OA
BRANCH  30  36
ATOM     34  C   LIG    1      -33.508  74.865  28.539  0.00  0.00    +0.056 A 
ATOM     35  C   LIG    1      -34.807  74.471  28.163  0.00  0.00    +0.025 A 
ATOM     36  C   LIG    1      -35.681  75.370  27.525  0.00  0.00    +0.038 A 
ATOM     37  C   LIG    1      -35.247  76.677  27.269  0.00  0.00    +0.013 A 
ATOM     38  C   LIG    1      -33.948  77.067  27.612  0.00  0.00    +0.001 A 
ATOM     39  C   LIG    1      -33.081  76.166  28.233  0.00  0.00    +0.012 A 
BRANCH  34  41
ATOM     40  F   LIG    1      -31.286  74.272  29.241  0.00  0.00    -0.166 F 
ATOM     41  C   LIG    1      -32.601  73.910  29.280  0.00  0.00    +0.417 C 
ATOM     42  F   LIG    1      -32.916  73.820  30.602  0.00  0.00    -0.166 F 
ATOM     43  F   LIG    1      -32.652  72.641  28.792  0.00  0.00    -0.166 F 
ENDBRANCH  34  41
ENDBRANCH  30  36
ENDBRANCH  24  31
ENDBRANCH   1  26
TORSDOF 9
ENDMDL
MODEL 4
REMARK VINA RESULT:      -6.8      6.110     12.481
REMARK  Name = modded_pdb/CHEMBL2037208_nitrogen_modded_with_ethanol_version_3.pdb
REMARK                            x       y       z     vdW  Elec       q    Type
REMARK                         _______ _______ _______ _____ _____    ______ ____
ROOT
ATOM      1  N   LIG    1      -35.678  79.686  28.802  0.00  0.00    -0.314 N 
ATOM      2  H   LIG    1      -36.136  79.650  29.711  0.00  0.00    +0.152 HD
ENDROOT
BRANCH   1   3
ATOM      3  C   LIG    1      -36.282  80.667  27.978  0.00  0.00    +0.033 A 
ATOM      4  C   LIG    1      -37.633  80.578  27.619  0.00  0.00    +0.047 A 
ATOM      5  C   LIG    1      -38.169  81.532  26.780  0.00  0.00    +0.046 A 
ATOM      6  N   LIG    1      -39.465  81.574  26.253  0.00  0.00    -0.265 N 
ATOM      7  C   LIG    1      -39.636  82.681  25.427  0.00  0.00    +0.252 C 
ATOM      8  O   LIG    1      -40.649  82.998  24.850  0.00  0.00    -0.270 OA
ATOM      9  C   LIG    1      -38.297  83.391  25.430  0.00  0.00    +0.048 C 
ATOM     10  C   LIG    1      -37.913  84.482  24.748  0.00  0.00    +0.039 C 
ATOM     11  C   LIG    1      -37.413  82.611  26.312  0.00  0.00    +0.009 A 
ATOM     12  C   LIG    1      -36.086  82.745  26.690  0.00  0.00    +0.012 A 
ATOM     13  C   LIG    1      -35.526  81.770  27.532  0.00  0.00    +0.024 A 
BRANCH  10  14
ATOM     14  C   LIG    1      -38.695  85.245  23.842  0.00  0.00    +0.040 A 
ATOM     15  N   LIG    1      -39.147  84.720  22.653  0.00  0.00    -0.361 N 
ATOM     16  H   LIG    1      -38.895  83.809  22.285  0.00  0.00    +0.165 HD
ATOM     17  C   LIG    1      -39.871  85.658  21.965  0.00  0.00    +0.083 A 
ATOM     18  C   LIG    1      -39.915  86.799  22.728  0.00  0.00    +0.019 A 
ATOM     19  C   LIG    1      -39.192  86.533  23.918  0.00  0.00    +0.027 A 
ENDBRANCH  10  14
BRANCH   6  20
ATOM     20  C   LIG    1      -40.492  80.570  26.452  0.00  0.00    +0.142 C 
BRANCH  20  21
ATOM     21  C   LIG    1      -40.575  79.578  25.286  0.00  0.00    +0.175 C 
BRANCH  21  22
ATOM     22  O   LIG    1      -39.317  78.957  25.009  0.00  0.00    -0.393 OA
ATOM     23  H   LIG    1      -38.751  79.666  24.651  0.00  0.00    +0.209 HD
ENDBRANCH  21  22
ENDBRANCH  20  21
ENDBRANCH   6  20
ENDBRANCH   1   3
BRANCH   1  26
ATOM     24  C   LIG    1      -35.633  76.290  27.208  0.00  0.00    +0.035 A 
ATOM     25  C   LIG    1      -36.059  77.541  27.667  0.00  0.00    +0.046 A 
ATOM     26  C   LIG    1      -35.217  78.415  28.376  0.00  0.00    +0.033 A 
ATOM     27  C   LIG    1      -33.892  78.027  28.580  0.00  0.00    +0.023 A 
ATOM     28  C   LIG    1      -33.448  76.778  28.126  0.00  0.00    +0.004 A 
ATOM     29  C   LIG    1      -34.312  75.914  27.440  0.00  0.00    +0.023 A 
BRANCH  24  31
ATOM     30  C   LIG    1      -37.270  75.785  25.375  0.00  0.00    +0.248 C 
ATOM     31  N   LIG    1      -36.604  75.499  26.553  0.00  0.00    -0.281 N 
ATOM     32  H   LIG    1      -36.912  74.686  27.073  0.00  0.00    +0.155 HD
ATOM     33  O   LIG    1      -37.150  76.806  24.709  0.00  0.00    -0.270 OA
BRANCH  30  36
ATOM     34  C   LIG    1      -40.475  74.278  23.966  0.00  0.00    +0.056 A 
ATOM     35  C   LIG    1      -39.511  75.198  24.424  0.00  0.00    +0.025 A 
ATOM     36  C   LIG    1      -38.278  74.760  24.940  0.00  0.00    +0.038 A 
ATOM     37  C   LIG    1      -38.014  73.384  25.000  0.00  0.00    +0.013 A 
ATOM     38  C   LIG    1      -38.953  72.466  24.518  0.00  0.00    +0.001 A 
ATOM     39  C   LIG    1      -40.170  72.909  23.996  0.00  0.00    +0.012 A 
BRANCH  34  41
ATOM     40  F   LIG    1      -41.750  75.905  22.739  0.00  0.00    -0.166 F 
ATOM     41  C   LIG    1      -41.820  74.758  23.474  0.00  0.00    +0.417 C 
ATOM     42  F   LIG    1      -42.432  73.845  22.669  0.00  0.00    -0.166 F 
ATOM     43  F   LIG    1      -42.694  75.018  24.484  0.00  0.00    -0.166 F 
ENDBRANCH  34  41
ENDBRANCH  30  36
ENDBRANCH  24  31
ENDBRANCH   1  26
TORSDOF 9
ENDMDL
MODEL 5
REMARK VINA RESULT:      -6.8      6.471     13.971
REMARK  Name = modded_pdb/CHEMBL2037208_nitrogen_modded_with_ethanol_version_3.pdb
REMARK                            x       y       z     vdW  Elec       q    Type
REMARK                         _______ _______ _______ _____ _____    ______ ____
ROOT
ATOM      1  N   LIG    1      -35.930  79.199  29.761  0.00  0.00    -0.314 N 
ATOM      2  H   LIG    1      -36.899  79.000  30.006  0.00  0.00    +0.152 HD
ENDROOT
BRANCH   1   3
ATOM      3  C   LIG    1      -35.719  80.596  29.656  0.00  0.00    +0.033 A 
ATOM      4  C   LIG    1      -36.102  81.299  28.507  0.00  0.00    +0.047 A 
ATOM      5  C   LIG    1      -35.839  82.651  28.429  0.00  0.00    +0.046 A 
ATOM      6  N   LIG    1      -36.075  83.506  27.346  0.00  0.00    -0.265 N 
ATOM      7  C   LIG    1      -35.660  84.803  27.629  0.00  0.00    +0.252 C 
ATOM      8  O   LIG    1      -35.755  85.763  26.903  0.00  0.00    -0.270 OA
ATOM      9  C   LIG    1      -35.090  84.741  29.032  0.00  0.00    +0.048 C 
ATOM     10  C   LIG    1      -34.505  85.710  29.754  0.00  0.00    +0.039 C 
ATOM     11  C   LIG    1      -35.239  83.347  29.482  0.00  0.00    +0.009 A 
ATOM     12  C   LIG    1      -34.892  82.680  30.647  0.00  0.00    +0.012 A 
ATOM     13  C   LIG    1      -35.141  81.300  30.731  0.00  0.00    +0.024 A 
BRANCH  10  14
ATOM     14  C   LIG    1      -34.280  87.055  29.360  0.00  0.00    +0.040 A 
ATOM     15  N   LIG    1      -35.319  87.917  29.093  0.00  0.00    -0.361 N 
ATOM     16  H   LIG    1      -36.299  87.657  29.062  0.00  0.00    +0.165 HD
ATOM     17  C   LIG    1      -34.834  89.147  28.733  0.00  0.00    +0.083 A 
ATOM     18  C   LIG    1      -33.463  89.093  28.792  0.00  0.00    +0.019 A 
ATOM     19  C   LIG    1      -33.115  87.784  29.206  0.00  0.00    +0.027 A 
ENDBRANCH  10  14
BRANCH   6  20
ATOM     20  C   LIG    1      -36.603  83.109  26.055  0.00  0.00    +0.142 C 
BRANCH  20  21
ATOM     21  C   LIG    1      -38.098  83.423  25.912  0.00  0.00    +0.175 C 
BRANCH  21  22
ATOM     22  O   LIG    1      -38.332  84.747  25.427  0.00  0.00    -0.393 OA
ATOM     23  H   LIG    1      -37.463  85.190  25.454  0.00  0.00    +0.209 HD
ENDBRANCH  21  22
ENDBRANCH  20  21
ENDBRANCH   6  20
ENDBRANCH   1   3
BRANCH   1  26
ATOM     24  C   LIG    1      -35.676  76.393  27.283  0.00  0.00    +0.035 A 
ATOM     25  C   LIG    1      -36.192  77.365  28.149  0.00  0.00    +0.046 A 
ATOM     26  C   LIG    1      -35.370  78.209  28.915  0.00  0.00    +0.033 A 
ATOM     27  C   LIG    1      -33.988  78.096  28.760  0.00  0.00    +0.023 A 
ATOM     28  C   LIG    1      -33.454  77.131  27.896  0.00  0.00    +0.004 A 
ATOM     29  C   LIG    1      -34.293  76.284  27.158  0.00  0.00    +0.023 A 
BRANCH  24  31
ATOM     30  C   LIG    1      -37.260  75.848  25.416  0.00  0.00    +0.248 C 
ATOM     31  N   LIG    1      -36.623  75.585  26.615  0.00  0.00    -0.281 N 
ATOM     32  H   LIG    1      -36.937  74.775  27.138  0.00  0.00    +0.155 HD
ATOM     33  O   LIG    1      -37.133  76.860  24.739  0.00  0.00    -0.270 OA
BRANCH  30  36
ATOM     34  C   LIG    1      -40.424  74.291  23.969  0.00  0.00    +0.056 A 
ATOM     35  C   LIG    1      -39.480  75.226  24.438  0.00  0.00    +0.025 A 
ATOM     36  C   LIG    1      -38.247  74.807  24.970  0.00  0.00    +0.038 A 
ATOM     37  C   LIG    1      -37.965  73.435  25.036  0.00  0.00    +0.013 A 
ATOM     38  C   LIG    1      -38.884  72.503  24.544  0.00  0.00    +0.001 A 
ATOM     39  C   LIG    1      -40.100  72.927  24.005  0.00  0.00    +0.012 A 
BRANCH  34  41
ATOM     40  F   LIG    1      -42.665  75.015  24.452  0.00  0.00    -0.166 F 
ATOM     41  C   LIG    1      -41.770  74.751  23.458  0.00  0.00    +0.417 C 
ATOM     42  F   LIG    1      -41.682  75.899  22.730  0.00  0.00    -0.166 F 
ATOM     43  F   LIG    1      -42.372  73.837  22.650  0.00  0.00    -0.166 F 
ENDBRANCH  34  41
ENDBRANCH  30  36
ENDBRANCH  24  31
ENDBRANCH   1  26
TORSDOF 9
ENDMDL
MODEL 6
REMARK VINA RESULT:      -6.8      5.522     11.279
REMARK  Name = modded_pdb/CHEMBL2037208_nitrogen_modded_with_ethanol_version_3.pdb
REMARK                            x       y       z     vdW  Elec       q    Type
REMARK                         _______ _______ _______ _____ _____    ______ ____
ROOT
ATOM      1  N   LIG    1      -40.779  77.780  24.391  0.00  0.00    -0.314 N 
ATOM      2  H   LIG    1      -41.552  77.651  23.741  0.00  0.00    +0.152 HD
ENDROOT
BRANCH   1   3
ATOM      3  C   LIG    1      -40.288  79.108  24.323  0.00  0.00    +0.033 A 
ATOM      4  C   LIG    1      -40.278  79.933  25.455  0.00  0.00    +0.047 A 
ATOM      5  C   LIG    1      -39.831  81.232  25.335  0.00  0.00    +0.046 A 
ATOM      6  N   LIG    1      -39.814  82.224  26.322  0.00  0.00    -0.265 N 
ATOM      7  C   LIG    1      -39.308  83.421  25.824  0.00  0.00    +0.252 C 
ATOM      8  O   LIG    1      -39.148  84.446  26.442  0.00  0.00    -0.270 OA
ATOM      9  C   LIG    1      -38.994  83.144  24.368  0.00  0.00    +0.048 C 
ATOM     10  C   LIG    1      -38.537  83.983  23.424  0.00  0.00    +0.039 C 
ATOM     11  C   LIG    1      -39.345  81.735  24.125  0.00  0.00    +0.009 A 
ATOM     12  C   LIG    1      -39.303  80.923  23.002  0.00  0.00    +0.012 A 
ATOM     13  C   LIG    1      -39.771  79.603  23.109  0.00  0.00    +0.024 A 
BRANCH  10  14
ATOM     14  C   LIG    1      -38.233  85.361  23.577  0.00  0.00    +0.040 A 
ATOM     15  N   LIG    1      -37.200  85.792  24.378  0.00  0.00    -0.361 N 
ATOM     16  H   LIG    1      -36.643  85.197  24.982  0.00  0.00    +0.165 HD
ATOM     17  C   LIG    1      -37.121  87.159  24.355  0.00  0.00    +0.083 A 
ATOM     18  C   LIG    1      -38.097  87.624  23.508  0.00  0.00    +0.019 A 
ATOM     19  C   LIG    1      -38.784  86.492  23.002  0.00  0.00    +0.027 A 
ENDBRANCH  10  14
BRANCH   6  20
ATOM     20  C   LIG    1      -40.325  82.082  27.672  0.00  0.00    +0.142 C 
BRANCH  20  21
ATOM     21  C   LIG    1      -39.241  81.652  28.667  0.00  0.00    +0.175 C 
BRANCH  21  22
ATOM     22  O   LIG    1      -39.252  80.243  28.909  0.00  0.00    -0.393 OA
ATOM     23  H   LIG    1      -38.929  80.135  29.823  0.00  0.00    +0.209 HD
ENDBRANCH  21  22
ENDBRANCH  20  21
ENDBRANCH   6  20
ENDBRANCH   1   3
BRANCH   1  26
ATOM     24  C   LIG    1      -37.942  75.524  25.359  0.00  0.00    +0.035 A 
ATOM     25  C   LIG    1      -38.738  76.661  25.173  0.00  0.00    +0.046 A 
ATOM     26  C   LIG    1      -39.991  76.611  24.539  0.00  0.00    +0.033 A 
ATOM     27  C   LIG    1      -40.470  75.366  24.130  0.00  0.00    +0.023 A 
ATOM     28  C   LIG    1      -39.689  74.218  24.311  0.00  0.00    +0.004 A 
ATOM     29  C   LIG    1      -38.431  74.295  24.926  0.00  0.00    +0.023 A 
BRANCH  24  31
ATOM     30  C   LIG    1      -36.334  75.500  27.285  0.00  0.00    +0.248 C 
ATOM     31  N   LIG    1      -36.684  75.735  25.968  0.00  0.00    -0.281 N 
ATOM     32  H   LIG    1      -36.004  76.210  25.386  0.00  0.00    +0.155 HD
ATOM     33  O   LIG    1      -37.081  75.094  28.168  0.00  0.00    -0.270 OA
BRANCH  30  36
ATOM     34  C   LIG    1      -33.087  77.478  27.554  0.00  0.00    +0.056 A 
ATOM     35  C   LIG    1      -34.394  77.081  27.207  0.00  0.00    +0.025 A 
ATOM     36  C   LIG    1      -34.921  75.854  27.649  0.00  0.00    +0.038 A 
ATOM     37  C   LIG    1      -34.123  75.016  28.441  0.00  0.00    +0.013 A 
ATOM     38  C   LIG    1      -32.837  75.417  28.815  0.00  0.00    +0.001 A 
ATOM     39  C   LIG    1      -32.325  76.642  28.384  0.00  0.00    +0.012 A 
BRANCH  34  41
ATOM     40  F   LIG    1      -33.373  79.823  27.107  0.00  0.00    -0.166 F 
ATOM     41  C   LIG    1      -32.511  78.769  27.021  0.00  0.00    +0.417 C 
ATOM     42  F   LIG    1      -31.394  79.154  27.698  0.00  0.00    -0.166 F 
ATOM     43  F   LIG    1      -32.151  78.690  25.711  0.00  0.00    -0.166 F 
ENDBRANCH  34  41
ENDBRANCH  30  36
ENDBRANCH  24  31
ENDBRANCH   1  26
TORSDOF 9
ENDMDL
MODEL 7
REMARK VINA RESULT:      -6.6      1.791      2.200
REMARK  Name = modded_pdb/CHEMBL2037208_nitrogen_modded_with_ethanol_version_3.pdb
REMARK                            x       y       z     vdW  Elec       q    Type
REMARK                         _______ _______ _______ _____ _____    ______ ____
ROOT
ATOM      1  N   LIG    1      -40.249  71.116  24.509  0.00  0.00    -0.314 N 
ATOM      2  H   LIG    1      -40.254  70.688  25.434  0.00  0.00    +0.152 HD
ENDROOT
BRANCH   1   3
ATOM      3  C   LIG    1      -39.825  70.183  23.531  0.00  0.00    +0.033 A 
ATOM      4  C   LIG    1      -38.822  69.246  23.812  0.00  0.00    +0.047 A 
ATOM      5  C   LIG    1      -38.410  68.385  22.817  0.00  0.00    +0.046 A 
ATOM      6  N   LIG    1      -37.381  67.438  22.879  0.00  0.00    -0.265 N 
ATOM      7  C   LIG    1      -37.243  66.765  21.669  0.00  0.00    +0.252 C 
ATOM      8  O   LIG    1      -36.460  65.878  21.425  0.00  0.00    -0.270 OA
ATOM      9  C   LIG    1      -38.289  67.372  20.755  0.00  0.00    +0.048 C 
ATOM     10  C   LIG    1      -38.535  67.116  19.460  0.00  0.00    +0.039 C 
ATOM     11  C   LIG    1      -38.996  68.390  21.548  0.00  0.00    +0.009 A 
ATOM     12  C   LIG    1      -40.022  69.278  21.260  0.00  0.00    +0.012 A 
ATOM     13  C   LIG    1      -40.438  70.170  22.262  0.00  0.00    +0.024 A 
BRANCH  10  14
ATOM     14  C   LIG    1      -37.855  66.191  18.625  0.00  0.00    +0.040 A 
ATOM     15  N   LIG    1      -37.962  64.832  18.810  0.00  0.00    -0.361 N 
ATOM     16  H   LIG    1      -38.440  64.384  19.584  0.00  0.00    +0.165 HD
ATOM     17  C   LIG    1      -37.210  64.166  17.878  0.00  0.00    +0.083 A 
ATOM     18  C   LIG    1      -36.628  65.102  17.059  0.00  0.00    +0.019 A 
ATOM     19  C   LIG    1      -37.049  66.375  17.516  0.00  0.00    +0.027 A 
ENDBRANCH  10  14
BRANCH   6  20
ATOM     20  C   LIG    1      -36.501  67.220  24.010  0.00  0.00    +0.142 C 
BRANCH  20  21
ATOM     21  C   LIG    1      -35.068  67.695  23.737  0.00  0.00    +0.175 C 
BRANCH  21  22
ATOM     22  O   LIG    1      -34.804  68.981  24.301  0.00  0.00    -0.393 OA
ATOM     23  H   LIG    1      -35.670  69.314  24.604  0.00  0.00    +0.209 HD
ENDBRANCH  21  22
ENDBRANCH  20  21
ENDBRANCH   6  20
ENDBRANCH   1   3
BRANCH   1  26
ATOM     24  C   LIG    1      -38.316  74.262  25.171  0.00  0.00    +0.035 A 
ATOM     25  C   LIG    1      -38.702  72.917  25.136  0.00  0.00    +0.046 A 
ATOM     26  C   LIG    1      -39.905  72.490  24.548  0.00  0.00    +0.033 A 
ATOM     27  C   LIG    1      -40.712  73.450  23.936  0.00  0.00    +0.023 A 
ATOM     28  C   LIG    1      -40.341  74.800  23.959  0.00  0.00    +0.004 A 
ATOM     29  C   LIG    1      -39.146  75.206  24.572  0.00  0.00    +0.023 A 
BRANCH  24  31
ATOM     30  C   LIG    1      -36.940  75.212  27.041  0.00  0.00    +0.248 C 
ATOM     31  N   LIG    1      -37.104  74.548  25.839  0.00  0.00    -0.281 N 
ATOM     32  H   LIG    1      -36.266  74.329  25.313  0.00  0.00    +0.155 HD
ATOM     33  O   LIG    1      -37.832  75.701  27.723  0.00  0.00    -0.270 OA
BRANCH  30  36
ATOM     34  C   LIG    1      -33.546  76.846  27.626  0.00  0.00    +0.056 A 
ATOM     35  C   LIG    1      -34.867  76.609  27.198  0.00  0.00    +0.025 A 
ATOM     36  C   LIG    1      -35.516  75.395  27.486  0.00  0.00    +0.038 A 
ATOM     37  C   LIG    1      -34.829  74.410  28.208  0.00  0.00    +0.013 A 
ATOM     38  C   LIG    1      -33.529  74.650  28.664  0.00  0.00    +0.001 A 
ATOM     39  C   LIG    1      -32.895  75.862  28.385  0.00  0.00    +0.012 A 
BRANCH  34  41
ATOM     40  F   LIG    1      -33.667  79.210  27.206  0.00  0.00    -0.166 F 
ATOM     41  C   LIG    1      -32.838  78.128  27.255  0.00  0.00    +0.417 C 
ATOM     42  F   LIG    1      -31.862  78.456  28.147  0.00  0.00    -0.166 F 
ATOM     43  F   LIG    1      -32.233  78.069  26.038  0.00  0.00    -0.166 F 
ENDBRANCH  34  41
ENDBRANCH  30  36
ENDBRANCH  24  31
ENDBRANCH   1  26
TORSDOF 9
ENDMDL
MODEL 8
REMARK VINA RESULT:      -6.6     17.062     19.971
REMARK  Name = modded_pdb/CHEMBL2037208_nitrogen_modded_with_ethanol_version_3.pdb
REMARK                            x       y       z     vdW  Elec       q    Type
REMARK                         _______ _______ _______ _____ _____    ______ ____
ROOT
ATOM      1  N   LIG    1      -28.820  84.619   9.165  0.00  0.00    -0.314 N 
ATOM      2  H   LIG    1      -28.781  84.927   8.195  0.00  0.00    +0.152 HD
ENDROOT
BRANCH   1   3
ATOM      3  C   LIG    1      -30.144  84.701   9.662  0.00  0.00    +0.033 A 
ATOM      4  C   LIG    1      -30.971  83.571   9.703  0.00  0.00    +0.047 A 
ATOM      5  C   LIG    1      -32.267  83.703  10.153  0.00  0.00    +0.046 A 
ATOM      6  N   LIG    1      -33.261  82.718  10.200  0.00  0.00    -0.265 N 
ATOM      7  C   LIG    1      -34.454  83.230  10.700  0.00  0.00    +0.252 C 
ATOM      8  O   LIG    1      -35.479  82.617  10.880  0.00  0.00    -0.270 OA
ATOM      9  C   LIG    1      -34.173  84.693  10.977  0.00  0.00    +0.048 C 
ATOM     10  C   LIG    1      -35.009  85.648  11.416  0.00  0.00    +0.039 C 
ATOM     11  C   LIG    1      -32.767  84.926  10.613  0.00  0.00    +0.009 A 
ATOM     12  C   LIG    1      -31.953  86.048  10.624  0.00  0.00    +0.012 A 
ATOM     13  C   LIG    1      -30.635  85.927  10.152  0.00  0.00    +0.024 A 
BRANCH  10  14
ATOM     14  C   LIG    1      -36.385  85.505  11.731  0.00  0.00    +0.040 A 
ATOM     15  N   LIG    1      -36.826  84.589  12.659  0.00  0.00    -0.361 N 
ATOM     16  H   LIG    1      -36.244  83.896  13.116  0.00  0.00    +0.165 HD
ATOM     17  C   LIG    1      -38.190  84.649  12.774  0.00  0.00    +0.083 A 
ATOM     18  C   LIG    1      -38.641  85.635  11.931  0.00  0.00    +0.019 A 
ATOM     19  C   LIG    1      -37.504  86.187  11.289  0.00  0.00    +0.027 A 
ENDBRANCH  10  14
BRANCH   6  20
ATOM     20  C   LIG    1      -33.123  81.357   9.720  0.00  0.00    +0.142 C 
BRANCH  20  21
ATOM     21  C   LIG    1      -32.934  80.350  10.861  0.00  0.00    +0.175 C 
BRANCH  21  22
ATOM     22  O   LIG    1      -31.921  80.757  11.784  0.00  0.00    -0.393 OA
ATOM     23  H   LIG    1      -31.078  80.471  11.385  0.00  0.00    +0.209 HD
ENDBRANCH  21  22
ENDBRANCH  20  21
ENDBRANCH   6  20
ENDBRANCH   1   3
BRANCH   1  26
ATOM     24  C   LIG    1      -25.929  84.324  11.537  0.00  0.00    +0.035 A 
ATOM     25  C   LIG    1      -27.102  84.050  10.825  0.00  0.00    +0.046 A 
ATOM     26  C   LIG    1      -27.643  84.944   9.885  0.00  0.00    +0.033 A 
ATOM     27  C   LIG    1      -26.946  86.125   9.627  0.00  0.00    +0.023 A 
ATOM     28  C   LIG    1      -25.769  86.414  10.329  0.00  0.00    +0.004 A 
ATOM     29  C   LIG    1      -25.259  85.517  11.279  0.00  0.00    +0.023 A 
BRANCH  24  31
ATOM     30  C   LIG    1      -24.818  82.191  12.254  0.00  0.00    +0.248 C 
ATOM     31  N   LIG    1      -25.531  83.353  12.485  0.00  0.00    -0.281 N 
ATOM     32  H   LIG    1      -25.910  83.486  13.415  0.00  0.00    +0.155 HD
ATOM     33  O   LIG    1      -24.434  81.786  11.164  0.00  0.00    -0.270 OA
BRANCH  30  36
ATOM     34  C   LIG    1      -23.318  80.969  15.537  0.00  0.00    +0.056 A 
ATOM     35  C   LIG    1      -23.563  81.715  14.368  0.00  0.00    +0.025 A 
ATOM     36  C   LIG    1      -24.571  81.336  13.464  0.00  0.00    +0.038 A 
ATOM     37  C   LIG    1      -25.336  80.193  13.737  0.00  0.00    +0.013 A 
ATOM     38  C   LIG    1      -25.120  79.466  14.911  0.00  0.00    +0.001 A 
ATOM     39  C   LIG    1      -24.126  79.855  15.810  0.00  0.00    +0.012 A 
BRANCH  34  41
ATOM     40  F   LIG    1      -21.303  82.226  15.914  0.00  0.00    -0.166 F 
ATOM     41  C   LIG    1      -22.190  81.350  16.468  0.00  0.00    +0.417 C 
ATOM     42  F   LIG    1      -22.639  81.955  17.603  0.00  0.00    -0.166 F 
ATOM     43  F   LIG    1      -21.452  80.282  16.875  0.00  0.00    -0.166 F 
ENDBRANCH  34  41
ENDBRANCH  30  36
ENDBRANCH  24  31
ENDBRANCH   1  26
TORSDOF 9
ENDMDL
MODEL 9
REMARK VINA RESULT:      -6.6      3.738      9.142
REMARK  Name = modded_pdb/CHEMBL2037208_nitrogen_modded_with_ethanol_version_3.pdb
REMARK                            x       y       z     vdW  Elec       q    Type
REMARK                         _______ _______ _______ _____ _____    ______ ____
ROOT
ATOM      1  N   LIG    1      -39.981  71.102  24.529  0.00  0.00    -0.314 N 
ATOM      2  H   LIG    1      -40.905  70.727  24.320  0.00  0.00    +0.152 HD
ENDROOT
BRANCH   1   3
ATOM      3  C   LIG    1      -39.970  72.512  24.386  0.00  0.00    +0.033 A 
ATOM      4  C   LIG    1      -38.971  73.290  24.983  0.00  0.00    +0.047 A 
ATOM      5  C   LIG    1      -39.023  74.662  24.855  0.00  0.00    +0.046 A 
ATOM      6  N   LIG    1      -38.168  75.607  25.435  0.00  0.00    -0.265 N 
ATOM      7  C   LIG    1      -38.545  76.903  25.093  0.00  0.00    +0.252 C 
ATOM      8  O   LIG    1      -37.988  77.923  25.421  0.00  0.00    -0.270 OA
ATOM      9  C   LIG    1      -39.775  76.742  24.222  0.00  0.00    +0.048 C 
ATOM     10  C   LIG    1      -40.558  77.688  23.678  0.00  0.00    +0.039 C 
ATOM     11  C   LIG    1      -40.020  75.296  24.108  0.00  0.00    +0.009 A 
ATOM     12  C   LIG    1      -40.994  74.542  23.470  0.00  0.00    +0.012 A 
ATOM     13  C   LIG    1      -40.960  73.145  23.607  0.00  0.00    +0.024 A 
BRANCH  10  14
ATOM     14  C   LIG    1      -40.410  79.094  23.795  0.00  0.00    +0.040 A 
ATOM     15  N   LIG    1      -39.423  79.780  23.126  0.00  0.00    -0.361 N 
ATOM     16  H   LIG    1      -38.680  79.350  22.583  0.00  0.00    +0.165 HD
ATOM     17  C   LIG    1      -39.496  81.118  23.410  0.00  0.00    +0.083 A 
ATOM     18  C   LIG    1      -40.562  81.310  24.255  0.00  0.00    +0.019 A 
ATOM     19  C   LIG    1      -41.150  80.041  24.482  0.00  0.00    +0.027 A 
ENDBRANCH  10  14
BRANCH   6  20
ATOM     20  C   LIG    1      -37.077  75.315  26.344  0.00  0.00    +0.142 C 
BRANCH  20  21
ATOM     21  C   LIG    1      -37.472  75.507  27.813  0.00  0.00    +0.175 C 
BRANCH  21  22
ATOM     22  O   LIG    1      -37.104  76.795  28.312  0.00  0.00    -0.393 OA
ATOM     23  H   LIG    1      -37.520  76.860  29.192  0.00  0.00    +0.209 HD
ENDBRANCH  21  22
ENDBRANCH  20  21
ENDBRANCH   6  20
ENDBRANCH   1   3
BRANCH   1  26
ATOM     24  C   LIG    1      -36.950  68.902  24.741  0.00  0.00    +0.035 A 
ATOM     25  C   LIG    1      -37.979  69.790  25.076  0.00  0.00    +0.046 A 
ATOM     26  C   LIG    1      -38.938  70.222  24.145  0.00  0.00    +0.033 A 
ATOM     27  C   LIG    1      -38.879  69.699  22.852  0.00  0.00    +0.023 A 
ATOM     28  C   LIG    1      -37.858  68.808  22.500  0.00  0.00    +0.004 A 
ATOM     29  C   LIG    1      -36.898  68.407  23.441  0.00  0.00    +0.023 A 
BRANCH  24  31
ATOM     30  C   LIG    1      -34.716  69.016  25.879  0.00  0.00    +0.248 C 
ATOM     31  N   LIG    1      -36.029  68.595  25.769  0.00  0.00    -0.281 N 
ATOM     32  H   LIG    1      -36.350  67.903  26.436  0.00  0.00    +0.155 HD
ATOM     33  O   LIG    1      -34.112  69.711  25.071  0.00  0.00    -0.270 OA
BRANCH  30  36
ATOM     34  C   LIG    1      -32.551  68.969  29.015  0.00  0.00    +0.056 A 
ATOM     35  C   LIG    1      -33.235  69.399  27.861  0.00  0.00    +0.025 A 
ATOM     36  C   LIG    1      -33.971  68.495  27.075  0.00  0.00    +0.038 A 
ATOM     37  C   LIG    1      -34.016  67.145  27.451  0.00  0.00    +0.013 A 
ATOM     38  C   LIG    1      -33.365  66.716  28.612  0.00  0.00    +0.001 A 
ATOM     39  C   LIG    1      -32.646  67.622  29.394  0.00  0.00    +0.012 A 
BRANCH  34  41
ATOM     40  F   LIG    1      -32.436  70.950  30.373  0.00  0.00    -0.166 F 
ATOM     41  C   LIG    1      -31.711  69.938  29.815  0.00  0.00    +0.417 C 
ATOM     42  F   LIG    1      -31.070  69.331  30.853  0.00  0.00    -0.166 F 
ATOM     43  F   LIG    1      -30.742  70.540  29.073  0.00  0.00    -0.166 F 
ENDBRANCH  34  41
ENDBRANCH  30  36
ENDBRANCH  24  31
ENDBRANCH   1  26
TORSDOF 9
ENDMDL
