MODEL 1
REMARK VINA RESULT:      -7.4      0.000      0.000
REMARK  Name = modded_pdb/CHEMBL2037211_nitrogen_modded_with_ethanol_version_2.pdb
REMARK                            x       y       z     vdW  Elec       q    Type
REMARK                         _______ _______ _______ _____ _____    ______ ____
ROOT
ATOM      1  C   LIG    1      -38.189  75.272  25.038  0.00  0.00    +0.035 A 
ATOM      2  C   LIG    1      -38.617  73.927  25.029  0.00  0.00    +0.046 A 
ATOM      3  C   LIG    1      -39.834  73.520  24.446  0.00  0.00    +0.036 A 
ATOM      4  C   LIG    1      -40.635  74.540  23.901  0.00  0.00    +0.023 A 
ATOM      5  C   LIG    1      -40.217  75.875  23.887  0.00  0.00    +0.004 A 
ATOM      6  C   LIG    1      -38.990  76.235  24.438  0.00  0.00    +0.023 A 
ENDROOT
BRANCH   1   8
ATOM      7  C   LIG    1      -36.763  75.873  27.017  0.00  0.00    +0.248 C 
ATOM      8  N   LIG    1      -36.961  75.567  25.675  0.00  0.00    -0.281 N 
ATOM      9  H   LIG    1      -36.141  75.430  25.100  0.00  0.00    +0.155 HD
ATOM     10  O   LIG    1      -37.620  75.920  27.891  0.00  0.00    -0.270 OA
BRANCH   7  15
ATOM     11  C   LIG    1      -33.265  75.306  28.463  0.00  0.00    +0.031 A 
ATOM     12  C   LIG    1      -32.677  76.532  28.092  0.00  0.00    +0.035 A 
ATOM     13  C   LIG    1      -33.391  77.557  27.424  0.00  0.00    +0.057 A 
ATOM     14  C   LIG    1      -34.734  77.351  27.101  0.00  0.00    +0.025 A 
ATOM     15  C   LIG    1      -35.344  76.133  27.413  0.00  0.00    +0.039 A 
ATOM     16  C   LIG    1      -34.621  75.133  28.105  0.00  0.00    +0.036 A 
BRANCH  11  21
ATOM     17  C   LIG    1      -31.808  72.334  32.236  0.00  0.00    +0.105 C 
ATOM     18  N   LIG    1      -32.631  73.514  32.004  0.00  0.00    -0.302 NA
ATOM     19  C   LIG    1      -33.739  73.248  31.049  0.00  0.00    +0.103 C 
ATOM     20  C   LIG    1      -33.329  73.104  29.555  0.00  0.00    +0.120 C 
ATOM     21  N   LIG    1      -32.553  74.279  29.098  0.00  0.00    -0.327 N 
ATOM     22  C   LIG    1      -31.414  74.574  29.994  0.00  0.00    +0.120 C 
ATOM     23  C   LIG    1      -31.831  74.653  31.487  0.00  0.00    +0.103 C 
ENDBRANCH  11  21
BRANCH  13  24
ATOM     24  C   LIG    1      -32.693  78.850  27.039  0.00  0.00    +0.417 C 
ATOM     25  F   LIG    1      -32.256  78.807  25.752  0.00  0.00    -0.166 F 
ATOM     26  F   LIG    1      -31.594  79.073  27.805  0.00  0.00    -0.166 F 
ATOM     27  F   LIG    1      -33.478  79.949  27.147  0.00  0.00    -0.166 F 
ENDBRANCH  13  24
ENDBRANCH   7  15
ENDBRANCH   1   8
BRANCH   3  28
ATOM     28  N   LIG    1      -40.260  72.164  24.392  0.00  0.00    -0.298 N 
BRANCH  28  29
ATOM     29  C   LIG    1      -39.546  71.081  23.804  0.00  0.00    +0.036 A 
ATOM     30  C   LIG    1      -38.245  70.752  24.208  0.00  0.00    +0.047 A 
ATOM     31  C   LIG    1      -37.578  69.730  23.561  0.00  0.00    +0.043 A 
ATOM     32  N   LIG    1      -36.270  69.346  23.810  0.00  0.00    -0.281 N 
ATOM     33  H   LIG    1      -35.645  69.763  24.483  0.00  0.00    +0.155 HD
ATOM     34  C   LIG    1      -35.870  68.326  22.968  0.00  0.00    +0.249 C 
ATOM     35  O   LIG    1      -34.778  67.817  22.964  0.00  0.00    -0.270 OA
ATOM     36  C   LIG    1      -37.098  67.999  22.127  0.00  0.00    +0.048 C 
ATOM     37  C   LIG    1      -37.248  67.038  21.197  0.00  0.00    +0.039 C 
ATOM     38  C   LIG    1      -38.139  68.964  22.540  0.00  0.00    +0.008 A 
ATOM     39  C   LIG    1      -39.428  69.244  22.131  0.00  0.00    +0.012 A 
ATOM     40  C   LIG    1      -40.119  70.303  22.762  0.00  0.00    +0.024 A 
BRANCH  37  41
ATOM     41  C   LIG    1      -36.264  66.086  20.798  0.00  0.00    +0.040 A 
ATOM     42  N   LIG    1      -35.168  66.479  20.066  0.00  0.00    -0.361 N 
ATOM     43  H   LIG    1      -35.028  67.408  19.687  0.00  0.00    +0.165 HD
ATOM     44  C   LIG    1      -34.358  65.413  19.791  0.00  0.00    +0.083 A 
ATOM     45  C   LIG    1      -34.908  64.307  20.388  0.00  0.00    +0.019 A 
ATOM     46  C   LIG    1      -36.102  64.729  21.033  0.00  0.00    +0.027 A 
ENDBRANCH  37  41
ENDBRANCH  28  29
BRANCH  28  47
ATOM     47  C   LIG    1      -41.528  71.807  25.084  0.00  0.00    +0.138 C 
BRANCH  47  48
ATOM     48  C   LIG    1      -41.357  71.624  26.599  0.00  0.00    +0.175 C 
BRANCH  48  49
ATOM     49  O   LIG    1      -41.051  70.259  26.888  0.00  0.00    -0.393 OA
ATOM     50  H   LIG    1      -41.207  69.751  26.071  0.00  0.00    +0.209 HD
ENDBRANCH  48  49
ENDBRANCH  47  48
ENDBRANCH  28  47
ENDBRANCH   3  28
TORSDOF 10
ENDMDL
MODEL 2
REMARK VINA RESULT:      -7.3      4.137      9.625
REMARK  Name = modded_pdb/CHEMBL2037211_nitrogen_modded_with_ethanol_version_2.pdb
REMARK                            x       y       z     vdW  Elec       q    Type
REMARK                         _______ _______ _______ _____ _____    ______ ____
ROOT
ATOM      1  C   LIG    1      -37.427  76.378  27.230  0.00  0.00    +0.035 A 
ATOM      2  C   LIG    1      -36.023  76.268  27.320  0.00  0.00    +0.046 A 
ATOM      3  C   LIG    1      -35.228  77.213  27.999  0.00  0.00    +0.036 A 
ATOM      4  C   LIG    1      -35.907  78.311  28.558  0.00  0.00    +0.023 A 
ATOM      5  C   LIG    1      -37.300  78.424  28.493  0.00  0.00    +0.004 A 
ATOM      6  C   LIG    1      -38.057  77.451  27.847  0.00  0.00    +0.023 A 
ENDROOT
BRANCH   1   8
ATOM      7  C   LIG    1      -38.600  75.478  25.199  0.00  0.00    +0.248 C 
ATOM      8  N   LIG    1      -38.120  75.383  26.501  0.00  0.00    -0.281 N 
ATOM      9  H   LIG    1      -38.165  74.480  26.952  0.00  0.00    +0.155 HD
ATOM     10  O   LIG    1      -38.487  76.437  24.445  0.00  0.00    -0.270 OA
BRANCH   7  15
ATOM     11  C   LIG    1      -39.381  71.791  24.533  0.00  0.00    +0.031 A 
ATOM     12  C   LIG    1      -40.580  71.952  23.810  0.00  0.00    +0.035 A 
ATOM     13  C   LIG    1      -41.125  73.221  23.495  0.00  0.00    +0.057 A 
ATOM     14  C   LIG    1      -40.459  74.372  23.923  0.00  0.00    +0.025 A 
ATOM     15  C   LIG    1      -39.289  74.256  24.678  0.00  0.00    +0.039 A 
ATOM     16  C   LIG    1      -38.748  72.980  24.959  0.00  0.00    +0.036 A 
BRANCH  11  21
ATOM     17  C   LIG    1      -36.025  68.060  24.658  0.00  0.00    +0.105 C 
ATOM     18  N   LIG    1      -36.230  69.350  24.013  0.00  0.00    -0.302 NA
ATOM     19  C   LIG    1      -36.355  70.458  24.997  0.00  0.00    +0.103 C 
ATOM     20  C   LIG    1      -37.693  70.517  25.788  0.00  0.00    +0.120 C 
ATOM     21  N   LIG    1      -38.856  70.536  24.871  0.00  0.00    -0.327 N 
ATOM     22  C   LIG    1      -38.803  69.434  23.887  0.00  0.00    +0.120 C 
ATOM     23  C   LIG    1      -37.439  69.352  23.150  0.00  0.00    +0.103 C 
ENDBRANCH  11  21
BRANCH  13  24
ATOM     24  C   LIG    1      -42.431  73.324  22.726  0.00  0.00    +0.417 C 
ATOM     25  F   LIG    1      -42.700  74.613  22.388  0.00  0.00    -0.166 F 
ATOM     26  F   LIG    1      -43.484  72.898  23.469  0.00  0.00    -0.166 F 
ATOM     27  F   LIG    1      -42.446  72.608  21.576  0.00  0.00    -0.166 F 
ENDBRANCH  13  24
ENDBRANCH   7  15
ENDBRANCH   1   8
BRANCH   3  28
ATOM     28  N   LIG    1      -33.817  77.095  28.133  0.00  0.00    -0.298 N 
BRANCH  28  29
ATOM     29  C   LIG    1      -33.110  75.957  28.618  0.00  0.00    +0.036 A 
ATOM     30  C   LIG    1      -33.570  74.653  28.390  0.00  0.00    +0.047 A 
ATOM     31  C   LIG    1      -32.877  73.591  28.936  0.00  0.00    +0.043 A 
ATOM     32  N   LIG    1      -33.255  72.261  28.850  0.00  0.00    -0.281 N 
ATOM     33  H   LIG    1      -34.078  71.905  28.387  0.00  0.00    +0.155 HD
ATOM     34  C   LIG    1      -32.384  71.438  29.538  0.00  0.00    +0.249 C 
ATOM     35  O   LIG    1      -32.490  70.241  29.633  0.00  0.00    -0.270 OA
ATOM     36  C   LIG    1      -31.301  72.365  30.074  0.00  0.00    +0.048 C 
ATOM     37  C   LIG    1      -30.189  72.047  30.762  0.00  0.00    +0.039 C 
ATOM     38  C   LIG    1      -31.705  73.731  29.678  0.00  0.00    +0.008 A 
ATOM     39  C   LIG    1      -31.209  74.999  29.903  0.00  0.00    +0.012 A 
ATOM     40  C   LIG    1      -31.917  76.102  29.376  0.00  0.00    +0.024 A 
BRANCH  37  41
ATOM     41  C   LIG    1      -29.770  70.737  31.137  0.00  0.00    +0.040 A 
ATOM     42  N   LIG    1      -30.466  70.026  32.087  0.00  0.00    -0.361 N 
ATOM     43  H   LIG    1      -31.231  70.394  32.639  0.00  0.00    +0.165 HD
ATOM     44  C   LIG    1      -29.896  68.801  32.294  0.00  0.00    +0.083 A 
ATOM     45  C   LIG    1      -28.833  68.687  31.435  0.00  0.00    +0.019 A 
ATOM     46  C   LIG    1      -28.758  69.899  30.696  0.00  0.00    +0.027 A 
ENDBRANCH  37  41
ENDBRANCH  28  29
BRANCH  28  47
ATOM     47  C   LIG    1      -32.978  78.223  27.646  0.00  0.00    +0.138 C 
BRANCH  47  48
ATOM     48  C   LIG    1      -32.256  77.912  26.326  0.00  0.00    +0.175 C 
BRANCH  48  49
ATOM     49  O   LIG    1      -32.265  79.070  25.489  0.00  0.00    -0.393 OA
ATOM     50  H   LIG    1      -32.956  78.933  24.817  0.00  0.00    +0.209 HD
ENDBRANCH  48  49
ENDBRANCH  47  48
ENDBRANCH  28  47
ENDBRANCH   3  28
TORSDOF 10
ENDMDL
MODEL 3
REMARK VINA RESULT:      -7.1      4.965     10.011
REMARK  Name = modded_pdb/CHEMBL2037211_nitrogen_modded_with_ethanol_version_2.pdb
REMARK                            x       y       z     vdW  Elec       q    Type
REMARK                         _______ _______ _______ _____ _____    ______ ____
ROOT
ATOM      1  C   LIG    1      -37.444  77.860  26.956  0.00  0.00    +0.035 A 
ATOM      2  C   LIG    1      -36.161  77.342  27.231  0.00  0.00    +0.046 A 
ATOM      3  C   LIG    1      -35.172  78.082  27.911  0.00  0.00    +0.036 A 
ATOM      4  C   LIG    1      -35.516  79.397  28.272  0.00  0.00    +0.023 A 
ATOM      5  C   LIG    1      -36.791  79.918  28.022  0.00  0.00    +0.004 A 
ATOM      6  C   LIG    1      -37.756  79.145  27.383  0.00  0.00    +0.023 A 
ENDROOT
BRANCH   1   8
ATOM      7  C   LIG    1      -38.248  76.631  24.917  0.00  0.00    +0.248 C 
ATOM      8  N   LIG    1      -38.348  77.036  26.244  0.00  0.00    -0.281 N 
ATOM      9  H   LIG    1      -39.078  76.622  26.807  0.00  0.00    +0.155 HD
ATOM     10  O   LIG    1      -37.343  76.900  24.136  0.00  0.00    -0.270 OA
BRANCH   7  15
ATOM     11  C   LIG    1      -41.578  75.541  23.377  0.00  0.00    +0.031 A 
ATOM     12  C   LIG    1      -41.396  74.146  23.435  0.00  0.00    +0.035 A 
ATOM     13  C   LIG    1      -40.243  73.542  23.996  0.00  0.00    +0.057 A 
ATOM     14  C   LIG    1      -39.230  74.356  24.508  0.00  0.00    +0.025 A 
ATOM     15  C   LIG    1      -39.352  75.746  24.432  0.00  0.00    +0.039 A 
ATOM     16  C   LIG    1      -40.523  76.328  23.892  0.00  0.00    +0.036 A 
BRANCH  11  21
ATOM     17  C   LIG    1      -46.271  77.304  23.125  0.00  0.00    +0.105 C 
ATOM     18  N   LIG    1      -45.409  76.564  24.037  0.00  0.00    -0.302 NA
ATOM     19  C   LIG    1      -44.195  77.336  24.415  0.00  0.00    +0.103 C 
ATOM     20  C   LIG    1      -43.104  77.469  23.315  0.00  0.00    +0.120 C 
ATOM     21  N   LIG    1      -42.704  76.141  22.796  0.00  0.00    -0.327 N 
ATOM     22  C   LIG    1      -43.870  75.337  22.372  0.00  0.00    +0.120 C 
ATOM     23  C   LIG    1      -44.976  75.266  23.459  0.00  0.00    +0.103 C 
ENDBRANCH  11  21
BRANCH  13  24
ATOM     24  C   LIG    1      -40.102  72.029  24.013  0.00  0.00    +0.417 C 
ATOM     25  F   LIG    1      -40.737  71.466  22.951  0.00  0.00    -0.166 F 
ATOM     26  F   LIG    1      -40.666  71.487  25.124  0.00  0.00    -0.166 F 
ATOM     27  F   LIG    1      -38.818  71.600  23.974  0.00  0.00    -0.166 F 
ENDBRANCH  13  24
ENDBRANCH   7  15
ENDBRANCH   1   8
BRANCH   3  28
ATOM     28  N   LIG    1      -33.889  77.560  28.232  0.00  0.00    -0.298 N 
BRANCH  28  29
ATOM     29  C   LIG    1      -33.594  76.213  28.592  0.00  0.00    +0.036 A 
ATOM     30  C   LIG    1      -34.023  75.132  27.811  0.00  0.00    +0.047 A 
ATOM     31  C   LIG    1      -33.761  73.846  28.241  0.00  0.00    +0.043 A 
ATOM     32  N   LIG    1      -34.185  72.689  27.607  0.00  0.00    -0.281 N 
ATOM     33  H   LIG    1      -34.736  72.641  26.763  0.00  0.00    +0.155 HD
ATOM     34  C   LIG    1      -33.807  71.558  28.305  0.00  0.00    +0.249 C 
ATOM     35  O   LIG    1      -34.059  70.425  27.980  0.00  0.00    -0.270 OA
ATOM     36  C   LIG    1      -33.004  72.073  29.492  0.00  0.00    +0.048 C 
ATOM     37  C   LIG    1      -32.365  71.367  30.444  0.00  0.00    +0.039 C 
ATOM     38  C   LIG    1      -33.050  73.548  29.403  0.00  0.00    +0.008 A 
ATOM     39  C   LIG    1      -32.591  74.588  30.186  0.00  0.00    +0.012 A 
ATOM     40  C   LIG    1      -32.871  75.912  29.777  0.00  0.00    +0.024 A 
BRANCH  37  41
ATOM     41  C   LIG    1      -32.292  69.946  30.539  0.00  0.00    +0.040 A 
ATOM     42  N   LIG    1      -33.418  69.206  30.814  0.00  0.00    -0.361 N 
ATOM     43  H   LIG    1      -34.321  69.595  31.057  0.00  0.00    +0.165 HD
ATOM     44  C   LIG    1      -33.125  67.872  30.861  0.00  0.00    +0.083 A 
ATOM     45  C   LIG    1      -31.792  67.728  30.568  0.00  0.00    +0.019 A 
ATOM     46  C   LIG    1      -31.267  69.032  30.353  0.00  0.00    +0.027 A 
ENDBRANCH  37  41
ENDBRANCH  28  29
BRANCH  28  47
ATOM     47  C   LIG    1      -32.718  78.468  28.102  0.00  0.00    +0.138 C 
BRANCH  47  48
ATOM     48  C   LIG    1      -32.366  78.794  26.643  0.00  0.00    +0.175 C 
BRANCH  48  49
ATOM     49  O   LIG    1      -31.831  77.633  26.006  0.00  0.00    -0.393 OA
ATOM     50  H   LIG    1      -31.044  77.916  25.507  0.00  0.00    +0.209 HD
ENDBRANCH  48  49
ENDBRANCH  47  48
ENDBRANCH  28  47
ENDBRANCH   3  28
TORSDOF 10
ENDMDL
MODEL 4
REMARK VINA RESULT:      -7.0      5.985     12.473
REMARK  Name = modded_pdb/CHEMBL2037211_nitrogen_modded_with_ethanol_version_2.pdb
REMARK                            x       y       z     vdW  Elec       q    Type
REMARK                         _______ _______ _______ _____ _____    ______ ____
ROOT
ATOM      1  C   LIG    1      -35.959  76.428  27.070  0.00  0.00    +0.035 A 
ATOM      2  C   LIG    1      -36.399  77.691  27.518  0.00  0.00    +0.046 A 
ATOM      3  C   LIG    1      -35.549  78.603  28.176  0.00  0.00    +0.036 A 
ATOM      4  C   LIG    1      -34.230  78.172  28.404  0.00  0.00    +0.023 A 
ATOM      5  C   LIG    1      -33.774  76.929  27.950  0.00  0.00    +0.004 A 
ATOM      6  C   LIG    1      -34.632  76.069  27.269  0.00  0.00    +0.023 A 
ENDROOT
BRANCH   1   8
ATOM      7  C   LIG    1      -37.468  75.741  25.183  0.00  0.00    +0.248 C 
ATOM      8  N   LIG    1      -36.908  75.584  26.446  0.00  0.00    -0.281 N 
ATOM      9  H   LIG    1      -37.104  74.726  26.942  0.00  0.00    +0.155 HD
ATOM     10  O   LIG    1      -37.220  76.630  24.377  0.00  0.00    -0.270 OA
BRANCH   7  15
ATOM     11  C   LIG    1      -39.011  72.279  24.649  0.00  0.00    +0.031 A 
ATOM     12  C   LIG    1      -40.256  72.677  24.124  0.00  0.00    +0.035 A 
ATOM     13  C   LIG    1      -40.599  74.033  23.897  0.00  0.00    +0.057 A 
ATOM     14  C   LIG    1      -39.674  75.030  24.215  0.00  0.00    +0.025 A 
ATOM     15  C   LIG    1      -38.443  74.681  24.777  0.00  0.00    +0.039 A 
ATOM     16  C   LIG    1      -38.111  73.319  24.971  0.00  0.00    +0.036 A 
BRANCH  11  21
ATOM     17  C   LIG    1      -38.036  67.472  23.581  0.00  0.00    +0.105 C 
ATOM     18  N   LIG    1      -38.494  68.687  22.920  0.00  0.00    -0.302 NA
ATOM     19  C   LIG    1      -37.500  69.789  23.017  0.00  0.00    +0.103 C 
ATOM     20  C   LIG    1      -37.367  70.465  24.411  0.00  0.00    +0.120 C 
ATOM     21  N   LIG    1      -38.681  70.940  24.902  0.00  0.00    -0.327 N 
ATOM     22  C   LIG    1      -39.706  69.875  24.860  0.00  0.00    +0.120 C 
ATOM     23  C   LIG    1      -39.782  69.170  23.479  0.00  0.00    +0.103 C 
ENDBRANCH  11  21
BRANCH  13  24
ATOM     24  C   LIG    1      -41.966  74.395  23.342  0.00  0.00    +0.417 C 
ATOM     25  F   LIG    1      -42.904  74.416  24.326  0.00  0.00    -0.166 F 
ATOM     26  F   LIG    1      -42.393  73.483  22.430  0.00  0.00    -0.166 F 
ATOM     27  F   LIG    1      -42.007  75.606  22.737  0.00  0.00    -0.166 F 
ENDBRANCH  13  24
ENDBRANCH   7  15
ENDBRANCH   1   8
BRANCH   3  28
ATOM     28  N   LIG    1      -35.966  79.896  28.597  0.00  0.00    -0.298 N 
BRANCH  28  29
ATOM     29  C   LIG    1      -36.501  80.920  27.764  0.00  0.00    +0.036 A 
ATOM     30  C   LIG    1      -35.699  81.950  27.255  0.00  0.00    +0.047 A 
ATOM     31  C   LIG    1      -36.284  82.950  26.503  0.00  0.00    +0.043 A 
ATOM     32  N   LIG    1      -35.626  84.059  25.998  0.00  0.00    -0.281 N 
ATOM     33  H   LIG    1      -34.649  84.278  26.120  0.00  0.00    +0.155 HD
ATOM     34  C   LIG    1      -36.491  84.903  25.328  0.00  0.00    +0.249 C 
ATOM     35  O   LIG    1      -36.179  85.944  24.806  0.00  0.00    -0.270 OA
ATOM     36  C   LIG    1      -37.844  84.206  25.377  0.00  0.00    +0.048 C 
ATOM     37  C   LIG    1      -39.006  84.589  24.817  0.00  0.00    +0.039 C 
ATOM     38  C   LIG    1      -37.639  82.979  26.176  0.00  0.00    +0.008 A 
ATOM     39  C   LIG    1      -38.457  81.969  26.640  0.00  0.00    +0.012 A 
ATOM     40  C   LIG    1      -37.883  80.950  27.433  0.00  0.00    +0.024 A 
BRANCH  37  41
ATOM     41  C   LIG    1      -39.222  85.756  24.027  0.00  0.00    +0.040 A 
ATOM     42  N   LIG    1      -39.201  87.004  24.604  0.00  0.00    -0.361 N 
ATOM     43  H   LIG    1      -39.133  87.180  25.600  0.00  0.00    +0.165 HD
ATOM     44  C   LIG    1      -39.430  87.977  23.672  0.00  0.00    +0.083 A 
ATOM     45  C   LIG    1      -39.562  87.362  22.453  0.00  0.00    +0.019 A 
ATOM     46  C   LIG    1      -39.420  85.964  22.670  0.00  0.00    +0.027 A 
ENDBRANCH  37  41
ENDBRANCH  28  29
BRANCH  28  47
ATOM     47  C   LIG    1      -35.927  80.197  30.053  0.00  0.00    +0.138 C 
BRANCH  47  48
ATOM     48  C   LIG    1      -36.810  79.258  30.887  0.00  0.00    +0.175 C 
BRANCH  48  49
ATOM     49  O   LIG    1      -38.188  79.561  30.657  0.00  0.00    -0.393 OA
ATOM     50  H   LIG    1      -38.691  78.741  30.808  0.00  0.00    +0.209 HD
ENDBRANCH  48  49
ENDBRANCH  47  48
ENDBRANCH  28  47
ENDBRANCH   3  28
TORSDOF 10
ENDMDL
MODEL 5
REMARK VINA RESULT:      -7.0      6.010      9.934
REMARK  Name = modded_pdb/CHEMBL2037211_nitrogen_modded_with_ethanol_version_2.pdb
REMARK                            x       y       z     vdW  Elec       q    Type
REMARK                         _______ _______ _______ _____ _____    ______ ____
ROOT
ATOM      1  C   LIG    1      -35.086  80.632  29.421  0.00  0.00    +0.035 A 
ATOM      2  C   LIG    1      -34.119  79.759  28.880  0.00  0.00    +0.046 A 
ATOM      3  C   LIG    1      -34.110  78.375  29.147  0.00  0.00    +0.036 A 
ATOM      4  C   LIG    1      -35.104  77.903  30.023  0.00  0.00    +0.023 A 
ATOM      5  C   LIG    1      -36.081  78.754  30.553  0.00  0.00    +0.004 A 
ATOM      6  C   LIG    1      -36.081  80.110  30.237  0.00  0.00    +0.023 A 
ENDROOT
BRANCH   1   8
ATOM      7  C   LIG    1      -34.506  83.024  29.929  0.00  0.00    +0.248 C 
ATOM      8  N   LIG    1      -34.980  82.008  29.106  0.00  0.00    -0.281 N 
ATOM      9  H   LIG    1      -35.173  82.237  28.140  0.00  0.00    +0.155 HD
ATOM     10  O   LIG    1      -34.075  82.901  31.068  0.00  0.00    -0.270 OA
BRANCH   7  15
ATOM     11  C   LIG    1      -35.465  85.974  27.687  0.00  0.00    +0.031 A 
ATOM     12  C   LIG    1      -34.589  86.941  28.218  0.00  0.00    +0.035 A 
ATOM     13  C   LIG    1      -33.665  86.659  29.254  0.00  0.00    +0.057 A 
ATOM     14  C   LIG    1      -33.619  85.369  29.790  0.00  0.00    +0.025 A 
ATOM     15  C   LIG    1      -34.500  84.391  29.321  0.00  0.00    +0.039 A 
ATOM     16  C   LIG    1      -35.395  84.688  28.267  0.00  0.00    +0.036 A 
BRANCH  11  21
ATOM     17  C   LIG    1      -39.270  85.117  24.527  0.00  0.00    +0.105 C 
ATOM     18  N   LIG    1      -38.434  84.400  25.483  0.00  0.00    -0.302 NA
ATOM     19  C   LIG    1      -38.537  84.965  26.854  0.00  0.00    +0.103 C 
ATOM     20  C   LIG    1      -37.823  86.328  27.084  0.00  0.00    +0.120 C 
ATOM     21  N   LIG    1      -36.399  86.260  26.681  0.00  0.00    -0.327 N 
ATOM     22  C   LIG    1      -36.235  85.734  25.309  0.00  0.00    +0.120 C 
ATOM     23  C   LIG    1      -37.005  84.405  25.080  0.00  0.00    +0.103 C 
ENDBRANCH  11  21
BRANCH  13  24
ATOM     24  C   LIG    1      -32.760  87.752  29.793  0.00  0.00    +0.417 C 
ATOM     25  F   LIG    1      -32.657  88.782  28.911  0.00  0.00    -0.166 F 
ATOM     26  F   LIG    1      -31.495  87.300  29.997  0.00  0.00    -0.166 F 
ATOM     27  F   LIG    1      -33.182  88.283  30.966  0.00  0.00    -0.166 F 
ENDBRANCH  13  24
ENDBRANCH   7  15
ENDBRANCH   1   8
BRANCH   3  28
ATOM     28  N   LIG    1      -33.167  77.475  28.578  0.00  0.00    -0.298 N 
BRANCH  28  29
ATOM     29  C   LIG    1      -33.248  76.052  28.590  0.00  0.00    +0.036 A 
ATOM     30  C   LIG    1      -34.254  75.367  27.896  0.00  0.00    +0.047 A 
ATOM     31  C   LIG    1      -34.320  73.990  27.993  0.00  0.00    +0.043 A 
ATOM     32  N   LIG    1      -35.298  73.194  27.419  0.00  0.00    -0.281 N 
ATOM     33  H   LIG    1      -36.079  73.516  26.869  0.00  0.00    +0.155 HD
ATOM     34  C   LIG    1      -35.120  71.861  27.736  0.00  0.00    +0.249 C 
ATOM     35  O   LIG    1      -35.836  70.961  27.377  0.00  0.00    -0.270 OA
ATOM     36  C   LIG    1      -33.843  71.816  28.565  0.00  0.00    +0.048 C 
ATOM     37  C   LIG    1      -33.206  70.743  29.069  0.00  0.00    +0.039 C 
ATOM     38  C   LIG    1      -33.409  73.222  28.717  0.00  0.00    +0.008 A 
ATOM     39  C   LIG    1      -32.391  73.861  29.395  0.00  0.00    +0.012 A 
ATOM     40  C   LIG    1      -32.321  75.271  29.330  0.00  0.00    +0.024 A 
BRANCH  37  41
ATOM     41  C   LIG    1      -33.595  69.380  28.918  0.00  0.00    +0.040 A 
ATOM     42  N   LIG    1      -33.535  68.768  27.688  0.00  0.00    -0.361 N 
ATOM     43  H   LIG    1      -33.317  69.238  26.818  0.00  0.00    +0.165 HD
ATOM     44  C   LIG    1      -33.952  67.468  27.769  0.00  0.00    +0.083 A 
ATOM     45  C   LIG    1      -34.249  67.208  29.083  0.00  0.00    +0.019 A 
ATOM     46  C   LIG    1      -34.014  68.406  29.812  0.00  0.00    +0.027 A 
ENDBRANCH  37  41
ENDBRANCH  28  29
BRANCH  28  47
ATOM     47  C   LIG    1      -32.026  78.054  27.819  0.00  0.00    +0.138 C 
BRANCH  47  48
ATOM     48  C   LIG    1      -32.100  77.774  26.311  0.00  0.00    +0.175 C 
BRANCH  48  49
ATOM     49  O   LIG    1      -32.369  78.989  25.608  0.00  0.00    -0.393 OA
ATOM     50  H   LIG    1      -31.641  79.603  25.809  0.00  0.00    +0.209 HD
ENDBRANCH  48  49
ENDBRANCH  47  48
ENDBRANCH  28  47
ENDBRANCH   3  28
TORSDOF 10
ENDMDL
MODEL 6
REMARK VINA RESULT:      -7.0      4.016     11.822
REMARK  Name = modded_pdb/CHEMBL2037211_nitrogen_modded_with_ethanol_version_2.pdb
REMARK                            x       y       z     vdW  Elec       q    Type
REMARK                         _______ _______ _______ _____ _____    ______ ____
ROOT
ATOM      1  C   LIG    1      -35.481  71.512  27.413  0.00  0.00    +0.035 A 
ATOM      2  C   LIG    1      -34.718  72.630  27.811  0.00  0.00    +0.046 A 
ATOM      3  C   LIG    1      -33.584  72.520  28.642  0.00  0.00    +0.036 A 
ATOM      4  C   LIG    1      -33.268  71.227  29.096  0.00  0.00    +0.023 A 
ATOM      5  C   LIG    1      -34.005  70.107  28.695  0.00  0.00    +0.004 A 
ATOM      6  C   LIG    1      -35.095  70.248  27.842  0.00  0.00    +0.023 A 
ENDROOT
BRANCH   1   8
ATOM      7  C   LIG    1      -36.798  71.339  25.280  0.00  0.00    +0.248 C 
ATOM      8  N   LIG    1      -36.614  71.745  26.598  0.00  0.00    -0.281 N 
ATOM      9  H   LIG    1      -37.403  72.156  27.077  0.00  0.00    +0.155 HD
ATOM     10  O   LIG    1      -36.017  70.686  24.599  0.00  0.00    -0.270 OA
BRANCH   7  15
ATOM     11  C   LIG    1      -40.194  71.016  23.544  0.00  0.00    +0.031 A 
ATOM     12  C   LIG    1      -40.595  72.365  23.603  0.00  0.00    +0.035 A 
ATOM     13  C   LIG    1      -39.782  73.388  24.151  0.00  0.00    +0.057 A 
ATOM     14  C   LIG    1      -38.529  73.054  24.671  0.00  0.00    +0.025 A 
ATOM     15  C   LIG    1      -38.110  71.720  24.670  0.00  0.00    +0.039 A 
ATOM     16  C   LIG    1      -38.927  70.720  24.093  0.00  0.00    +0.036 A 
BRANCH  11  21
ATOM     17  C   LIG    1      -43.938  68.984  20.888  0.00  0.00    +0.105 C 
ATOM     18  N   LIG    1      -43.431  70.295  21.273  0.00  0.00    -0.302 NA
ATOM     19  C   LIG    1      -42.038  70.520  20.804  0.00  0.00    +0.103 C 
ATOM     20  C   LIG    1      -40.929  69.744  21.571  0.00  0.00    +0.120 C 
ATOM     21  N   LIG    1      -41.009  69.999  23.028  0.00  0.00    -0.327 N 
ATOM     22  C   LIG    1      -42.368  69.760  23.559  0.00  0.00    +0.120 C 
ATOM     23  C   LIG    1      -43.468  70.493  22.744  0.00  0.00    +0.103 C 
ENDBRANCH  11  21
BRANCH  13  24
ATOM     24  C   LIG    1      -40.282  74.821  24.199  0.00  0.00    +0.417 C 
ATOM     25  F   LIG    1      -41.139  75.075  23.175  0.00  0.00    -0.166 F 
ATOM     26  F   LIG    1      -39.263  75.711  24.071  0.00  0.00    -0.166 F 
ATOM     27  F   LIG    1      -40.936  75.134  25.342  0.00  0.00    -0.166 F 
ENDBRANCH  13  24
ENDBRANCH   7  15
ENDBRANCH   1   8
BRANCH   3  28
ATOM     28  N   LIG    1      -32.781  73.632  29.019  0.00  0.00    -0.298 N 
BRANCH  28  29
ATOM     29  C   LIG    1      -33.207  74.989  29.098  0.00  0.00    +0.036 A 
ATOM     30  C   LIG    1      -33.174  75.837  27.983  0.00  0.00    +0.047 A 
ATOM     31  C   LIG    1      -33.542  77.160  28.133  0.00  0.00    +0.043 A 
ATOM     32  N   LIG    1      -33.492  78.122  27.138  0.00  0.00    -0.281 N 
ATOM     33  H   LIG    1      -33.179  77.980  26.189  0.00  0.00    +0.155 HD
ATOM     34  C   LIG    1      -33.879  79.362  27.608  0.00  0.00    +0.249 C 
ATOM     35  O   LIG    1      -33.913  80.373  26.952  0.00  0.00    -0.270 OA
ATOM     36  C   LIG    1      -34.268  79.133  29.062  0.00  0.00    +0.048 C 
ATOM     37  C   LIG    1      -34.769  80.015  29.946  0.00  0.00    +0.039 C 
ATOM     38  C   LIG    1      -33.991  77.706  29.335  0.00  0.00    +0.008 A 
ATOM     39  C   LIG    1      -34.059  76.895  30.450  0.00  0.00    +0.012 A 
ATOM     40  C   LIG    1      -33.663  75.545  30.324  0.00  0.00    +0.024 A 
BRANCH  37  41
ATOM     41  C   LIG    1      -35.062  81.389  29.700  0.00  0.00    +0.040 A 
ATOM     42  N   LIG    1      -36.096  81.744  28.866  0.00  0.00    -0.361 N 
ATOM     43  H   LIG    1      -36.642  81.095  28.312  0.00  0.00    +0.165 HD
ATOM     44  C   LIG    1      -36.200  83.103  28.770  0.00  0.00    +0.083 A 
ATOM     45  C   LIG    1      -35.245  83.652  29.587  0.00  0.00    +0.019 A 
ATOM     46  C   LIG    1      -34.534  82.576  30.184  0.00  0.00    +0.027 A 
ENDBRANCH  37  41
ENDBRANCH  28  29
BRANCH  28  47
ATOM     47  C   LIG    1      -31.386  73.362  29.457  0.00  0.00    +0.138 C 
BRANCH  47  48
ATOM     48  C   LIG    1      -31.227  73.335  30.985  0.00  0.00    +0.175 C 
BRANCH  48  49
ATOM     49  O   LIG    1      -30.184  72.428  31.345  0.00  0.00    -0.393 OA
ATOM     50  H   LIG    1      -30.295  72.224  32.290  0.00  0.00    +0.209 HD
ENDBRANCH  48  49
ENDBRANCH  47  48
ENDBRANCH  28  47
ENDBRANCH   3  28
TORSDOF 10
ENDMDL
MODEL 7
REMARK VINA RESULT:      -6.9      7.593     12.440
REMARK  Name = modded_pdb/CHEMBL2037211_nitrogen_modded_with_ethanol_version_2.pdb
REMARK                            x       y       z     vdW  Elec       q    Type
REMARK                         _______ _______ _______ _____ _____    ______ ____
ROOT
ATOM      1  C   LIG    1      -27.742  76.536  33.079  0.00  0.00    +0.035 A 
ATOM      2  C   LIG    1      -28.370  75.639  32.190  0.00  0.00    +0.046 A 
ATOM      3  C   LIG    1      -29.748  75.347  32.252  0.00  0.00    +0.036 A 
ATOM      4  C   LIG    1      -30.472  75.972  33.283  0.00  0.00    +0.023 A 
ATOM      5  C   LIG    1      -29.866  76.877  34.162  0.00  0.00    +0.004 A 
ATOM      6  C   LIG    1      -28.510  77.171  34.047  0.00  0.00    +0.023 A 
ENDROOT
BRANCH   1   8
ATOM      7  C   LIG    1      -25.688  77.353  31.885  0.00  0.00    +0.248 C 
ATOM      8  N   LIG    1      -26.348  76.732  32.940  0.00  0.00    -0.281 N 
ATOM      9  H   LIG    1      -25.801  76.485  33.754  0.00  0.00    +0.155 HD
ATOM     10  O   LIG    1      -26.204  77.861  30.897  0.00  0.00    -0.270 OA
BRANCH   7  15
ATOM     11  C   LIG    1      -22.228  77.901  33.426  0.00  0.00    +0.031 A 
ATOM     12  C   LIG    1      -21.438  77.495  32.332  0.00  0.00    +0.035 A 
ATOM     13  C   LIG    1      -21.990  77.088  31.093  0.00  0.00    +0.057 A 
ATOM     14  C   LIG    1      -23.379  77.072  30.939  0.00  0.00    +0.025 A 
ATOM     15  C   LIG    1      -24.199  77.427  32.014  0.00  0.00    +0.039 A 
ATOM     16  C   LIG    1      -23.627  77.856  33.234  0.00  0.00    +0.036 A 
BRANCH  11  21
ATOM     17  C   LIG    1      -20.821  81.004  37.113  0.00  0.00    +0.105 C 
ATOM     18  N   LIG    1      -21.347  81.057  35.754  0.00  0.00    -0.302 NA
ATOM     19  C   LIG    1      -22.660  80.370  35.632  0.00  0.00    +0.103 C 
ATOM     20  C   LIG    1      -22.622  78.816  35.675  0.00  0.00    +0.120 C 
ATOM     21  N   LIG    1      -21.685  78.276  34.663  0.00  0.00    -0.327 N 
ATOM     22  C   LIG    1      -20.347  78.900  34.757  0.00  0.00    +0.120 C 
ATOM     23  C   LIG    1      -20.409  80.451  34.775  0.00  0.00    +0.103 C 
ENDBRANCH  11  21
BRANCH  13  24
ATOM     24  C   LIG    1      -21.082  76.648  29.957  0.00  0.00    +0.417 C 
ATOM     25  F   LIG    1      -20.236  77.647  29.591  0.00  0.00    -0.166 F 
ATOM     26  F   LIG    1      -21.792  76.324  28.846  0.00  0.00    -0.166 F 
ATOM     27  F   LIG    1      -20.311  75.575  30.259  0.00  0.00    -0.166 F 
ENDBRANCH  13  24
ENDBRANCH   7  15
ENDBRANCH   1   8
BRANCH   3  28
ATOM     28  N   LIG    1      -30.404  74.477  31.338  0.00  0.00    -0.298 N 
BRANCH  28  29
ATOM     29  C   LIG    1      -31.496  74.818  30.488  0.00  0.00    +0.036 A 
ATOM     30  C   LIG    1      -31.584  76.073  29.872  0.00  0.00    +0.047 A 
ATOM     31  C   LIG    1      -32.695  76.370  29.107  0.00  0.00    +0.043 A 
ATOM     32  N   LIG    1      -32.945  77.590  28.501  0.00  0.00    -0.281 N 
ATOM     33  H   LIG    1      -32.357  78.409  28.545  0.00  0.00    +0.155 HD
ATOM     34  C   LIG    1      -34.162  77.594  27.845  0.00  0.00    +0.249 C 
ATOM     35  O   LIG    1      -34.626  78.532  27.248  0.00  0.00    -0.270 OA
ATOM     36  C   LIG    1      -34.712  76.184  28.020  0.00  0.00    +0.048 C 
ATOM     37  C   LIG    1      -35.843  75.656  27.519  0.00  0.00    +0.039 C 
ATOM     38  C   LIG    1      -33.734  75.471  28.870  0.00  0.00    +0.008 A 
ATOM     39  C   LIG    1      -33.670  74.215  29.440  0.00  0.00    +0.012 A 
ATOM     40  C   LIG    1      -32.554  73.900  30.248  0.00  0.00    +0.024 A 
BRANCH  37  41
ATOM     41  C   LIG    1      -36.790  76.319  26.683  0.00  0.00    +0.040 A 
ATOM     42  N   LIG    1      -37.499  77.400  27.151  0.00  0.00    -0.361 N 
ATOM     43  H   LIG    1      -37.480  77.734  28.108  0.00  0.00    +0.165 HD
ATOM     44  C   LIG    1      -38.346  77.880  26.193  0.00  0.00    +0.083 A 
ATOM     45  C   LIG    1      -38.161  77.128  25.060  0.00  0.00    +0.019 A 
ATOM     46  C   LIG    1      -37.173  76.152  25.361  0.00  0.00    +0.027 A 
ENDBRANCH  37  41
ENDBRANCH  28  29
BRANCH  28  47
ATOM     47  C   LIG    1      -29.860  73.102  31.177  0.00  0.00    +0.138 C 
BRANCH  47  48
ATOM     48  C   LIG    1      -30.025  72.237  32.435  0.00  0.00    +0.175 C 
BRANCH  48  49
ATOM     49  O   LIG    1      -30.149  70.863  32.062  0.00  0.00    -0.393 OA
ATOM     50  H   LIG    1      -29.537  70.711  31.321  0.00  0.00    +0.209 HD
ENDBRANCH  48  49
ENDBRANCH  47  48
ENDBRANCH  28  47
ENDBRANCH   3  28
TORSDOF 10
ENDMDL
MODEL 8
REMARK VINA RESULT:      -6.9      2.667      4.251
REMARK  Name = modded_pdb/CHEMBL2037211_nitrogen_modded_with_ethanol_version_2.pdb
REMARK                            x       y       z     vdW  Elec       q    Type
REMARK                         _______ _______ _______ _____ _____    ______ ____
ROOT
ATOM      1  C   LIG    1      -38.218  74.486  25.192  0.00  0.00    +0.035 A 
ATOM      2  C   LIG    1      -37.881  73.132  25.405  0.00  0.00    +0.046 A 
ATOM      3  C   LIG    1      -38.658  72.068  24.905  0.00  0.00    +0.036 A 
ATOM      4  C   LIG    1      -39.827  72.423  24.208  0.00  0.00    +0.023 A 
ATOM      5  C   LIG    1      -40.165  73.761  23.975  0.00  0.00    +0.004 A 
ATOM      6  C   LIG    1      -39.353  74.787  24.450  0.00  0.00    +0.023 A 
ENDROOT
BRANCH   1   8
ATOM      7  C   LIG    1      -37.051  75.619  27.107  0.00  0.00    +0.248 C 
ATOM      8  N   LIG    1      -37.378  75.471  25.763  0.00  0.00    -0.281 N 
ATOM      9  H   LIG    1      -36.889  76.051  25.095  0.00  0.00    +0.155 HD
ATOM     10  O   LIG    1      -37.417  74.905  28.032  0.00  0.00    -0.270 OA
BRANCH   7  15
ATOM     11  C   LIG    1      -35.823  79.051  28.275  0.00  0.00    +0.031 A 
ATOM     12  C   LIG    1      -34.439  78.856  28.101  0.00  0.00    +0.035 A 
ATOM     13  C   LIG    1      -33.890  77.659  27.577  0.00  0.00    +0.057 A 
ATOM     14  C   LIG    1      -34.748  76.615  27.224  0.00  0.00    +0.025 A 
ATOM     15  C   LIG    1      -36.125  76.752  27.420  0.00  0.00    +0.039 A 
ATOM     16  C   LIG    1      -36.654  77.965  27.920  0.00  0.00    +0.036 A 
BRANCH  11  21
ATOM     17  C   LIG    1      -36.273  83.973  29.151  0.00  0.00    +0.105 C 
ATOM     18  N   LIG    1      -35.370  83.039  28.491  0.00  0.00    -0.302 NA
ATOM     19  C   LIG    1      -36.046  82.269  27.413  0.00  0.00    +0.103 C 
ATOM     20  C   LIG    1      -37.028  81.159  27.884  0.00  0.00    +0.120 C 
ATOM     21  N   LIG    1      -36.367  80.222  28.821  0.00  0.00    -0.327 N 
ATOM     22  C   LIG    1      -35.702  80.931  29.936  0.00  0.00    +0.120 C 
ATOM     23  C   LIG    1      -34.773  82.076  29.450  0.00  0.00    +0.103 C 
ENDBRANCH  11  21
BRANCH  13  24
ATOM     24  C   LIG    1      -32.386  77.508  27.429  0.00  0.00    +0.417 C 
ATOM     25  F   LIG    1      -31.741  78.655  27.772  0.00  0.00    -0.166 F 
ATOM     26  F   LIG    1      -32.033  77.244  26.144  0.00  0.00    -0.166 F 
ATOM     27  F   LIG    1      -31.859  76.520  28.192  0.00  0.00    -0.166 F 
ENDBRANCH  13  24
ENDBRANCH   7  15
ENDBRANCH   1   8
BRANCH   3  28
ATOM     28  N   LIG    1      -38.310  70.699  25.075  0.00  0.00    -0.298 N 
BRANCH  28  29
ATOM     29  C   LIG    1      -37.808  69.827  24.066  0.00  0.00    +0.036 A 
ATOM     30  C   LIG    1      -36.594  69.146  24.220  0.00  0.00    +0.047 A 
ATOM     31  C   LIG    1      -36.127  68.361  23.184  0.00  0.00    +0.043 A 
ATOM     32  N   LIG    1      -34.915  67.690  23.173  0.00  0.00    -0.281 N 
ATOM     33  H   LIG    1      -34.226  67.693  23.910  0.00  0.00    +0.155 HD
ATOM     34  C   LIG    1      -34.709  67.030  21.977  0.00  0.00    +0.249 C 
ATOM     35  O   LIG    1      -33.731  66.382  21.701  0.00  0.00    -0.270 OA
ATOM     36  C   LIG    1      -35.973  67.277  21.163  0.00  0.00    +0.048 C 
ATOM     37  C   LIG    1      -36.296  66.800  19.947  0.00  0.00    +0.039 C 
ATOM     38  C   LIG    1      -36.817  68.168  21.988  0.00  0.00    +0.008 A 
ATOM     39  C   LIG    1      -38.029  68.805  21.810  0.00  0.00    +0.012 A 
ATOM     40  C   LIG    1      -38.512  69.633  22.848  0.00  0.00    +0.024 A 
BRANCH  37  41
ATOM     41  C   LIG    1      -35.506  65.926  19.143  0.00  0.00    +0.040 A 
ATOM     42  N   LIG    1      -35.332  64.611  19.505  0.00  0.00    -0.361 N 
ATOM     43  H   LIG    1      -35.650  64.203  20.376  0.00  0.00    +0.165 HD
ATOM     44  C   LIG    1      -34.544  63.956  18.600  0.00  0.00    +0.083 A 
ATOM     45  C   LIG    1      -34.230  64.845  17.602  0.00  0.00    +0.019 A 
ATOM     46  C   LIG    1      -34.844  66.083  17.935  0.00  0.00    +0.027 A 
ENDBRANCH  37  41
ENDBRANCH  28  29
BRANCH  28  47
ATOM     47  C   LIG    1      -38.389  70.129  26.447  0.00  0.00    +0.138 C 
BRANCH  47  48
ATOM     48  C   LIG    1      -39.464  69.041  26.587  0.00  0.00    +0.175 C 
BRANCH  48  49
ATOM     49  O   LIG    1      -40.090  69.145  27.867  0.00  0.00    -0.393 OA
ATOM     50  H   LIG    1      -40.939  68.672  27.810  0.00  0.00    +0.209 HD
ENDBRANCH  48  49
ENDBRANCH  47  48
ENDBRANCH  28  47
ENDBRANCH   3  28
TORSDOF 10
ENDMDL
MODEL 9
REMARK VINA RESULT:      -6.9     15.644     19.201
REMARK  Name = modded_pdb/CHEMBL2037211_nitrogen_modded_with_ethanol_version_2.pdb
REMARK                            x       y       z     vdW  Elec       q    Type
REMARK                         _______ _______ _______ _____ _____    ______ ____
ROOT
ATOM      1  C   LIG    1      -26.662  84.135  37.958  0.00  0.00    +0.035 A 
ATOM      2  C   LIG    1      -25.420  83.541  37.646  0.00  0.00    +0.046 A 
ATOM      3  C   LIG    1      -24.871  82.485  38.401  0.00  0.00    +0.036 A 
ATOM      4  C   LIG    1      -25.610  82.072  39.523  0.00  0.00    +0.023 A 
ATOM      5  C   LIG    1      -26.851  82.639  39.836  0.00  0.00    +0.004 A 
ATOM      6  C   LIG    1      -27.381  83.654  39.044  0.00  0.00    +0.023 A 
ENDROOT
BRANCH   1   8
ATOM      7  C   LIG    1      -27.773  85.116  35.930  0.00  0.00    +0.248 C 
ATOM      8  N   LIG    1      -27.102  85.205  37.145  0.00  0.00    -0.281 N 
ATOM      9  H   LIG    1      -27.006  86.121  37.561  0.00  0.00    +0.155 HD
ATOM     10  O   LIG    1      -28.121  84.089  35.360  0.00  0.00    -0.270 OA
BRANCH   7  15
ATOM     11  C   LIG    1      -29.576  87.690  33.745  0.00  0.00    +0.031 A 
ATOM     12  C   LIG    1      -28.879  88.844  34.153  0.00  0.00    +0.035 A 
ATOM     13  C   LIG    1      -27.813  88.812  35.085  0.00  0.00    +0.057 A 
ATOM     14  C   LIG    1      -27.433  87.587  35.640  0.00  0.00    +0.025 A 
ATOM     15  C   LIG    1      -28.126  86.424  35.295  0.00  0.00    +0.039 A 
ATOM     16  C   LIG    1      -29.170  86.476  34.342  0.00  0.00    +0.036 A 
BRANCH  11  21
ATOM     17  C   LIG    1      -32.343  86.321  29.786  0.00  0.00    +0.105 C 
ATOM     18  N   LIG    1      -31.051  86.029  30.395  0.00  0.00    -0.302 NA
ATOM     19  C   LIG    1      -31.187  85.518  31.785  0.00  0.00    +0.103 C 
ATOM     20  C   LIG    1      -31.580  86.571  32.861  0.00  0.00    +0.120 C 
ATOM     21  N   LIG    1      -30.651  87.724  32.845  0.00  0.00    -0.327 N 
ATOM     22  C   LIG    1      -30.500  88.296  31.490  0.00  0.00    +0.120 C 
ATOM     23  C   LIG    1      -30.168  87.223  30.419  0.00  0.00    +0.103 C 
ENDBRANCH  11  21
BRANCH  13  24
ATOM     24  C   LIG    1      -27.113  90.097  35.494  0.00  0.00    +0.417 C 
ATOM     25  F   LIG    1      -27.672  90.623  36.616  0.00  0.00    -0.166 F 
ATOM     26  F   LIG    1      -27.218  91.051  34.533  0.00  0.00    -0.166 F 
ATOM     27  F   LIG    1      -25.792  89.941  35.751  0.00  0.00    -0.166 F 
ENDBRANCH  13  24
ENDBRANCH   7  15
ENDBRANCH   1   8
BRANCH   3  28
ATOM     28  N   LIG    1      -23.641  81.849  38.075  0.00  0.00    -0.298 N 
BRANCH  28  29
ATOM     29  C   LIG    1      -23.397  81.021  36.942  0.00  0.00    +0.036 A 
ATOM     30  C   LIG    1      -22.097  80.757  36.489  0.00  0.00    +0.047 A 
ATOM     31  C   LIG    1      -21.923  79.997  35.349  0.00  0.00    +0.043 A 
ATOM     32  N   LIG    1      -20.705  79.718  34.753  0.00  0.00    -0.281 N 
ATOM     33  H   LIG    1      -19.801  80.035  35.069  0.00  0.00    +0.155 HD
ATOM     34  C   LIG    1      -20.861  78.974  33.599  0.00  0.00    +0.249 C 
ATOM     35  O   LIG    1      -19.963  78.608  32.883  0.00  0.00    -0.270 OA
ATOM     36  C   LIG    1      -22.358  78.714  33.493  0.00  0.00    +0.048 C 
ATOM     37  C   LIG    1      -23.020  77.984  32.577  0.00  0.00    +0.039 C 
ATOM     38  C   LIG    1      -22.975  79.431  34.629  0.00  0.00    +0.008 A 
ATOM     39  C   LIG    1      -24.268  79.649  35.059  0.00  0.00    +0.012 A 
ATOM     40  C   LIG    1      -24.470  80.446  36.208  0.00  0.00    +0.024 A 
BRANCH  37  41
ATOM     41  C   LIG    1      -22.445  77.270  31.485  0.00  0.00    +0.040 A 
ATOM     42  N   LIG    1      -21.604  76.205  31.712  0.00  0.00    -0.361 N 
ATOM     43  H   LIG    1      -21.265  75.920  32.623  0.00  0.00    +0.165 HD
ATOM     44  C   LIG    1      -21.167  75.668  30.534  0.00  0.00    +0.083 A 
ATOM     45  C   LIG    1      -21.764  76.364  29.513  0.00  0.00    +0.019 A 
ATOM     46  C   LIG    1      -22.579  77.365  30.108  0.00  0.00    +0.027 A 
ENDBRANCH  37  41
ENDBRANCH  28  29
BRANCH  28  47
ATOM     47  C   LIG    1      -22.464  82.131  38.940  0.00  0.00    +0.138 C 
BRANCH  47  48
ATOM     48  C   LIG    1      -22.032  83.604  38.909  0.00  0.00    +0.175 C 
BRANCH  48  49
ATOM     49  O   LIG    1      -20.897  83.756  38.055  0.00  0.00    -0.393 OA
ATOM     50  H   LIG    1      -21.164  84.341  37.324  0.00  0.00    +0.209 HD
ENDBRANCH  48  49
ENDBRANCH  47  48
ENDBRANCH  28  47
ENDBRANCH   3  28
TORSDOF 10
ENDMDL
