MODEL 1
REMARK VINA RESULT:      -7.8      0.000      0.000
REMARK  Name = modded_pdb/CHEMBL2037213_modded_start_oxygen_with_ethanol.pdb
REMARK                            x       y       z     vdW  Elec       q    Type
REMARK                         _______ _______ _______ _____ _____    ______ ____
ROOT
ATOM      1  C   LIG    1      -27.506  76.580  32.729  0.00  0.00    +0.035 A 
ATOM      2  C   LIG    1      -28.205  75.803  31.797  0.00  0.00    +0.046 A 
ATOM      3  C   LIG    1      -29.586  75.565  31.948  0.00  0.00    +0.033 A 
ATOM      4  C   LIG    1      -30.255  76.150  33.029  0.00  0.00    +0.023 A 
ATOM      5  C   LIG    1      -29.565  76.916  33.965  0.00  0.00    +0.004 A 
ATOM      6  C   LIG    1      -28.194  77.113  33.824  0.00  0.00    +0.023 A 
ENDROOT
BRANCH   1   8
ATOM      7  C   LIG    1      -25.446  77.508  31.652  0.00  0.00    +0.248 C 
ATOM      8  N   LIG    1      -26.124  76.852  32.665  0.00  0.00    -0.281 N 
ATOM      9  H   LIG    1      -25.617  76.695  33.526  0.00  0.00    +0.155 HD
ATOM     10  O   LIG    1      -25.951  78.062  30.685  0.00  0.00    -0.270 OA
BRANCH   7  15
ATOM     11  C   LIG    1      -22.046  78.171  33.260  0.00  0.00    +0.031 A 
ATOM     12  C   LIG    1      -21.215  77.692  32.237  0.00  0.00    +0.035 A 
ATOM     13  C   LIG    1      -21.719  77.185  31.030  0.00  0.00    +0.057 A 
ATOM     14  C   LIG    1      -23.102  77.132  30.839  0.00  0.00    +0.025 A 
ATOM     15  C   LIG    1      -23.964  77.573  31.848  0.00  0.00    +0.039 A 
ATOM     16  C   LIG    1      -23.436  78.107  33.034  0.00  0.00    +0.036 A 
BRANCH  11  20
ATOM     17  C   LIG    1      -20.550  80.426  36.569  0.00  0.00    +0.121 C 
ATOM     18  C   LIG    1      -19.594  79.665  35.647  0.00  0.00    +0.050 C 
ATOM     19  C   LIG    1      -20.228  79.405  34.275  0.00  0.00    +0.107 C 
ATOM     20  N   LIG    1      -21.525  78.735  34.441  0.00  0.00    -0.330 N 
ATOM     21  C   LIG    1      -22.478  79.399  35.345  0.00  0.00    +0.107 C 
ATOM     22  C   LIG    1      -21.840  79.618  36.710  0.00  0.00    +0.050 C 
BRANCH  17  23
ATOM     23  O   LIG    1      -20.774  81.722  35.996  0.00  0.00    -0.374 OA
BRANCH  23  24
ATOM     24  C   LIG    1      -21.533  82.596  36.829  0.00  0.00    +0.188 C 
BRANCH  24  25
ATOM     25  C   LIG    1      -20.593  83.449  37.669  0.00  0.00    +0.184 C 
BRANCH  25  26
ATOM     26  O   LIG    1      -19.968  84.420  36.839  0.00  0.00    -0.393 OA
ATOM     27  H   LIG    1      -20.674  84.872  36.345  0.00  0.00    +0.209 HD
ENDBRANCH  25  26
ENDBRANCH  24  25
ENDBRANCH  23  24
ENDBRANCH  17  23
ENDBRANCH  11  20
BRANCH  13  28
ATOM     28  C   LIG    1      -20.760  76.714  29.975  0.00  0.00    +0.417 C 
ATOM     29  F   LIG    1      -21.380  76.403  28.803  0.00  0.00    -0.166 F 
ATOM     30  F   LIG    1      -20.067  75.602  30.342  0.00  0.00    -0.166 F 
ATOM     31  F   LIG    1      -19.819  77.649  29.658  0.00  0.00    -0.166 F 
ENDBRANCH  13  28
ENDBRANCH   7  15
ENDBRANCH   1   8
BRANCH   3  32
ATOM     32  N   LIG    1      -30.272  74.790  30.994  0.00  0.00    -0.314 N 
ATOM     33  H   LIG    1      -29.914  73.846  30.898  0.00  0.00    +0.152 HD
BRANCH  32  34
ATOM     34  C   LIG    1      -31.397  75.082  30.197  0.00  0.00    +0.033 A 
ATOM     35  C   LIG    1      -31.629  76.406  29.814  0.00  0.00    +0.047 A 
ATOM     36  C   LIG    1      -32.733  76.678  29.024  0.00  0.00    +0.043 A 
ATOM     37  N   LIG    1      -33.117  77.930  28.585  0.00  0.00    -0.281 N 
ATOM     38  H   LIG    1      -32.648  78.800  28.783  0.00  0.00    +0.155 HD
ATOM     39  C   LIG    1      -34.279  77.874  27.844  0.00  0.00    +0.249 C 
ATOM     40  O   LIG    1      -34.839  78.838  27.361  0.00  0.00    -0.270 OA
ATOM     41  C   LIG    1      -34.661  76.406  27.784  0.00  0.00    +0.048 C 
ATOM     42  C   LIG    1      -35.696  75.812  27.166  0.00  0.00    +0.039 C 
ATOM     43  C   LIG    1      -33.623  75.697  28.575  0.00  0.00    +0.008 A 
ATOM     44  C   LIG    1      -33.399  74.379  28.926  0.00  0.00    +0.012 A 
ATOM     45  C   LIG    1      -32.279  74.081  29.729  0.00  0.00    +0.024 A 
BRANCH  42  46
ATOM     46  C   LIG    1      -36.729  76.399  26.379  0.00  0.00    +0.040 A 
ATOM     47  N   LIG    1      -37.453  77.496  26.792  0.00  0.00    -0.361 N 
ATOM     48  H   LIG    1      -37.335  77.982  27.677  0.00  0.00    +0.165 HD
ATOM     49  C   LIG    1      -38.375  77.862  25.852  0.00  0.00    +0.083 A 
ATOM     50  C   LIG    1      -38.262  76.990  24.796  0.00  0.00    +0.019 A 
ATOM     51  C   LIG    1      -37.232  76.073  25.126  0.00  0.00    +0.027 A 
ENDBRANCH  42  46
ENDBRANCH  32  34
ENDBRANCH   3  32
TORSDOF 11
ENDMDL
MODEL 2
REMARK VINA RESULT:      -7.6      9.759     13.575
REMARK  Name = modded_pdb/CHEMBL2037213_modded_start_oxygen_with_ethanol.pdb
REMARK                            x       y       z     vdW  Elec       q    Type
REMARK                         _______ _______ _______ _____ _____    ______ ____
ROOT
ATOM      1  C   LIG    1      -38.170  74.828  25.238  0.00  0.00    +0.035 A 
ATOM      2  C   LIG    1      -38.061  73.434  25.317  0.00  0.00    +0.046 A 
ATOM      3  C   LIG    1      -39.031  72.601  24.724  0.00  0.00    +0.033 A 
ATOM      4  C   LIG    1      -40.087  73.192  24.022  0.00  0.00    +0.023 A 
ATOM      5  C   LIG    1      -40.208  74.577  23.947  0.00  0.00    +0.004 A 
ATOM      6  C   LIG    1      -39.262  75.389  24.569  0.00  0.00    +0.023 A 
ENDROOT
BRANCH   1   8
ATOM      7  C   LIG    1      -37.051  75.965  27.167  0.00  0.00    +0.248 C 
ATOM      8  N   LIG    1      -37.258  75.734  25.818  0.00  0.00    -0.281 N 
ATOM      9  H   LIG    1      -36.578  76.124  25.180  0.00  0.00    +0.155 HD
ATOM     10  O   LIG    1      -37.552  75.341  28.093  0.00  0.00    -0.270 OA
BRANCH   7  15
ATOM     11  C   LIG    1      -35.596  79.345  28.192  0.00  0.00    +0.031 A 
ATOM     12  C   LIG    1      -34.232  79.065  28.019  0.00  0.00    +0.035 A 
ATOM     13  C   LIG    1      -33.769  77.825  27.556  0.00  0.00    +0.057 A 
ATOM     14  C   LIG    1      -34.693  76.815  27.272  0.00  0.00    +0.025 A 
ATOM     15  C   LIG    1      -36.060  77.046  27.459  0.00  0.00    +0.039 A 
ATOM     16  C   LIG    1      -36.502  78.307  27.893  0.00  0.00    +0.036 A 
BRANCH  11  20
ATOM     17  C   LIG    1      -36.486  83.419  29.128  0.00  0.00    +0.121 C 
ATOM     18  C   LIG    1      -35.915  82.480  30.194  0.00  0.00    +0.050 C 
ATOM     19  C   LIG    1      -35.174  81.297  29.558  0.00  0.00    +0.107 C 
ATOM     20  N   LIG    1      -36.051  80.614  28.597  0.00  0.00    -0.330 N 
ATOM     21  C   LIG    1      -36.661  81.469  27.567  0.00  0.00    +0.107 C 
ATOM     22  C   LIG    1      -37.419  82.618  28.220  0.00  0.00    +0.050 C 
BRANCH  17  23
ATOM     23  O   LIG    1      -35.384  83.994  28.413  0.00  0.00    -0.374 OA
BRANCH  23  24
ATOM     24  C   LIG    1      -34.804  85.124  29.061  0.00  0.00    +0.188 C 
BRANCH  24  25
ATOM     25  C   LIG    1      -34.689  86.278  28.074  0.00  0.00    +0.184 C 
BRANCH  25  26
ATOM     26  O   LIG    1      -33.978  85.844  26.921  0.00  0.00    -0.393 OA
ATOM     27  H   LIG    1      -34.172  84.898  26.805  0.00  0.00    +0.209 HD
ENDBRANCH  25  26
ENDBRANCH  24  25
ENDBRANCH  23  24
ENDBRANCH  17  23
ENDBRANCH  11  20
BRANCH  13  28
ATOM     28  C   LIG    1      -32.293  77.614  27.375  0.00  0.00    +0.417 C 
ATOM     29  F   LIG    1      -31.559  78.706  27.723  0.00  0.00    -0.166 F 
ATOM     30  F   LIG    1      -31.951  77.323  26.089  0.00  0.00    -0.166 F 
ATOM     31  F   LIG    1      -31.807  76.586  28.128  0.00  0.00    -0.166 F 
ENDBRANCH  13  28
ENDBRANCH   7  15
ENDBRANCH   1   8
BRANCH   3  32
ATOM     32  N   LIG    1      -38.897  71.202  24.805  0.00  0.00    -0.314 N 
ATOM     33  H   LIG    1      -39.307  70.798  25.641  0.00  0.00    +0.152 HD
BRANCH  32  34
ATOM     34  C   LIG    1      -38.345  70.269  23.904  0.00  0.00    +0.033 A 
ATOM     35  C   LIG    1      -37.071  69.755  24.158  0.00  0.00    +0.047 A 
ATOM     36  C   LIG    1      -36.544  68.834  23.270  0.00  0.00    +0.043 A 
ATOM     37  N   LIG    1      -35.293  68.254  23.361  0.00  0.00    -0.281 N 
ATOM     38  H   LIG    1      -34.608  68.428  24.080  0.00  0.00    +0.155 HD
ATOM     39  C   LIG    1      -35.050  67.402  22.304  0.00  0.00    +0.249 C 
ATOM     40  O   LIG    1      -34.017  66.784  22.137  0.00  0.00    -0.270 OA
ATOM     41  C   LIG    1      -36.310  67.423  21.457  0.00  0.00    +0.048 C 
ATOM     42  C   LIG    1      -36.598  66.751  20.330  0.00  0.00    +0.039 C 
ATOM     43  C   LIG    1      -37.224  68.376  22.137  0.00  0.00    +0.008 A 
ATOM     44  C   LIG    1      -38.495  68.856  21.879  0.00  0.00    +0.012 A 
ATOM     45  C   LIG    1      -39.050  69.795  22.773  0.00  0.00    +0.024 A 
BRANCH  42  46
ATOM     46  C   LIG    1      -35.799  65.813  19.614  0.00  0.00    +0.040 A 
ATOM     47  N   LIG    1      -35.368  64.625  20.162  0.00  0.00    -0.361 N 
ATOM     48  H   LIG    1      -35.563  64.305  21.107  0.00  0.00    +0.165 HD
ATOM     49  C   LIG    1      -34.625  63.909  19.267  0.00  0.00    +0.083 A 
ATOM     50  C   LIG    1      -34.561  64.636  18.103  0.00  0.00    +0.019 A 
ATOM     51  C   LIG    1      -35.294  65.830  18.320  0.00  0.00    +0.027 A 
ENDBRANCH  42  46
ENDBRANCH  32  34
ENDBRANCH   3  32
TORSDOF 11
ENDMDL
MODEL 3
REMARK VINA RESULT:      -7.5     11.293     16.355
REMARK  Name = modded_pdb/CHEMBL2037213_modded_start_oxygen_with_ethanol.pdb
REMARK                            x       y       z     vdW  Elec       q    Type
REMARK                         _______ _______ _______ _____ _____    ______ ____
ROOT
ATOM      1  C   LIG    1      -35.917  76.470  27.231  0.00  0.00    +0.035 A 
ATOM      2  C   LIG    1      -36.367  77.557  27.990  0.00  0.00    +0.046 A 
ATOM      3  C   LIG    1      -35.455  78.385  28.675  0.00  0.00    +0.033 A 
ATOM      4  C   LIG    1      -34.086  78.122  28.554  0.00  0.00    +0.023 A 
ATOM      5  C   LIG    1      -33.631  77.037  27.809  0.00  0.00    +0.004 A 
ATOM      6  C   LIG    1      -34.545  76.205  27.167  0.00  0.00    +0.023 A 
ENDROOT
BRANCH   1   8
ATOM      7  C   LIG    1      -37.438  75.827  25.350  0.00  0.00    +0.248 C 
ATOM      8  N   LIG    1      -36.759  75.581  26.532  0.00  0.00    -0.281 N 
ATOM      9  H   LIG    1      -36.723  74.621  26.845  0.00  0.00    +0.155 HD
ATOM     10  O   LIG    1      -37.335  76.825  24.651  0.00  0.00    -0.270 OA
BRANCH   7  15
ATOM     11  C   LIG    1      -38.649  72.288  24.576  0.00  0.00    +0.031 A 
ATOM     12  C   LIG    1      -39.925  72.590  24.079  0.00  0.00    +0.035 A 
ATOM     13  C   LIG    1      -40.398  73.905  23.961  0.00  0.00    +0.057 A 
ATOM     14  C   LIG    1      -39.580  74.962  24.371  0.00  0.00    +0.025 A 
ATOM     15  C   LIG    1      -38.312  74.699  24.899  0.00  0.00    +0.039 A 
ATOM     16  C   LIG    1      -37.848  73.376  24.978  0.00  0.00    +0.036 A 
BRANCH  11  20
ATOM     17  C   LIG    1      -36.891  68.409  24.213  0.00  0.00    +0.121 C 
ATOM     18  C   LIG    1      -38.378  68.622  23.923  0.00  0.00    +0.050 C 
ATOM     19  C   LIG    1      -38.676  70.085  23.574  0.00  0.00    +0.107 C 
ATOM     20  N   LIG    1      -38.163  70.967  24.631  0.00  0.00    -0.330 N 
ATOM     21  C   LIG    1      -36.745  70.787  24.982  0.00  0.00    +0.107 C 
ATOM     22  C   LIG    1      -36.478  69.335  25.356  0.00  0.00    +0.050 C 
BRANCH  17  23
ATOM     23  O   LIG    1      -36.165  68.672  23.004  0.00  0.00    -0.374 OA
BRANCH  23  24
ATOM     24  C   LIG    1      -35.976  67.522  22.184  0.00  0.00    +0.188 C 
BRANCH  24  25
ATOM     25  C   LIG    1      -34.575  66.963  22.397  0.00  0.00    +0.184 C 
BRANCH  25  26
ATOM     26  O   LIG    1      -34.660  65.741  23.120  0.00  0.00    -0.393 OA
ATOM     27  H   LIG    1      -34.705  65.970  24.065  0.00  0.00    +0.209 HD
ENDBRANCH  25  26
ENDBRANCH  24  25
ENDBRANCH  23  24
ENDBRANCH  17  23
ENDBRANCH  11  20
BRANCH  13  28
ATOM     28  C   LIG    1      -41.768  74.144  23.396  0.00  0.00    +0.417 C 
ATOM     29  F   LIG    1      -42.751  74.020  24.329  0.00  0.00    -0.166 F 
ATOM     30  F   LIG    1      -42.088  73.281  22.392  0.00  0.00    -0.166 F 
ATOM     31  F   LIG    1      -41.914  75.394  22.869  0.00  0.00    -0.166 F 
ENDBRANCH  13  28
ENDBRANCH   7  15
ENDBRANCH   1   8
BRANCH   3  32
ATOM     32  N   LIG    1      -35.928  79.479  29.423  0.00  0.00    -0.314 N 
ATOM     33  H   LIG    1      -36.580  79.224  30.156  0.00  0.00    +0.152 HD
BRANCH  32  34
ATOM     34  C   LIG    1      -35.608  80.851  29.364  0.00  0.00    +0.033 A 
ATOM     35  C   LIG    1      -36.011  81.592  28.250  0.00  0.00    +0.047 A 
ATOM     36  C   LIG    1      -35.698  82.940  28.209  0.00  0.00    +0.043 A 
ATOM     37  N   LIG    1      -35.997  83.802  27.171  0.00  0.00    -0.281 N 
ATOM     38  H   LIG    1      -36.477  83.563  26.318  0.00  0.00    +0.155 HD
ATOM     39  C   LIG    1      -35.522  85.074  27.416  0.00  0.00    +0.249 C 
ATOM     40  O   LIG    1      -35.635  86.013  26.653  0.00  0.00    -0.270 OA
ATOM     41  C   LIG    1      -34.868  85.016  28.784  0.00  0.00    +0.048 C 
ATOM     42  C   LIG    1      -34.273  85.989  29.494  0.00  0.00    +0.039 C 
ATOM     43  C   LIG    1      -35.011  83.606  29.229  0.00  0.00    +0.008 A 
ATOM     44  C   LIG    1      -34.623  82.895  30.349  0.00  0.00    +0.012 A 
ATOM     45  C   LIG    1      -34.934  81.521  30.411  0.00  0.00    +0.024 A 
BRANCH  42  46
ATOM     46  C   LIG    1      -34.098  87.364  29.162  0.00  0.00    +0.040 A 
ATOM     47  N   LIG    1      -35.115  88.149  28.663  0.00  0.00    -0.361 N 
ATOM     48  H   LIG    1      -36.065  87.837  28.478  0.00  0.00    +0.165 HD
ATOM     49  C   LIG    1      -34.687  89.426  28.434  0.00  0.00    +0.083 A 
ATOM     50  C   LIG    1      -33.360  89.489  28.787  0.00  0.00    +0.019 A 
ATOM     51  C   LIG    1      -32.991  88.199  29.241  0.00  0.00    +0.027 A 
ENDBRANCH  42  46
ENDBRANCH  32  34
ENDBRANCH   3  32
TORSDOF 11
ENDMDL
MODEL 4
REMARK VINA RESULT:      -7.5     11.571     16.311
REMARK  Name = modded_pdb/CHEMBL2037213_modded_start_oxygen_with_ethanol.pdb
REMARK                            x       y       z     vdW  Elec       q    Type
REMARK                         _______ _______ _______ _____ _____    ______ ____
ROOT
ATOM      1  C   LIG    1      -36.024  76.455  27.114  0.00  0.00    +0.035 A 
ATOM      2  C   LIG    1      -36.384  77.750  27.504  0.00  0.00    +0.046 A 
ATOM      3  C   LIG    1      -35.479  78.568  28.210  0.00  0.00    +0.033 A 
ATOM      4  C   LIG    1      -34.198  78.075  28.481  0.00  0.00    +0.023 A 
ATOM      5  C   LIG    1      -33.836  76.784  28.104  0.00  0.00    +0.004 A 
ATOM      6  C   LIG    1      -34.753  75.973  27.440  0.00  0.00    +0.023 A 
ENDROOT
BRANCH   1   8
ATOM      7  C   LIG    1      -37.534  75.794  25.230  0.00  0.00    +0.248 C 
ATOM      8  N   LIG    1      -36.873  75.565  26.424  0.00  0.00    -0.281 N 
ATOM      9  H   LIG    1      -36.855  74.611  26.759  0.00  0.00    +0.155 HD
ATOM     10  O   LIG    1      -37.407  76.776  24.510  0.00  0.00    -0.270 OA
BRANCH   7  15
ATOM     11  C   LIG    1      -38.768  72.262  24.461  0.00  0.00    +0.031 A 
ATOM     12  C   LIG    1      -40.057  72.569  24.000  0.00  0.00    +0.035 A 
ATOM     13  C   LIG    1      -40.532  73.885  23.904  0.00  0.00    +0.057 A 
ATOM     14  C   LIG    1      -39.702  74.939  24.301  0.00  0.00    +0.025 A 
ATOM     15  C   LIG    1      -38.421  74.671  24.793  0.00  0.00    +0.039 A 
ATOM     16  C   LIG    1      -37.956  73.347  24.849  0.00  0.00    +0.036 A 
BRANCH  11  20
ATOM     17  C   LIG    1      -37.000  68.394  24.038  0.00  0.00    +0.121 C 
ATOM     18  C   LIG    1      -38.482  68.614  23.724  0.00  0.00    +0.050 C 
ATOM     19  C   LIG    1      -38.775  70.085  23.405  0.00  0.00    +0.107 C 
ATOM     20  N   LIG    1      -38.283  70.941  24.493  0.00  0.00    -0.330 N 
ATOM     21  C   LIG    1      -36.872  70.753  24.867  0.00  0.00    +0.107 C 
ATOM     22  C   LIG    1      -36.611  69.292  25.211  0.00  0.00    +0.050 C 
BRANCH  17  23
ATOM     23  O   LIG    1      -36.252  68.687  22.850  0.00  0.00    -0.374 OA
BRANCH  23  24
ATOM     24  C   LIG    1      -35.911  67.534  22.085  0.00  0.00    +0.188 C 
BRANCH  24  25
ATOM     25  C   LIG    1      -34.616  66.931  22.613  0.00  0.00    +0.184 C 
BRANCH  25  26
ATOM     26  O   LIG    1      -33.669  66.849  21.555  0.00  0.00    -0.393 OA
ATOM     27  H   LIG    1      -33.005  67.543  21.710  0.00  0.00    +0.209 HD
ENDBRANCH  25  26
ENDBRANCH  24  25
ENDBRANCH  23  24
ENDBRANCH  17  23
ENDBRANCH  11  20
BRANCH  13  28
ATOM     28  C   LIG    1      -41.915  74.130  23.376  0.00  0.00    +0.417 C 
ATOM     29  F   LIG    1      -42.252  73.278  22.369  0.00  0.00    -0.166 F 
ATOM     30  F   LIG    1      -42.082  75.387  22.880  0.00  0.00    -0.166 F 
ATOM     31  F   LIG    1      -42.881  73.978  24.327  0.00  0.00    -0.166 F 
ENDBRANCH  13  28
ENDBRANCH   7  15
ENDBRANCH   1   8
BRANCH   3  32
ATOM     32  N   LIG    1      -35.857  79.872  28.583  0.00  0.00    -0.314 N 
ATOM     33  H   LIG    1      -35.618  80.109  29.540  0.00  0.00    +0.152 HD
BRANCH  32  34
ATOM     34  C   LIG    1      -36.453  80.912  27.844  0.00  0.00    +0.033 A 
ATOM     35  C   LIG    1      -35.640  81.913  27.307  0.00  0.00    +0.047 A 
ATOM     36  C   LIG    1      -36.238  82.925  26.576  0.00  0.00    +0.043 A 
ATOM     37  N   LIG    1      -35.582  84.000  26.005  0.00  0.00    -0.281 N 
ATOM     38  H   LIG    1      -34.592  84.184  26.049  0.00  0.00    +0.155 HD
ATOM     39  C   LIG    1      -36.461  84.851  25.370  0.00  0.00    +0.249 C 
ATOM     40  O   LIG    1      -36.143  85.880  24.807  0.00  0.00    -0.270 OA
ATOM     41  C   LIG    1      -37.835  84.227  25.534  0.00  0.00    +0.048 C 
ATOM     42  C   LIG    1      -39.029  84.646  25.082  0.00  0.00    +0.039 C 
ATOM     43  C   LIG    1      -37.613  82.993  26.331  0.00  0.00    +0.008 A 
ATOM     44  C   LIG    1      -38.432  82.001  26.834  0.00  0.00    +0.012 A 
ATOM     45  C   LIG    1      -37.842  80.960  27.582  0.00  0.00    +0.024 A 
BRANCH  42  46
ATOM     46  C   LIG    1      -39.341  85.800  24.306  0.00  0.00    +0.040 A 
ATOM     47  N   LIG    1      -39.495  85.762  22.937  0.00  0.00    -0.361 N 
ATOM     48  H   LIG    1      -39.399  84.934  22.355  0.00  0.00    +0.165 HD
ATOM     49  C   LIG    1      -39.795  86.998  22.439  0.00  0.00    +0.083 A 
ATOM     50  C   LIG    1      -39.839  87.874  23.497  0.00  0.00    +0.019 A 
ATOM     51  C   LIG    1      -39.553  87.125  24.666  0.00  0.00    +0.027 A 
ENDBRANCH  42  46
ENDBRANCH  32  34
ENDBRANCH   3  32
TORSDOF 11
ENDMDL
MODEL 5
REMARK VINA RESULT:      -7.4      4.846      8.951
REMARK  Name = modded_pdb/CHEMBL2037213_modded_start_oxygen_with_ethanol.pdb
REMARK                            x       y       z     vdW  Elec       q    Type
REMARK                         _______ _______ _______ _____ _____    ______ ____
ROOT
ATOM      1  C   LIG    1      -34.878  76.279  28.688  0.00  0.00    +0.035 A 
ATOM      2  C   LIG    1      -35.286  76.019  27.374  0.00  0.00    +0.046 A 
ATOM      3  C   LIG    1      -36.420  76.658  26.831  0.00  0.00    +0.033 A 
ATOM      4  C   LIG    1      -37.110  77.586  27.618  0.00  0.00    +0.023 A 
ATOM      5  C   LIG    1      -36.716  77.844  28.929  0.00  0.00    +0.004 A 
ATOM      6  C   LIG    1      -35.616  77.178  29.465  0.00  0.00    +0.023 A 
ENDROOT
BRANCH   1   8
ATOM      7  C   LIG    1      -32.437  76.009  29.168  0.00  0.00    +0.248 C 
ATOM      8  N   LIG    1      -33.771  75.672  29.314  0.00  0.00    -0.281 N 
ATOM      9  H   LIG    1      -34.001  75.039  30.069  0.00  0.00    +0.155 HD
ATOM     10  O   LIG    1      -31.998  76.969  28.549  0.00  0.00    -0.270 OA
BRANCH   7  15
ATOM     11  C   LIG    1      -29.625  74.877  31.492  0.00  0.00    +0.031 A 
ATOM     12  C   LIG    1      -29.740  73.489  31.325  0.00  0.00    +0.035 A 
ATOM     13  C   LIG    1      -30.682  72.907  30.464  0.00  0.00    +0.057 A 
ATOM     14  C   LIG    1      -31.558  73.734  29.755  0.00  0.00    +0.025 A 
ATOM     15  C   LIG    1      -31.494  75.122  29.916  0.00  0.00    +0.039 A 
ATOM     16  C   LIG    1      -30.521  75.682  30.759  0.00  0.00    +0.036 A 
BRANCH  11  20
ATOM     17  C   LIG    1      -26.446  76.929  33.480  0.00  0.00    +0.121 C 
ATOM     18  C   LIG    1      -26.301  75.456  33.091  0.00  0.00    +0.050 C 
ATOM     19  C   LIG    1      -27.257  75.081  31.952  0.00  0.00    +0.107 C 
ATOM     20  N   LIG    1      -28.634  75.450  32.311  0.00  0.00    -0.330 N 
ATOM     21  C   LIG    1      -28.833  76.847  32.729  0.00  0.00    +0.107 C 
ATOM     22  C   LIG    1      -27.898  77.189  33.881  0.00  0.00    +0.050 C 
BRANCH  17  23
ATOM     23  O   LIG    1      -26.037  77.722  32.356  0.00  0.00    -0.374 OA
BRANCH  23  24
ATOM     24  C   LIG    1      -24.625  77.772  32.170  0.00  0.00    +0.188 C 
BRANCH  24  25
ATOM     25  C   LIG    1      -24.303  77.781  30.681  0.00  0.00    +0.184 C 
BRANCH  25  26
ATOM     26  O   LIG    1      -25.466  77.423  29.945  0.00  0.00    -0.393 OA
ATOM     27  H   LIG    1      -25.987  78.235  29.819  0.00  0.00    +0.209 HD
ENDBRANCH  25  26
ENDBRANCH  24  25
ENDBRANCH  23  24
ENDBRANCH  17  23
ENDBRANCH  11  20
BRANCH  13  28
ATOM     28  C   LIG    1      -30.723  71.413  30.324  0.00  0.00    +0.417 C 
ATOM     29  F   LIG    1      -31.951  70.953  29.958  0.00  0.00    -0.166 F 
ATOM     30  F   LIG    1      -30.403  70.761  31.476  0.00  0.00    -0.166 F 
ATOM     31  F   LIG    1      -29.857  70.944  29.381  0.00  0.00    -0.166 F 
ENDBRANCH  13  28
ENDBRANCH   7  15
ENDBRANCH   1   8
BRANCH   3  32
ATOM     32  N   LIG    1      -36.807  76.390  25.504  0.00  0.00    -0.314 N 
ATOM     33  H   LIG    1      -36.123  76.676  24.812  0.00  0.00    +0.152 HD
BRANCH  32  34
ATOM     34  C   LIG    1      -37.948  75.748  24.983  0.00  0.00    +0.033 A 
ATOM     35  C   LIG    1      -37.999  74.352  24.984  0.00  0.00    +0.047 A 
ATOM     36  C   LIG    1      -39.129  73.735  24.476  0.00  0.00    +0.043 A 
ATOM     37  N   LIG    1      -39.323  72.370  24.379  0.00  0.00    -0.281 N 
ATOM     38  H   LIG    1      -38.672  71.654  24.661  0.00  0.00    +0.155 HD
ATOM     39  C   LIG    1      -40.538  72.071  23.798  0.00  0.00    +0.249 C 
ATOM     40  O   LIG    1      -40.942  70.946  23.579  0.00  0.00    -0.270 OA
ATOM     41  C   LIG    1      -41.204  73.406  23.520  0.00  0.00    +0.048 C 
ATOM     42  C   LIG    1      -42.408  73.671  22.984  0.00  0.00    +0.039 C 
ATOM     43  C   LIG    1      -40.232  74.433  23.974  0.00  0.00    +0.008 A 
ATOM     44  C   LIG    1      -40.211  75.815  23.985  0.00  0.00    +0.012 A 
ATOM     45  C   LIG    1      -39.068  76.463  24.499  0.00  0.00    +0.024 A 
BRANCH  42  46
ATOM     46  C   LIG    1      -43.409  72.763  22.533  0.00  0.00    +0.040 A 
ATOM     47  N   LIG    1      -44.036  71.863  23.368  0.00  0.00    -0.361 N 
ATOM     48  H   LIG    1      -43.850  71.752  24.362  0.00  0.00    +0.165 HD
ATOM     49  C   LIG    1      -44.955  71.116  22.689  0.00  0.00    +0.083 A 
ATOM     50  C   LIG    1      -44.938  71.526  21.377  0.00  0.00    +0.019 A 
ATOM     51  C   LIG    1      -43.969  72.555  21.278  0.00  0.00    +0.027 A 
ENDBRANCH  42  46
ENDBRANCH  32  34
ENDBRANCH   3  32
TORSDOF 11
ENDMDL
MODEL 6
REMARK VINA RESULT:      -7.2     10.915     16.393
REMARK  Name = modded_pdb/CHEMBL2037213_modded_start_oxygen_with_ethanol.pdb
REMARK                            x       y       z     vdW  Elec       q    Type
REMARK                         _______ _______ _______ _____ _____    ______ ____
ROOT
ATOM      1  C   LIG    1      -39.777  70.458  23.921  0.00  0.00    +0.035 A 
ATOM      2  C   LIG    1      -39.327  69.789  22.776  0.00  0.00    +0.046 A 
ATOM      3  C   LIG    1      -39.544  68.406  22.616  0.00  0.00    +0.033 A 
ATOM      4  C   LIG    1      -40.251  67.717  23.608  0.00  0.00    +0.023 A 
ATOM      5  C   LIG    1      -40.694  68.373  24.754  0.00  0.00    +0.004 A 
ATOM      6  C   LIG    1      -40.441  69.733  24.916  0.00  0.00    +0.023 A 
ENDROOT
BRANCH   1   8
ATOM      7  C   LIG    1      -38.505  72.428  24.795  0.00  0.00    +0.248 C 
ATOM      8  N   LIG    1      -39.586  71.832  24.169  0.00  0.00    -0.281 N 
ATOM      9  H   LIG    1      -40.231  72.447  23.691  0.00  0.00    +0.155 HD
ATOM     10  O   LIG    1      -37.474  71.869  25.144  0.00  0.00    -0.270 OA
BRANCH   7  15
ATOM     11  C   LIG    1      -37.917  75.972  26.091  0.00  0.00    +0.031 A 
ATOM     12  C   LIG    1      -38.855  76.658  25.306  0.00  0.00    +0.035 A 
ATOM     13  C   LIG    1      -39.692  76.006  24.388  0.00  0.00    +0.057 A 
ATOM     14  C   LIG    1      -39.580  74.622  24.227  0.00  0.00    +0.025 A 
ATOM     15  C   LIG    1      -38.636  73.907  24.971  0.00  0.00    +0.039 A 
ATOM     16  C   LIG    1      -37.832  74.577  25.907  0.00  0.00    +0.036 A 
BRANCH  11  20
ATOM     17  C   LIG    1      -35.236  78.232  28.535  0.00  0.00    +0.121 C 
ATOM     18  C   LIG    1      -35.030  76.729  28.333  0.00  0.00    +0.050 C 
ATOM     19  C   LIG    1      -35.711  76.238  27.051  0.00  0.00    +0.107 C 
ATOM     20  N   LIG    1      -37.127  76.630  27.053  0.00  0.00    -0.330 N 
ATOM     21  C   LIG    1      -37.395  78.059  27.278  0.00  0.00    +0.107 C 
ATOM     22  C   LIG    1      -36.737  78.519  28.573  0.00  0.00    +0.050 C 
BRANCH  17  23
ATOM     23  O   LIG    1      -34.574  78.914  27.461  0.00  0.00    -0.374 OA
BRANCH  23  24
ATOM     24  C   LIG    1      -33.274  79.393  27.798  0.00  0.00    +0.188 C 
BRANCH  24  25
ATOM     25  C   LIG    1      -32.313  79.120  26.648  0.00  0.00    +0.184 C 
BRANCH  25  26
ATOM     26  O   LIG    1      -32.773  77.998  25.904  0.00  0.00    -0.393 OA
ATOM     27  H   LIG    1      -33.744  78.000  25.955  0.00  0.00    +0.209 HD
ENDBRANCH  25  26
ENDBRANCH  24  25
ENDBRANCH  23  24
ENDBRANCH  17  23
ENDBRANCH  11  20
BRANCH  13  28
ATOM     28  C   LIG    1      -40.688  76.811  23.604  0.00  0.00    +0.417 C 
ATOM     29  F   LIG    1      -41.428  76.047  22.753  0.00  0.00    -0.166 F 
ATOM     30  F   LIG    1      -40.109  77.776  22.837  0.00  0.00    -0.166 F 
ATOM     31  F   LIG    1      -41.589  77.459  24.396  0.00  0.00    -0.166 F 
ENDBRANCH  13  28
ENDBRANCH   7  15
ENDBRANCH   1   8
BRANCH   3  32
ATOM     32  N   LIG    1      -39.093  67.755  21.453  0.00  0.00    -0.314 N 
ATOM     33  H   LIG    1      -39.827  67.562  20.780  0.00  0.00    +0.152 HD
BRANCH  32  34
ATOM     34  C   LIG    1      -37.798  67.380  21.043  0.00  0.00    +0.033 A 
ATOM     35  C   LIG    1      -37.406  67.630  19.725  0.00  0.00    +0.047 A 
ATOM     36  C   LIG    1      -36.128  67.264  19.338  0.00  0.00    +0.043 A 
ATOM     37  N   LIG    1      -35.599  67.416  18.070  0.00  0.00    -0.281 N 
ATOM     38  H   LIG    1      -36.071  67.807  17.271  0.00  0.00    +0.155 HD
ATOM     39  C   LIG    1      -34.313  66.923  17.996  0.00  0.00    +0.249 C 
ATOM     40  O   LIG    1      -33.632  66.916  16.990  0.00  0.00    -0.270 OA
ATOM     41  C   LIG    1      -33.978  66.426  19.391  0.00  0.00    +0.048 C 
ATOM     42  C   LIG    1      -32.843  65.877  19.858  0.00  0.00    +0.039 C 
ATOM     43  C   LIG    1      -35.200  66.670  20.198  0.00  0.00    +0.008 A 
ATOM     44  C   LIG    1      -35.560  66.434  21.512  0.00  0.00    +0.012 A 
ATOM     45  C   LIG    1      -36.858  66.800  21.926  0.00  0.00    +0.024 A 
BRANCH  42  46
ATOM     46  C   LIG    1      -31.623  65.616  19.171  0.00  0.00    +0.040 A 
ATOM     47  N   LIG    1      -31.548  64.804  18.060  0.00  0.00    -0.361 N 
ATOM     48  H   LIG    1      -32.331  64.315  17.632  0.00  0.00    +0.165 HD
ATOM     49  C   LIG    1      -30.268  64.725  17.591  0.00  0.00    +0.083 A 
ATOM     50  C   LIG    1      -29.477  65.497  18.406  0.00  0.00    +0.019 A 
ATOM     51  C   LIG    1      -30.324  66.054  19.397  0.00  0.00    +0.027 A 
ENDBRANCH  42  46
ENDBRANCH  32  34
ENDBRANCH   3  32
TORSDOF 11
ENDMDL
MODEL 7
REMARK VINA RESULT:      -7.2     10.238     15.928
REMARK  Name = modded_pdb/CHEMBL2037213_modded_start_oxygen_with_ethanol.pdb
REMARK                            x       y       z     vdW  Elec       q    Type
REMARK                         _______ _______ _______ _____ _____    ______ ____
ROOT
ATOM      1  C   LIG    1      -39.712  82.089  23.259  0.00  0.00    +0.035 A 
ATOM      2  C   LIG    1      -39.216  83.167  24.003  0.00  0.00    +0.046 A 
ATOM      3  C   LIG    1      -39.331  84.487  23.523  0.00  0.00    +0.033 A 
ATOM      4  C   LIG    1      -39.985  84.705  22.306  0.00  0.00    +0.023 A 
ATOM      5  C   LIG    1      -40.474  83.638  21.556  0.00  0.00    +0.004 A 
ATOM      6  C   LIG    1      -40.320  82.335  22.025  0.00  0.00    +0.023 A 
ENDROOT
BRANCH   1   8
ATOM      7  C   LIG    1      -40.665  79.893  23.993  0.00  0.00    +0.248 C 
ATOM      8  N   LIG    1      -39.622  80.738  23.654  0.00  0.00    -0.281 N 
ATOM      9  H   LIG    1      -38.717  80.310  23.511  0.00  0.00    +0.155 HD
ATOM     10  O   LIG    1      -41.858  80.146  23.902  0.00  0.00    -0.270 OA
BRANCH   7  15
ATOM     11  C   LIG    1      -38.754  77.133  25.815  0.00  0.00    +0.031 A 
ATOM     12  C   LIG    1      -39.421  76.015  25.294  0.00  0.00    +0.035 A 
ATOM     13  C   LIG    1      -40.453  76.123  24.350  0.00  0.00    +0.057 A 
ATOM     14  C   LIG    1      -40.853  77.392  23.922  0.00  0.00    +0.025 A 
ATOM     15  C   LIG    1      -40.232  78.533  24.440  0.00  0.00    +0.039 A 
ATOM     16  C   LIG    1      -39.179  78.398  25.360  0.00  0.00    +0.036 A 
BRANCH  11  20
ATOM     17  C   LIG    1      -35.152  77.031  28.115  0.00  0.00    +0.121 C 
ATOM     18  C   LIG    1      -35.683  75.765  27.438  0.00  0.00    +0.050 C 
ATOM     19  C   LIG    1      -36.610  76.103  26.265  0.00  0.00    +0.107 C 
ATOM     20  N   LIG    1      -37.678  77.007  26.715  0.00  0.00    -0.330 N 
ATOM     21  C   LIG    1      -37.234  78.229  27.406  0.00  0.00    +0.107 C 
ATOM     22  C   LIG    1      -36.341  77.868  28.586  0.00  0.00    +0.050 C 
BRANCH  17  23
ATOM     23  O   LIG    1      -34.334  77.726  27.164  0.00  0.00    -0.374 OA
BRANCH  23  24
ATOM     24  C   LIG    1      -33.574  78.793  27.729  0.00  0.00    +0.188 C 
BRANCH  24  25
ATOM     25  C   LIG    1      -32.190  78.830  27.094  0.00  0.00    +0.184 C 
BRANCH  25  26
ATOM     26  O   LIG    1      -32.320  78.833  25.678  0.00  0.00    -0.393 OA
ATOM     27  H   LIG    1      -31.436  78.999  25.310  0.00  0.00    +0.209 HD
ENDBRANCH  25  26
ENDBRANCH  24  25
ENDBRANCH  23  24
ENDBRANCH  17  23
ENDBRANCH  11  20
BRANCH  13  28
ATOM     28  C   LIG    1      -41.099  74.875  23.823  0.00  0.00    +0.417 C 
ATOM     29  F   LIG    1      -40.192  73.925  23.464  0.00  0.00    -0.166 F 
ATOM     30  F   LIG    1      -41.868  75.098  22.722  0.00  0.00    -0.166 F 
ATOM     31  F   LIG    1      -41.920  74.277  24.733  0.00  0.00    -0.166 F 
ENDBRANCH  13  28
ENDBRANCH   7  15
ENDBRANCH   1   8
BRANCH   3  32
ATOM     32  N   LIG    1      -38.835  85.557  24.291  0.00  0.00    -0.314 N 
ATOM     33  H   LIG    1      -39.348  86.424  24.166  0.00  0.00    +0.152 HD
BRANCH  32  34
ATOM     34  C   LIG    1      -37.792  85.616  25.236  0.00  0.00    +0.033 A 
ATOM     35  C   LIG    1      -38.104  85.529  26.595  0.00  0.00    +0.047 A 
ATOM     36  C   LIG    1      -37.069  85.579  27.513  0.00  0.00    +0.043 A 
ATOM     37  N   LIG    1      -37.211  85.536  28.887  0.00  0.00    -0.281 N 
ATOM     38  H   LIG    1      -38.079  85.465  29.393  0.00  0.00    +0.155 HD
ATOM     39  C   LIG    1      -35.993  85.640  29.526  0.00  0.00    +0.249 C 
ATOM     40  O   LIG    1      -35.843  85.649  30.731  0.00  0.00    -0.270 OA
ATOM     41  C   LIG    1      -34.953  85.732  28.424  0.00  0.00    +0.048 C 
ATOM     42  C   LIG    1      -33.615  85.824  28.510  0.00  0.00    +0.039 C 
ATOM     43  C   LIG    1      -35.723  85.696  27.154  0.00  0.00    +0.008 A 
ATOM     44  C   LIG    1      -35.391  85.761  25.814  0.00  0.00    +0.012 A 
ATOM     45  C   LIG    1      -36.431  85.711  24.863  0.00  0.00    +0.024 A 
BRANCH  42  46
ATOM     46  C   LIG    1      -32.791  85.852  29.672  0.00  0.00    +0.040 A 
ATOM     47  N   LIG    1      -32.205  87.006  30.147  0.00  0.00    -0.361 N 
ATOM     48  H   LIG    1      -32.292  87.928  29.727  0.00  0.00    +0.165 HD
ATOM     49  C   LIG    1      -31.472  86.761  31.273  0.00  0.00    +0.083 A 
ATOM     50  C   LIG    1      -31.571  85.419  31.550  0.00  0.00    +0.019 A 
ATOM     51  C   LIG    1      -32.395  84.849  30.547  0.00  0.00    +0.027 A 
ENDBRANCH  42  46
ENDBRANCH  32  34
ENDBRANCH   3  32
TORSDOF 11
ENDMDL
MODEL 8
REMARK VINA RESULT:      -7.2     13.537     17.334
REMARK  Name = modded_pdb/CHEMBL2037213_modded_start_oxygen_with_ethanol.pdb
REMARK                            x       y       z     vdW  Elec       q    Type
REMARK                         _______ _______ _______ _____ _____    ______ ____
ROOT
ATOM      1  C   LIG    1      -38.480  78.282  26.610  0.00  0.00    +0.035 A 
ATOM      2  C   LIG    1      -38.969  79.537  26.226  0.00  0.00    +0.046 A 
ATOM      3  C   LIG    1      -38.501  80.713  26.845  0.00  0.00    +0.033 A 
ATOM      4  C   LIG    1      -37.509  80.608  27.826  0.00  0.00    +0.023 A 
ATOM      5  C   LIG    1      -37.024  79.363  28.220  0.00  0.00    +0.004 A 
ATOM      6  C   LIG    1      -37.523  78.206  27.626  0.00  0.00    +0.023 A 
ENDROOT
BRANCH   1   8
ATOM      7  C   LIG    1      -38.296  76.336  25.048  0.00  0.00    +0.248 C 
ATOM      8  N   LIG    1      -38.907  77.057  26.059  0.00  0.00    -0.281 N 
ATOM      9  H   LIG    1      -39.639  76.587  26.575  0.00  0.00    +0.155 HD
ATOM     10  O   LIG    1      -37.215  76.587  24.532  0.00  0.00    -0.270 OA
BRANCH   7  15
ATOM     11  C   LIG    1      -39.122  72.659  24.424  0.00  0.00    +0.031 A 
ATOM     12  C   LIG    1      -40.410  72.805  23.888  0.00  0.00    +0.035 A 
ATOM     13  C   LIG    1      -41.011  74.058  23.697  0.00  0.00    +0.057 A 
ATOM     14  C   LIG    1      -40.315  75.211  24.071  0.00  0.00    +0.025 A 
ATOM     15  C   LIG    1      -39.040  75.105  24.636  0.00  0.00    +0.039 A 
ATOM     16  C   LIG    1      -38.446  73.841  24.787  0.00  0.00    +0.036 A 
BRANCH  11  20
ATOM     17  C   LIG    1      -37.070  68.914  24.234  0.00  0.00    +0.121 C 
ATOM     18  C   LIG    1      -38.598  68.971  24.175  0.00  0.00    +0.050 C 
ATOM     19  C   LIG    1      -39.090  70.347  23.710  0.00  0.00    +0.107 C 
ATOM     20  N   LIG    1      -38.506  71.399  24.553  0.00  0.00    -0.330 N 
ATOM     21  C   LIG    1      -37.040  71.378  24.679  0.00  0.00    +0.107 C 
ATOM     22  C   LIG    1      -36.576  70.014  25.173  0.00  0.00    +0.050 C 
BRANCH  17  23
ATOM     23  O   LIG    1      -36.573  69.070  22.898  0.00  0.00    -0.374 OA
BRANCH  23  24
ATOM     24  C   LIG    1      -36.826  67.948  22.055  0.00  0.00    +0.188 C 
BRANCH  24  25
ATOM     25  C   LIG    1      -35.553  67.127  21.896  0.00  0.00    +0.184 C 
BRANCH  25  26
ATOM     26  O   LIG    1      -34.501  67.743  22.629  0.00  0.00    -0.393 OA
ATOM     27  H   LIG    1      -34.734  67.681  23.571  0.00  0.00    +0.209 HD
ENDBRANCH  25  26
ENDBRANCH  24  25
ENDBRANCH  23  24
ENDBRANCH  17  23
ENDBRANCH  11  20
BRANCH  13  28
ATOM     28  C   LIG    1      -42.384  74.129  23.094  0.00  0.00    +0.417 C 
ATOM     29  F   LIG    1      -42.652  75.343  22.538  0.00  0.00    -0.166 F 
ATOM     30  F   LIG    1      -43.376  73.901  23.999  0.00  0.00    -0.166 F 
ATOM     31  F   LIG    1      -42.574  73.216  22.098  0.00  0.00    -0.166 F 
ENDBRANCH  13  28
ENDBRANCH   7  15
ENDBRANCH   1   8
BRANCH   3  32
ATOM     32  N   LIG    1      -38.997  81.966  26.437  0.00  0.00    -0.314 N 
ATOM     33  H   LIG    1      -38.786  82.720  27.081  0.00  0.00    +0.152 HD
BRANCH  32  34
ATOM     34  C   LIG    1      -39.683  82.355  25.269  0.00  0.00    +0.033 A 
ATOM     35  C   LIG    1      -38.960  82.924  24.218  0.00  0.00    +0.047 A 
ATOM     36  C   LIG    1      -39.646  83.295  23.073  0.00  0.00    +0.043 A 
ATOM     37  N   LIG    1      -39.086  83.893  21.960  0.00  0.00    -0.281 N 
ATOM     38  H   LIG    1      -38.115  84.136  21.840  0.00  0.00    +0.155 HD
ATOM     39  C   LIG    1      -40.037  84.169  21.001  0.00  0.00    +0.249 C 
ATOM     40  O   LIG    1      -39.810  84.712  19.938  0.00  0.00    -0.270 OA
ATOM     41  C   LIG    1      -41.352  83.659  21.562  0.00  0.00    +0.048 C 
ATOM     42  C   LIG    1      -42.579  83.663  21.014  0.00  0.00    +0.039 C 
ATOM     43  C   LIG    1      -41.022  83.118  22.905  0.00  0.00    +0.008 A 
ATOM     44  C   LIG    1      -41.752  82.537  23.925  0.00  0.00    +0.012 A 
ATOM     45  C   LIG    1      -41.072  82.151  25.099  0.00  0.00    +0.024 A 
BRANCH  42  46
ATOM     46  C   LIG    1      -42.991  84.144  19.737  0.00  0.00    +0.040 A 
ATOM     47  N   LIG    1      -42.980  83.361  18.603  0.00  0.00    -0.361 N 
ATOM     48  H   LIG    1      -42.679  82.391  18.559  0.00  0.00    +0.165 HD
ATOM     49  C   LIG    1      -43.426  84.058  17.517  0.00  0.00    +0.083 A 
ATOM     50  C   LIG    1      -43.738  85.329  17.937  0.00  0.00    +0.019 A 
ATOM     51  C   LIG    1      -43.464  85.384  19.327  0.00  0.00    +0.027 A 
ENDBRANCH  42  46
ENDBRANCH  32  34
ENDBRANCH   3  32
TORSDOF 11
ENDMDL
MODEL 9
REMARK VINA RESULT:      -7.0      6.101     11.789
REMARK  Name = modded_pdb/CHEMBL2037213_modded_start_oxygen_with_ethanol.pdb
REMARK                            x       y       z     vdW  Elec       q    Type
REMARK                         _______ _______ _______ _____ _____    ______ ____
ROOT
ATOM      1  C   LIG    1      -37.855  75.497  25.382  0.00  0.00    +0.035 A 
ATOM      2  C   LIG    1      -38.807  76.466  25.041  0.00  0.00    +0.046 A 
ATOM      3  C   LIG    1      -39.992  76.107  24.368  0.00  0.00    +0.033 A 
ATOM      4  C   LIG    1      -40.218  74.757  24.079  0.00  0.00    +0.023 A 
ATOM      5  C   LIG    1      -39.273  73.789  24.406  0.00  0.00    +0.004 A 
ATOM      6  C   LIG    1      -38.089  74.162  25.038  0.00  0.00    +0.023 A 
ENDROOT
BRANCH   1   8
ATOM      7  C   LIG    1      -36.328  75.532  27.365  0.00  0.00    +0.248 C 
ATOM      8  N   LIG    1      -36.637  75.771  26.037  0.00  0.00    -0.281 N 
ATOM      9  H   LIG    1      -35.867  76.010  25.426  0.00  0.00    +0.155 HD
ATOM     10  O   LIG    1      -37.027  74.939  28.175  0.00  0.00    -0.270 OA
BRANCH   7  15
ATOM     11  C   LIG    1      -32.963  75.719  29.163  0.00  0.00    +0.031 A 
ATOM     12  C   LIG    1      -32.436  76.858  28.537  0.00  0.00    +0.035 A 
ATOM     13  C   LIG    1      -33.145  77.584  27.569  0.00  0.00    +0.057 A 
ATOM     14  C   LIG    1      -34.420  77.152  27.192  0.00  0.00    +0.025 A 
ATOM     15  C   LIG    1      -34.968  76.004  27.773  0.00  0.00    +0.039 A 
ATOM     16  C   LIG    1      -34.252  75.312  28.763  0.00  0.00    +0.036 A 
BRANCH  11  20
ATOM     17  C   LIG    1      -30.347  73.934  32.034  0.00  0.00    +0.121 C 
ATOM     18  C   LIG    1      -30.865  73.127  30.841  0.00  0.00    +0.050 C 
ATOM     19  C   LIG    1      -31.299  74.043  29.691  0.00  0.00    +0.107 C 
ATOM     20  N   LIG    1      -32.266  75.036  30.178  0.00  0.00    -0.330 N 
ATOM     21  C   LIG    1      -31.842  75.822  31.347  0.00  0.00    +0.107 C 
ATOM     22  C   LIG    1      -31.447  74.894  32.488  0.00  0.00    +0.050 C 
BRANCH  17  23
ATOM     23  O   LIG    1      -29.158  74.619  31.617  0.00  0.00    -0.374 OA
BRANCH  23  24
ATOM     24  C   LIG    1      -28.606  75.474  32.616  0.00  0.00    +0.188 C 
BRANCH  24  25
ATOM     25  C   LIG    1      -27.555  76.382  31.991  0.00  0.00    +0.184 C 
BRANCH  25  26
ATOM     26  O   LIG    1      -28.168  77.594  31.570  0.00  0.00    -0.393 OA
ATOM     27  H   LIG    1      -28.386  77.492  30.628  0.00  0.00    +0.209 HD
ENDBRANCH  25  26
ENDBRANCH  24  25
ENDBRANCH  23  24
ENDBRANCH  17  23
ENDBRANCH  11  20
BRANCH  13  28
ATOM     28  C   LIG    1      -32.519  78.807  26.964  0.00  0.00    +0.417 C 
ATOM     29  F   LIG    1      -31.399  79.208  27.628  0.00  0.00    -0.166 F 
ATOM     30  F   LIG    1      -33.354  79.882  26.950  0.00  0.00    -0.166 F 
ATOM     31  F   LIG    1      -32.133  78.622  25.669  0.00  0.00    -0.166 F 
ENDBRANCH  13  28
ENDBRANCH   7  15
ENDBRANCH   1   8
BRANCH   3  32
ATOM     32  N   LIG    1      -40.940  77.095  24.044  0.00  0.00    -0.314 N 
ATOM     33  H   LIG    1      -41.895  76.753  24.012  0.00  0.00    +0.152 HD
BRANCH  32  34
ATOM     34  C   LIG    1      -40.798  78.478  23.814  0.00  0.00    +0.033 A 
ATOM     35  C   LIG    1      -41.901  79.314  24.006  0.00  0.00    +0.047 A 
ATOM     36  C   LIG    1      -41.744  80.671  23.784  0.00  0.00    +0.043 A 
ATOM     37  N   LIG    1      -42.739  81.624  23.901  0.00  0.00    -0.281 N 
ATOM     38  H   LIG    1      -43.698  81.454  24.158  0.00  0.00    +0.155 HD
ATOM     39  C   LIG    1      -42.275  82.883  23.581  0.00  0.00    +0.249 C 
ATOM     40  O   LIG    1      -42.953  83.891  23.583  0.00  0.00    -0.270 OA
ATOM     41  C   LIG    1      -40.803  82.711  23.249  0.00  0.00    +0.048 C 
ATOM     42  C   LIG    1      -39.888  83.630  22.898  0.00  0.00    +0.039 C 
ATOM     43  C   LIG    1      -40.536  81.257  23.392  0.00  0.00    +0.008 A 
ATOM     44  C   LIG    1      -39.427  80.450  23.219  0.00  0.00    +0.012 A 
ATOM     45  C   LIG    1      -39.566  79.064  23.440  0.00  0.00    +0.024 A 
BRANCH  42  46
ATOM     46  C   LIG    1      -40.043  85.038  22.748  0.00  0.00    +0.040 A 
ATOM     47  N   LIG    1      -40.049  85.664  21.520  0.00  0.00    -0.361 N 
ATOM     48  H   LIG    1      -39.940  85.201  20.621  0.00  0.00    +0.165 HD
ATOM     49  C   LIG    1      -40.218  87.013  21.653  0.00  0.00    +0.083 A 
ATOM     50  C   LIG    1      -40.324  87.289  22.995  0.00  0.00    +0.019 A 
ATOM     51  C   LIG    1      -40.213  86.053  23.681  0.00  0.00    +0.027 A 
ENDBRANCH  42  46
ENDBRANCH  32  34
ENDBRANCH   3  32
TORSDOF 11
ENDMDL
