MODEL 1
REMARK VINA RESULT:      -7.3      0.000      0.000
REMARK  Name = modded_pdb/CHEMBL2037211_nitrogen_modded_with_ethanol_version_3.pdb
REMARK                            x       y       z     vdW  Elec       q    Type
REMARK                         _______ _______ _______ _____ _____    ______ ____
ROOT
ATOM      1  C   LIG    1      -28.193  74.956  32.833  0.00  0.00    +0.035 A 
ATOM      2  C   LIG    1      -28.794  74.419  31.687  0.00  0.00    +0.046 A 
ATOM      3  C   LIG    1      -30.101  73.916  31.731  0.00  0.00    +0.033 A 
ATOM      4  C   LIG    1      -30.840  74.096  32.907  0.00  0.00    +0.023 A 
ATOM      5  C   LIG    1      -30.235  74.597  34.058  0.00  0.00    +0.004 A 
ATOM      6  C   LIG    1      -28.900  74.976  34.029  0.00  0.00    +0.023 A 
ENDROOT
BRANCH   1   8
ATOM      7  C   LIG    1      -26.574  76.683  32.070  0.00  0.00    +0.248 C 
ATOM      8  N   LIG    1      -26.903  75.506  32.721  0.00  0.00    -0.281 N 
ATOM      9  H   LIG    1      -26.149  74.926  33.069  0.00  0.00    +0.155 HD
ATOM     10  O   LIG    1      -27.321  77.419  31.439  0.00  0.00    -0.270 OA
BRANCH   7  15
ATOM     11  C   LIG    1      -23.456  78.520  33.179  0.00  0.00    +0.031 A 
ATOM     12  C   LIG    1      -22.531  77.919  32.310  0.00  0.00    +0.035 A 
ATOM     13  C   LIG    1      -22.880  76.916  31.383  0.00  0.00    +0.057 A 
ATOM     14  C   LIG    1      -24.194  76.458  31.339  0.00  0.00    +0.025 A 
ATOM     15  C   LIG    1      -25.146  77.057  32.155  0.00  0.00    +0.039 A 
ATOM     16  C   LIG    1      -24.774  78.047  33.076  0.00  0.00    +0.036 A 
BRANCH  11  21
ATOM     17  C   LIG    1      -22.099  79.582  37.824  0.00  0.00    +0.105 C 
ATOM     18  N   LIG    1      -22.572  78.566  36.891  0.00  0.00    -0.302 NA
ATOM     19  C   LIG    1      -21.618  78.376  35.769  0.00  0.00    +0.103 C 
ATOM     20  C   LIG    1      -21.697  79.450  34.657  0.00  0.00    +0.120 C 
ATOM     21  N   LIG    1      -23.075  79.492  34.113  0.00  0.00    -0.327 N 
ATOM     22  C   LIG    1      -24.015  79.875  35.196  0.00  0.00    +0.120 C 
ATOM     23  C   LIG    1      -23.931  78.880  36.385  0.00  0.00    +0.103 C 
ENDBRANCH  11  21
BRANCH  13  24
ATOM     24  C   LIG    1      -21.841  76.404  30.424  0.00  0.00    +0.417 C 
ATOM     25  F   LIG    1      -20.777  77.239  30.298  0.00  0.00    -0.166 F 
ATOM     26  F   LIG    1      -22.351  76.247  29.170  0.00  0.00    -0.166 F 
ATOM     27  F   LIG    1      -21.336  75.188  30.773  0.00  0.00    -0.166 F 
ENDBRANCH  13  24
ENDBRANCH   7  15
ENDBRANCH   1   8
BRANCH   3  28
ATOM     28  N   LIG    1      -30.723  73.279  30.633  0.00  0.00    -0.314 N 
ATOM     29  H   LIG    1      -30.565  72.275  30.670  0.00  0.00    +0.152 HD
BRANCH  28  30
ATOM     30  C   LIG    1      -31.908  73.619  29.936  0.00  0.00    +0.033 A 
ATOM     31  C   LIG    1      -32.006  74.890  29.338  0.00  0.00    +0.047 A 
ATOM     32  C   LIG    1      -33.181  75.237  28.683  0.00  0.00    +0.046 A 
ATOM     33  N   LIG    1      -33.492  76.433  28.017  0.00  0.00    -0.265 N 
ATOM     34  C   LIG    1      -34.766  76.382  27.444  0.00  0.00    +0.252 C 
ATOM     35  O   LIG    1      -35.286  77.243  26.771  0.00  0.00    -0.270 OA
ATOM     36  C   LIG    1      -35.314  75.020  27.814  0.00  0.00    +0.048 C 
ATOM     37  C   LIG    1      -36.495  74.456  27.502  0.00  0.00    +0.039 C 
ATOM     38  C   LIG    1      -34.271  74.360  28.616  0.00  0.00    +0.009 A 
ATOM     39  C   LIG    1      -34.224  73.138  29.258  0.00  0.00    +0.012 A 
ATOM     40  C   LIG    1      -33.054  72.796  29.944  0.00  0.00    +0.024 A 
BRANCH  37  41
ATOM     41  C   LIG    1      -37.529  75.018  26.706  0.00  0.00    +0.040 A 
ATOM     42  N   LIG    1      -37.357  75.221  25.357  0.00  0.00    -0.361 N 
ATOM     43  H   LIG    1      -36.488  75.083  24.855  0.00  0.00    +0.165 HD
ATOM     44  C   LIG    1      -38.493  75.753  24.807  0.00  0.00    +0.083 A 
ATOM     45  C   LIG    1      -39.431  75.863  25.804  0.00  0.00    +0.019 A 
ATOM     46  C   LIG    1      -38.830  75.388  26.998  0.00  0.00    +0.027 A 
ENDBRANCH  37  41
BRANCH  33  47
ATOM     47  C   LIG    1      -32.631  77.587  27.883  0.00  0.00    +0.142 C 
BRANCH  47  48
ATOM     48  C   LIG    1      -31.967  77.707  26.506  0.00  0.00    +0.175 C 
BRANCH  48  49
ATOM     49  O   LIG    1      -32.657  78.586  25.622  0.00  0.00    -0.393 OA
ATOM     50  H   LIG    1      -33.187  79.209  26.153  0.00  0.00    +0.209 HD
ENDBRANCH  48  49
ENDBRANCH  47  48
ENDBRANCH  33  47
ENDBRANCH  28  30
ENDBRANCH   3  28
TORSDOF 10
ENDMDL
MODEL 2
REMARK VINA RESULT:      -7.1      6.927     11.679
REMARK  Name = modded_pdb/CHEMBL2037211_nitrogen_modded_with_ethanol_version_3.pdb
REMARK                            x       y       z     vdW  Elec       q    Type
REMARK                         _______ _______ _______ _____ _____    ______ ____
ROOT
ATOM      1  C   LIG    1      -37.851  75.208  25.478  0.00  0.00    +0.035 A 
ATOM      2  C   LIG    1      -38.137  73.838  25.416  0.00  0.00    +0.046 A 
ATOM      3  C   LIG    1      -39.324  73.378  24.829  0.00  0.00    +0.033 A 
ATOM      4  C   LIG    1      -40.144  74.309  24.178  0.00  0.00    +0.023 A 
ATOM      5  C   LIG    1      -39.880  75.674  24.269  0.00  0.00    +0.004 A 
ATOM      6  C   LIG    1      -38.763  76.120  24.962  0.00  0.00    +0.023 A 
ENDROOT
BRANCH   1   8
ATOM      7  C   LIG    1      -36.237  75.505  27.346  0.00  0.00    +0.248 C 
ATOM      8  N   LIG    1      -36.618  75.614  26.019  0.00  0.00    -0.281 N 
ATOM      9  H   LIG    1      -36.008  76.118  25.388  0.00  0.00    +0.155 HD
ATOM     10  O   LIG    1      -36.907  75.092  28.283  0.00  0.00    -0.270 OA
BRANCH   7  15
ATOM     11  C   LIG    1      -32.777  75.573  28.882  0.00  0.00    +0.031 A 
ATOM     12  C   LIG    1      -32.320  76.781  28.330  0.00  0.00    +0.035 A 
ATOM     13  C   LIG    1      -33.092  77.571  27.454  0.00  0.00    +0.057 A 
ATOM     14  C   LIG    1      -34.356  77.130  27.075  0.00  0.00    +0.025 A 
ATOM     15  C   LIG    1      -34.859  75.960  27.631  0.00  0.00    +0.039 A 
ATOM     16  C   LIG    1      -34.070  75.185  28.494  0.00  0.00    +0.036 A 
BRANCH  11  21
ATOM     17  C   LIG    1      -31.533  74.302  33.506  0.00  0.00    +0.105 C 
ATOM     18  N   LIG    1      -32.318  75.184  32.650  0.00  0.00    -0.302 NA
ATOM     19  C   LIG    1      -33.263  74.415  31.802  0.00  0.00    +0.103 C 
ATOM     20  C   LIG    1      -32.630  73.751  30.555  0.00  0.00    +0.120 C 
ATOM     21  N   LIG    1      -31.977  74.791  29.725  0.00  0.00    -0.327 N 
ATOM     22  C   LIG    1      -30.893  75.434  30.510  0.00  0.00    +0.120 C 
ATOM     23  C   LIG    1      -31.448  76.055  31.820  0.00  0.00    +0.103 C 
ENDBRANCH  11  21
BRANCH  13  24
ATOM     24  C   LIG    1      -32.556  78.900  26.994  0.00  0.00    +0.417 C 
ATOM     25  F   LIG    1      -31.452  79.294  27.681  0.00  0.00    -0.166 F 
ATOM     26  F   LIG    1      -33.476  79.892  27.153  0.00  0.00    -0.166 F 
ATOM     27  F   LIG    1      -32.216  78.918  25.676  0.00  0.00    -0.166 F 
ENDBRANCH  13  24
ENDBRANCH   7  15
ENDBRANCH   1   8
BRANCH   3  28
ATOM     28  N   LIG    1      -39.708  72.018  24.823  0.00  0.00    -0.314 N 
ATOM     29  H   LIG    1      -40.632  71.909  25.233  0.00  0.00    +0.152 HD
BRANCH  28  30
ATOM     30  C   LIG    1      -39.395  70.990  23.901  0.00  0.00    +0.033 A 
ATOM     31  C   LIG    1      -40.445  70.279  23.289  0.00  0.00    +0.047 A 
ATOM     32  C   LIG    1      -40.138  69.248  22.410  0.00  0.00    +0.046 A 
ATOM     33  N   LIG    1      -41.014  68.421  21.689  0.00  0.00    -0.265 N 
ATOM     34  C   LIG    1      -40.317  67.527  20.873  0.00  0.00    +0.252 C 
ATOM     35  O   LIG    1      -40.801  66.727  20.105  0.00  0.00    -0.270 OA
ATOM     36  C   LIG    1      -38.852  67.811  21.132  0.00  0.00    +0.048 C 
ATOM     37  C   LIG    1      -37.758  67.242  20.592  0.00  0.00    +0.039 C 
ATOM     38  C   LIG    1      -38.813  68.892  22.130  0.00  0.00    +0.009 A 
ATOM     39  C   LIG    1      -37.768  69.526  22.774  0.00  0.00    +0.012 A 
ATOM     40  C   LIG    1      -38.073  70.545  23.683  0.00  0.00    +0.024 A 
BRANCH  37  41
ATOM     41  C   LIG    1      -37.723  66.223  19.603  0.00  0.00    +0.040 A 
ATOM     42  N   LIG    1      -38.087  64.931  19.899  0.00  0.00    -0.361 N 
ATOM     43  H   LIG    1      -38.310  64.589  20.827  0.00  0.00    +0.165 HD
ATOM     44  C   LIG    1      -37.989  64.141  18.785  0.00  0.00    +0.083 A 
ATOM     45  C   LIG    1      -37.591  64.937  17.739  0.00  0.00    +0.019 A 
ATOM     46  C   LIG    1      -37.437  66.252  18.249  0.00  0.00    +0.027 A 
ENDBRANCH  37  41
BRANCH  33  47
ATOM     47  C   LIG    1      -42.459  68.468  21.725  0.00  0.00    +0.142 C 
BRANCH  47  48
ATOM     48  C   LIG    1      -43.057  69.675  20.992  0.00  0.00    +0.175 C 
BRANCH  48  49
ATOM     49  O   LIG    1      -42.204  70.200  19.979  0.00  0.00    -0.393 OA
ATOM     50  H   LIG    1      -41.369  70.489  20.393  0.00  0.00    +0.209 HD
ENDBRANCH  48  49
ENDBRANCH  47  48
ENDBRANCH  33  47
ENDBRANCH  28  30
ENDBRANCH   3  28
TORSDOF 10
ENDMDL
MODEL 3
REMARK VINA RESULT:      -7.0      6.537     11.309
REMARK  Name = modded_pdb/CHEMBL2037211_nitrogen_modded_with_ethanol_version_3.pdb
REMARK                            x       y       z     vdW  Elec       q    Type
REMARK                         _______ _______ _______ _____ _____    ______ ____
ROOT
ATOM      1  C   LIG    1      -38.223  75.045  25.159  0.00  0.00    +0.035 A 
ATOM      2  C   LIG    1      -38.522  73.683  25.016  0.00  0.00    +0.046 A 
ATOM      3  C   LIG    1      -39.724  73.270  24.424  0.00  0.00    +0.033 A 
ATOM      4  C   LIG    1      -40.547  74.246  23.848  0.00  0.00    +0.023 A 
ATOM      5  C   LIG    1      -40.270  75.601  24.020  0.00  0.00    +0.004 A 
ATOM      6  C   LIG    1      -39.137  75.994  24.718  0.00  0.00    +0.023 A 
ENDROOT
BRANCH   1   8
ATOM      7  C   LIG    1      -36.732  75.743  27.022  0.00  0.00    +0.248 C 
ATOM      8  N   LIG    1      -36.978  75.407  25.702  0.00  0.00    -0.281 N 
ATOM      9  H   LIG    1      -36.226  75.521  25.033  0.00  0.00    +0.155 HD
ATOM     10  O   LIG    1      -37.546  75.837  27.932  0.00  0.00    -0.270 OA
BRANCH   7  15
ATOM     11  C   LIG    1      -33.274  75.303  28.498  0.00  0.00    +0.031 A 
ATOM     12  C   LIG    1      -32.704  76.516  28.077  0.00  0.00    +0.035 A 
ATOM     13  C   LIG    1      -33.400  77.471  27.308  0.00  0.00    +0.057 A 
ATOM     14  C   LIG    1      -34.703  77.199  26.903  0.00  0.00    +0.025 A 
ATOM     15  C   LIG    1      -35.315  76.028  27.334  0.00  0.00    +0.039 A 
ATOM     16  C   LIG    1      -34.601  75.088  28.091  0.00  0.00    +0.036 A 
BRANCH  11  21
ATOM     17  C   LIG    1      -31.686  73.741  32.924  0.00  0.00    +0.105 C 
ATOM     18  N   LIG    1      -32.377  74.782  32.170  0.00  0.00    -0.302 NA
ATOM     19  C   LIG    1      -33.577  74.245  31.480  0.00  0.00    +0.103 C 
ATOM     20  C   LIG    1      -33.285  73.474  30.169  0.00  0.00    +0.120 C 
ATOM     21  N   LIG    1      -32.549  74.357  29.234  0.00  0.00    -0.327 N 
ATOM     22  C   LIG    1      -31.252  74.742  29.845  0.00  0.00    +0.120 C 
ATOM     23  C   LIG    1      -31.467  75.454  31.208  0.00  0.00    +0.103 C 
ENDBRANCH  11  21
BRANCH  13  24
ATOM     24  C   LIG    1      -32.740  78.785  26.991  0.00  0.00    +0.417 C 
ATOM     25  F   LIG    1      -33.588  79.843  27.088  0.00  0.00    -0.166 F 
ATOM     26  F   LIG    1      -32.251  78.806  25.720  0.00  0.00    -0.166 F 
ATOM     27  F   LIG    1      -31.681  79.066  27.800  0.00  0.00    -0.166 F 
ENDBRANCH  13  24
ENDBRANCH   7  15
ENDBRANCH   1   8
BRANCH   3  28
ATOM     28  N   LIG    1      -40.119  71.916  24.339  0.00  0.00    -0.314 N 
ATOM     29  H   LIG    1      -41.122  71.849  24.183  0.00  0.00    +0.152 HD
BRANCH  28  30
ATOM     30  C   LIG    1      -39.414  70.792  23.845  0.00  0.00    +0.033 A 
ATOM     31  C   LIG    1      -38.299  70.317  24.560  0.00  0.00    +0.047 A 
ATOM     32  C   LIG    1      -37.587  69.236  24.058  0.00  0.00    +0.046 A 
ATOM     33  N   LIG    1      -36.460  68.599  24.603  0.00  0.00    -0.265 N 
ATOM     34  C   LIG    1      -36.058  67.515  23.819  0.00  0.00    +0.252 C 
ATOM     35  O   LIG    1      -35.150  66.752  24.060  0.00  0.00    -0.270 OA
ATOM     36  C   LIG    1      -37.020  67.489  22.650  0.00  0.00    +0.048 C 
ATOM     37  C   LIG    1      -37.087  66.637  21.611  0.00  0.00    +0.039 C 
ATOM     38  C   LIG    1      -37.944  68.618  22.853  0.00  0.00    +0.009 A 
ATOM     39  C   LIG    1      -38.988  69.112  22.097  0.00  0.00    +0.012 A 
ATOM     40  C   LIG    1      -39.690  70.220  22.584  0.00  0.00    +0.024 A 
BRANCH  37  41
ATOM     41  C   LIG    1      -36.255  65.511  21.372  0.00  0.00    +0.040 A 
ATOM     42  N   LIG    1      -36.560  64.278  21.898  0.00  0.00    -0.361 N 
ATOM     43  H   LIG    1      -37.315  64.094  22.548  0.00  0.00    +0.165 HD
ATOM     44  C   LIG    1      -35.625  63.352  21.515  0.00  0.00    +0.083 A 
ATOM     45  C   LIG    1      -34.719  63.983  20.698  0.00  0.00    +0.019 A 
ATOM     46  C   LIG    1      -35.122  65.339  20.596  0.00  0.00    +0.027 A 
ENDBRANCH  37  41
BRANCH  33  47
ATOM     47  C   LIG    1      -35.784  68.958  25.830  0.00  0.00    +0.142 C 
BRANCH  47  48
ATOM     48  C   LIG    1      -34.948  70.239  25.723  0.00  0.00    +0.175 C 
BRANCH  48  49
ATOM     49  O   LIG    1      -33.750  70.070  24.971  0.00  0.00    -0.393 OA
ATOM     50  H   LIG    1      -33.096  69.608  25.527  0.00  0.00    +0.209 HD
ENDBRANCH  48  49
ENDBRANCH  47  48
ENDBRANCH  33  47
ENDBRANCH  28  30
ENDBRANCH   3  28
TORSDOF 10
ENDMDL
MODEL 4
REMARK VINA RESULT:      -7.0     14.394     16.762
REMARK  Name = modded_pdb/CHEMBL2037211_nitrogen_modded_with_ethanol_version_3.pdb
REMARK                            x       y       z     vdW  Elec       q    Type
REMARK                         _______ _______ _______ _____ _____    ______ ____
ROOT
ATOM      1  C   LIG    1      -26.231  76.306  13.533  0.00  0.00    +0.035 A 
ATOM      2  C   LIG    1      -26.074  74.917  13.632  0.00  0.00    +0.046 A 
ATOM      3  C   LIG    1      -27.110  74.049  13.258  0.00  0.00    +0.033 A 
ATOM      4  C   LIG    1      -28.245  74.598  12.647  0.00  0.00    +0.023 A 
ATOM      5  C   LIG    1      -28.418  75.979  12.580  0.00  0.00    +0.004 A 
ATOM      6  C   LIG    1      -27.433  76.826  13.070  0.00  0.00    +0.023 A 
ENDROOT
BRANCH   1   8
ATOM      7  C   LIG    1      -25.102  78.059  14.888  0.00  0.00    +0.248 C 
ATOM      8  N   LIG    1      -25.141  77.131  13.860  0.00  0.00    -0.281 N 
ATOM      9  H   LIG    1      -24.360  77.099  13.217  0.00  0.00    +0.155 HD
ATOM     10  O   LIG    1      -26.009  78.364  15.651  0.00  0.00    -0.270 OA
BRANCH   7  15
ATOM     11  C   LIG    1      -21.356  78.604  14.886  0.00  0.00    +0.031 A 
ATOM     12  C   LIG    1      -21.328  79.904  15.417  0.00  0.00    +0.035 A 
ATOM     13  C   LIG    1      -22.489  80.625  15.759  0.00  0.00    +0.057 A 
ATOM     14  C   LIG    1      -23.737  80.052  15.531  0.00  0.00    +0.025 A 
ATOM     15  C   LIG    1      -23.805  78.752  15.045  0.00  0.00    +0.039 A 
ATOM     16  C   LIG    1      -22.636  78.057  14.703  0.00  0.00    +0.036 A 
BRANCH  11  21
ATOM     17  C   LIG    1      -17.787  75.412  16.159  0.00  0.00    +0.105 C 
ATOM     18  N   LIG    1      -18.957  76.172  16.586  0.00  0.00    -0.302 NA
ATOM     19  C   LIG    1      -20.159  75.804  15.797  0.00  0.00    +0.103 C 
ATOM     20  C   LIG    1      -20.240  76.448  14.391  0.00  0.00    +0.120 C 
ATOM     21  N   LIG    1      -20.187  77.923  14.524  0.00  0.00    -0.327 N 
ATOM     22  C   LIG    1      -18.893  78.311  15.139  0.00  0.00    +0.120 C 
ATOM     23  C   LIG    1      -18.709  77.635  16.524  0.00  0.00    +0.103 C 
ENDBRANCH  11  21
BRANCH  13  24
ATOM     24  C   LIG    1      -22.355  81.972  16.416  0.00  0.00    +0.417 C 
ATOM     25  F   LIG    1      -23.192  82.905  15.891  0.00  0.00    -0.166 F 
ATOM     26  F   LIG    1      -21.095  82.472  16.280  0.00  0.00    -0.166 F 
ATOM     27  F   LIG    1      -22.600  81.946  17.755  0.00  0.00    -0.166 F 
ENDBRANCH  13  24
ENDBRANCH   7  15
ENDBRANCH   1   8
BRANCH   3  28
ATOM     28  N   LIG    1      -27.043  72.647  13.424  0.00  0.00    -0.314 N 
ATOM     29  H   LIG    1      -26.080  72.353  13.568  0.00  0.00    +0.152 HD
BRANCH  28  30
ATOM     30  C   LIG    1      -27.979  71.755  14.002  0.00  0.00    +0.033 A 
ATOM     31  C   LIG    1      -28.144  71.750  15.400  0.00  0.00    +0.047 A 
ATOM     32  C   LIG    1      -29.037  70.852  15.970  0.00  0.00    +0.046 A 
ATOM     33  N   LIG    1      -29.362  70.680  17.325  0.00  0.00    -0.265 N 
ATOM     34  C   LIG    1      -30.343  69.700  17.495  0.00  0.00    +0.252 C 
ATOM     35  O   LIG    1      -30.854  69.368  18.540  0.00  0.00    -0.270 OA
ATOM     36  C   LIG    1      -30.642  69.191  16.100  0.00  0.00    +0.048 C 
ATOM     37  C   LIG    1      -31.521  68.255  15.698  0.00  0.00    +0.039 C 
ATOM     38  C   LIG    1      -29.765  69.946  15.190  0.00  0.00    +0.009 A 
ATOM     39  C   LIG    1      -29.565  69.882  13.825  0.00  0.00    +0.012 A 
ATOM     40  C   LIG    1      -28.645  70.764  13.250  0.00  0.00    +0.024 A 
BRANCH  37  41
ATOM     41  C   LIG    1      -32.419  67.517  16.513  0.00  0.00    +0.040 A 
ATOM     42  N   LIG    1      -33.449  68.138  17.180  0.00  0.00    -0.361 N 
ATOM     43  H   LIG    1      -33.593  69.141  17.221  0.00  0.00    +0.165 HD
ATOM     44  C   LIG    1      -34.186  67.221  17.880  0.00  0.00    +0.083 A 
ATOM     45  C   LIG    1      -33.651  65.979  17.638  0.00  0.00    +0.019 A 
ATOM     46  C   LIG    1      -32.547  66.162  16.766  0.00  0.00    +0.027 A 
ENDBRANCH  37  41
BRANCH  33  47
ATOM     47  C   LIG    1      -28.807  71.418  18.439  0.00  0.00    +0.142 C 
BRANCH  47  48
ATOM     48  C   LIG    1      -27.935  70.568  19.370  0.00  0.00    +0.175 C 
BRANCH  48  49
ATOM     49  O   LIG    1      -28.529  70.338  20.644  0.00  0.00    -0.393 OA
ATOM     50  H   LIG    1      -29.161  71.058  20.829  0.00  0.00    +0.209 HD
ENDBRANCH  48  49
ENDBRANCH  47  48
ENDBRANCH  33  47
ENDBRANCH  28  30
ENDBRANCH   3  28
TORSDOF 10
ENDMDL
MODEL 5
REMARK VINA RESULT:      -7.0      7.095     11.830
REMARK  Name = modded_pdb/CHEMBL2037211_nitrogen_modded_with_ethanol_version_3.pdb
REMARK                            x       y       z     vdW  Elec       q    Type
REMARK                         _______ _______ _______ _____ _____    ______ ____
ROOT
ATOM      1  C   LIG    1      -37.942  74.502  25.489  0.00  0.00    +0.035 A 
ATOM      2  C   LIG    1      -38.101  73.116  25.358  0.00  0.00    +0.046 A 
ATOM      3  C   LIG    1      -39.205  72.580  24.681  0.00  0.00    +0.033 A 
ATOM      4  C   LIG    1      -40.063  73.463  24.013  0.00  0.00    +0.023 A 
ATOM      5  C   LIG    1      -39.928  74.841  24.170  0.00  0.00    +0.004 A 
ATOM      6  C   LIG    1      -38.899  75.352  24.949  0.00  0.00    +0.023 A 
ENDROOT
BRANCH   1   8
ATOM      7  C   LIG    1      -36.642  75.235  27.477  0.00  0.00    +0.248 C 
ATOM      8  N   LIG    1      -36.785  74.990  26.122  0.00  0.00    -0.281 N 
ATOM      9  H   LIG    1      -36.036  75.275  25.504  0.00  0.00    +0.155 HD
ATOM     10  O   LIG    1      -37.493  75.124  28.350  0.00  0.00    -0.270 OA
BRANCH   7  15
ATOM     11  C   LIG    1      -33.424  75.454  29.459  0.00  0.00    +0.031 A 
ATOM     12  C   LIG    1      -32.839  76.548  28.800  0.00  0.00    +0.035 A 
ATOM     13  C   LIG    1      -33.446  77.210  27.714  0.00  0.00    +0.057 A 
ATOM     14  C   LIG    1      -34.666  76.748  27.231  0.00  0.00    +0.025 A 
ATOM     15  C   LIG    1      -35.295  75.693  27.882  0.00  0.00    +0.039 A 
ATOM     16  C   LIG    1      -34.669  75.044  28.956  0.00  0.00    +0.036 A 
BRANCH  11  21
ATOM     17  C   LIG    1      -31.219  71.342  31.127  0.00  0.00    +0.105 C 
ATOM     18  N   LIG    1      -31.955  71.981  30.040  0.00  0.00    -0.302 NA
ATOM     19  C   LIG    1      -31.224  73.160  29.512  0.00  0.00    +0.103 C 
ATOM     20  C   LIG    1      -31.351  74.444  30.367  0.00  0.00    +0.120 C 
ATOM     21  N   LIG    1      -32.783  74.794  30.516  0.00  0.00    -0.327 N 
ATOM     22  C   LIG    1      -33.484  73.693  31.224  0.00  0.00    +0.120 C 
ATOM     23  C   LIG    1      -33.330  72.352  30.457  0.00  0.00    +0.103 C 
ENDBRANCH  11  21
BRANCH  13  24
ATOM     24  C   LIG    1      -32.791  78.436  27.138  0.00  0.00    +0.417 C 
ATOM     25  F   LIG    1      -32.327  78.247  25.875  0.00  0.00    -0.166 F 
ATOM     26  F   LIG    1      -31.718  78.826  27.881  0.00  0.00    -0.166 F 
ATOM     27  F   LIG    1      -33.618  79.516  27.086  0.00  0.00    -0.166 F 
ENDBRANCH  13  24
ENDBRANCH   7  15
ENDBRANCH   1   8
BRANCH   3  28
ATOM     28  N   LIG    1      -39.466  71.194  24.600  0.00  0.00    -0.314 N 
ATOM     29  H   LIG    1      -40.324  70.965  25.096  0.00  0.00    +0.152 HD
BRANCH  28  30
ATOM     30  C   LIG    1      -39.170  70.272  23.566  0.00  0.00    +0.033 A 
ATOM     31  C   LIG    1      -37.926  69.613  23.575  0.00  0.00    +0.047 A 
ATOM     32  C   LIG    1      -37.623  68.734  22.543  0.00  0.00    +0.046 A 
ATOM     33  N   LIG    1      -36.459  67.971  22.355  0.00  0.00    -0.265 N 
ATOM     34  C   LIG    1      -36.552  67.171  21.214  0.00  0.00    +0.252 C 
ATOM     35  O   LIG    1      -35.727  66.376  20.824  0.00  0.00    -0.270 OA
ATOM     36  C   LIG    1      -37.906  67.488  20.614  0.00  0.00    +0.048 C 
ATOM     37  C   LIG    1      -38.498  66.983  19.516  0.00  0.00    +0.039 C 
ATOM     38  C   LIG    1      -38.518  68.500  21.491  0.00  0.00    +0.009 A 
ATOM     39  C   LIG    1      -39.711  69.190  21.423  0.00  0.00    +0.012 A 
ATOM     40  C   LIG    1      -40.009  70.099  22.445  0.00  0.00    +0.024 A 
BRANCH  37  41
ATOM     41  C   LIG    1      -37.984  65.984  18.648  0.00  0.00    +0.040 A 
ATOM     42  N   LIG    1      -38.324  64.661  18.806  0.00  0.00    -0.361 N 
ATOM     43  H   LIG    1      -38.869  64.289  19.575  0.00  0.00    +0.165 HD
ATOM     44  C   LIG    1      -37.722  63.896  17.843  0.00  0.00    +0.083 A 
ATOM     45  C   LIG    1      -37.009  64.736  17.024  0.00  0.00    +0.019 A 
ATOM     46  C   LIG    1      -37.184  66.053  17.521  0.00  0.00    +0.027 A 
ENDBRANCH  37  41
BRANCH  33  47
ATOM     47  C   LIG    1      -35.299  67.953  23.219  0.00  0.00    +0.142 C 
BRANCH  47  48
ATOM     48  C   LIG    1      -35.290  66.791  24.218  0.00  0.00    +0.175 C 
BRANCH  48  49
ATOM     49  O   LIG    1      -34.753  65.587  23.678  0.00  0.00    -0.393 OA
ATOM     50  H   LIG    1      -34.107  65.222  24.311  0.00  0.00    +0.209 HD
ENDBRANCH  48  49
ENDBRANCH  47  48
ENDBRANCH  33  47
ENDBRANCH  28  30
ENDBRANCH   3  28
TORSDOF 10
ENDMDL
MODEL 6
REMARK VINA RESULT:      -7.0      3.862     11.876
REMARK  Name = modded_pdb/CHEMBL2037211_nitrogen_modded_with_ethanol_version_3.pdb
REMARK                            x       y       z     vdW  Elec       q    Type
REMARK                         _______ _______ _______ _____ _____    ______ ____
ROOT
ATOM      1  C   LIG    1      -31.569  72.237  29.835  0.00  0.00    +0.035 A 
ATOM      2  C   LIG    1      -30.381  72.417  30.557  0.00  0.00    +0.046 A 
ATOM      3  C   LIG    1      -29.631  71.316  30.992  0.00  0.00    +0.033 A 
ATOM      4  C   LIG    1      -30.019  70.041  30.562  0.00  0.00    +0.023 A 
ATOM      5  C   LIG    1      -31.216  69.855  29.875  0.00  0.00    +0.004 A 
ATOM      6  C   LIG    1      -32.011  70.949  29.560  0.00  0.00    +0.023 A 
ENDROOT
BRANCH   1   8
ATOM      7  C   LIG    1      -31.881  74.691  29.584  0.00  0.00    +0.248 C 
ATOM      8  N   LIG    1      -32.250  73.374  29.366  0.00  0.00    -0.281 N 
ATOM      9  H   LIG    1      -33.140  73.196  28.917  0.00  0.00    +0.155 HD
ATOM     10  O   LIG    1      -30.943  75.101  30.254  0.00  0.00    -0.270 OA
BRANCH   7  15
ATOM     11  C   LIG    1      -35.016  76.279  28.177  0.00  0.00    +0.031 A 
ATOM     12  C   LIG    1      -34.440  77.429  27.613  0.00  0.00    +0.035 A 
ATOM     13  C   LIG    1      -33.064  77.722  27.691  0.00  0.00    +0.057 A 
ATOM     14  C   LIG    1      -32.224  76.861  28.390  0.00  0.00    +0.025 A 
ATOM     15  C   LIG    1      -32.749  75.692  28.927  0.00  0.00    +0.039 A 
ATOM     16  C   LIG    1      -34.124  75.425  28.845  0.00  0.00    +0.036 A 
BRANCH  11  21
ATOM     17  C   LIG    1      -39.312  76.996  25.815  0.00  0.00    +0.105 C 
ATOM     18  N   LIG    1      -37.897  77.337  25.908  0.00  0.00    -0.302 NA
ATOM     19  C   LIG    1      -37.039  76.138  25.728  0.00  0.00    +0.103 C 
ATOM     20  C   LIG    1      -36.914  75.231  26.977  0.00  0.00    +0.120 C 
ATOM     21  N   LIG    1      -36.393  76.029  28.112  0.00  0.00    -0.327 N 
ATOM     22  C   LIG    1      -37.351  77.119  28.423  0.00  0.00    +0.120 C 
ATOM     23  C   LIG    1      -37.585  78.026  27.185  0.00  0.00    +0.103 C 
ENDBRANCH  11  21
BRANCH  13  24
ATOM     24  C   LIG    1      -32.524  78.927  26.969  0.00  0.00    +0.417 C 
ATOM     25  F   LIG    1      -32.206  78.672  25.673  0.00  0.00    -0.166 F 
ATOM     26  F   LIG    1      -31.386  79.393  27.555  0.00  0.00    -0.166 F 
ATOM     27  F   LIG    1      -33.389  79.979  26.953  0.00  0.00    -0.166 F 
ENDBRANCH  13  24
ENDBRANCH   7  15
ENDBRANCH   1   8
BRANCH   3  28
ATOM     28  N   LIG    1      -28.479  71.436  31.803  0.00  0.00    -0.314 N 
ATOM     29  H   LIG    1      -28.232  70.533  32.202  0.00  0.00    +0.152 HD
BRANCH  28  30
ATOM     30  C   LIG    1      -27.365  72.301  31.677  0.00  0.00    +0.033 A 
ATOM     31  C   LIG    1      -27.507  73.653  32.041  0.00  0.00    +0.047 A 
ATOM     32  C   LIG    1      -26.425  74.510  31.886  0.00  0.00    +0.046 A 
ATOM     33  N   LIG    1      -26.340  75.878  32.188  0.00  0.00    -0.265 N 
ATOM     34  C   LIG    1      -25.061  76.379  31.931  0.00  0.00    +0.252 C 
ATOM     35  O   LIG    1      -24.677  77.508  32.137  0.00  0.00    -0.270 OA
ATOM     36  C   LIG    1      -24.274  75.204  31.390  0.00  0.00    +0.048 C 
ATOM     37  C   LIG    1      -22.988  75.138  31.001  0.00  0.00    +0.039 C 
ATOM     38  C   LIG    1      -25.204  74.062  31.366  0.00  0.00    +0.009 A 
ATOM     39  C   LIG    1      -25.064  72.758  30.935  0.00  0.00    +0.012 A 
ATOM     40  C   LIG    1      -26.161  71.899  31.061  0.00  0.00    +0.024 A 
BRANCH  37  41
ATOM     41  C   LIG    1      -22.029  76.186  31.030  0.00  0.00    +0.040 A 
ATOM     42  N   LIG    1      -21.578  76.703  32.222  0.00  0.00    -0.361 N 
ATOM     43  H   LIG    1      -21.941  76.459  33.136  0.00  0.00    +0.165 HD
ATOM     44  C   LIG    1      -20.649  77.684  31.994  0.00  0.00    +0.083 A 
ATOM     45  C   LIG    1      -20.466  77.782  30.636  0.00  0.00    +0.019 A 
ATOM     46  C   LIG    1      -21.324  76.829  30.028  0.00  0.00    +0.027 A 
ENDBRANCH  37  41
BRANCH  33  47
ATOM     47  C   LIG    1      -27.399  76.703  32.726  0.00  0.00    +0.142 C 
BRANCH  47  48
ATOM     48  C   LIG    1      -28.438  77.133  31.684  0.00  0.00    +0.175 C 
BRANCH  48  49
ATOM     49  O   LIG    1      -29.775  77.107  32.175  0.00  0.00    -0.393 OA
ATOM     50  H   LIG    1      -30.366  77.472  31.491  0.00  0.00    +0.209 HD
ENDBRANCH  48  49
ENDBRANCH  47  48
ENDBRANCH  33  47
ENDBRANCH  28  30
ENDBRANCH   3  28
TORSDOF 10
ENDMDL
MODEL 7
REMARK VINA RESULT:      -7.0      2.134      3.223
REMARK  Name = modded_pdb/CHEMBL2037211_nitrogen_modded_with_ethanol_version_3.pdb
REMARK                            x       y       z     vdW  Elec       q    Type
REMARK                         _______ _______ _______ _____ _____    ______ ____
ROOT
ATOM      1  C   LIG    1      -28.151  75.343  33.041  0.00  0.00    +0.035 A 
ATOM      2  C   LIG    1      -28.658  74.789  31.858  0.00  0.00    +0.046 A 
ATOM      3  C   LIG    1      -29.954  74.257  31.811  0.00  0.00    +0.033 A 
ATOM      4  C   LIG    1      -30.779  74.427  32.931  0.00  0.00    +0.023 A 
ATOM      5  C   LIG    1      -30.267  74.946  34.119  0.00  0.00    +0.004 A 
ATOM      6  C   LIG    1      -28.942  75.353  34.183  0.00  0.00    +0.023 A 
ENDROOT
BRANCH   1   8
ATOM      7  C   LIG    1      -26.462  76.967  32.209  0.00  0.00    +0.248 C 
ATOM      8  N   LIG    1      -26.869  75.920  33.019  0.00  0.00    -0.281 N 
ATOM      9  H   LIG    1      -26.168  75.450  33.579  0.00  0.00    +0.155 HD
ATOM     10  O   LIG    1      -27.114  77.539  31.345  0.00  0.00    -0.270 OA
BRANCH   7  15
ATOM     11  C   LIG    1      -22.725  77.294  31.706  0.00  0.00    +0.031 A 
ATOM     12  C   LIG    1      -22.425  78.087  32.826  0.00  0.00    +0.035 A 
ATOM     13  C   LIG    1      -23.402  78.542  33.735  0.00  0.00    +0.057 A 
ATOM     14  C   LIG    1      -24.739  78.232  33.507  0.00  0.00    +0.025 A 
ATOM     15  C   LIG    1      -25.071  77.415  32.432  0.00  0.00    +0.039 A 
ATOM     16  C   LIG    1      -24.083  76.982  31.536  0.00  0.00    +0.036 A 
BRANCH  11  21
ATOM     17  C   LIG    1      -18.014  75.965  30.940  0.00  0.00    +0.105 C 
ATOM     18  N   LIG    1      -19.003  76.469  31.886  0.00  0.00    -0.302 NA
ATOM     19  C   LIG    1      -20.120  75.508  32.065  0.00  0.00    +0.103 C 
ATOM     20  C   LIG    1      -21.178  75.518  30.935  0.00  0.00    +0.120 C 
ATOM     21  N   LIG    1      -21.738  76.884  30.800  0.00  0.00    -0.327 N 
ATOM     22  C   LIG    1      -20.650  77.822  30.426  0.00  0.00    +0.120 C 
ATOM     23  C   LIG    1      -19.512  77.804  31.482  0.00  0.00    +0.103 C 
ENDBRANCH  11  21
BRANCH  13  24
ATOM     24  C   LIG    1      -22.972  79.301  34.960  0.00  0.00    +0.417 C 
ATOM     25  F   LIG    1      -22.544  80.560  34.683  0.00  0.00    -0.166 F 
ATOM     26  F   LIG    1      -21.940  78.681  35.598  0.00  0.00    -0.166 F 
ATOM     27  F   LIG    1      -23.959  79.427  35.890  0.00  0.00    -0.166 F 
ENDBRANCH  13  24
ENDBRANCH   7  15
ENDBRANCH   1   8
BRANCH   3  28
ATOM     28  N   LIG    1      -30.482  73.602  30.676  0.00  0.00    -0.314 N 
ATOM     29  H   LIG    1      -30.194  72.627  30.664  0.00  0.00    +0.152 HD
BRANCH  28  30
ATOM     30  C   LIG    1      -31.698  73.820  29.984  0.00  0.00    +0.033 A 
ATOM     31  C   LIG    1      -31.913  75.062  29.356  0.00  0.00    +0.047 A 
ATOM     32  C   LIG    1      -33.119  75.288  28.707  0.00  0.00    +0.046 A 
ATOM     33  N   LIG    1      -33.540  76.436  28.015  0.00  0.00    -0.265 N 
ATOM     34  C   LIG    1      -34.809  76.259  27.458  0.00  0.00    +0.252 C 
ATOM     35  O   LIG    1      -35.409  77.054  26.771  0.00  0.00    -0.270 OA
ATOM     36  C   LIG    1      -35.233  74.864  27.867  0.00  0.00    +0.048 C 
ATOM     37  C   LIG    1      -36.363  74.192  27.583  0.00  0.00    +0.039 C 
ATOM     38  C   LIG    1      -34.129  74.318  28.674  0.00  0.00    +0.009 A 
ATOM     39  C   LIG    1      -33.970  73.122  29.344  0.00  0.00    +0.012 A 
ATOM     40  C   LIG    1      -32.768  72.901  30.026  0.00  0.00    +0.024 A 
BRANCH  37  41
ATOM     41  C   LIG    1      -37.449  74.642  26.785  0.00  0.00    +0.040 A 
ATOM     42  N   LIG    1      -38.254  75.678  27.198  0.00  0.00    -0.361 N 
ATOM     43  H   LIG    1      -38.203  76.126  28.106  0.00  0.00    +0.165 HD
ATOM     44  C   LIG    1      -39.213  75.940  26.257  0.00  0.00    +0.083 A 
ATOM     45  C   LIG    1      -39.009  75.088  25.199  0.00  0.00    +0.019 A 
ATOM     46  C   LIG    1      -37.890  74.279  25.524  0.00  0.00    +0.027 A 
ENDBRANCH  37  41
BRANCH  33  47
ATOM     47  C   LIG    1      -32.784  77.657  27.843  0.00  0.00    +0.142 C 
BRANCH  47  48
ATOM     48  C   LIG    1      -31.963  77.699  26.549  0.00  0.00    +0.175 C 
BRANCH  48  49
ATOM     49  O   LIG    1      -32.389  78.713  25.644  0.00  0.00    -0.393 OA
ATOM     50  H   LIG    1      -31.972  78.552  24.777  0.00  0.00    +0.209 HD
ENDBRANCH  48  49
ENDBRANCH  47  48
ENDBRANCH  33  47
ENDBRANCH  28  30
ENDBRANCH   3  28
TORSDOF 10
ENDMDL
MODEL 8
REMARK VINA RESULT:      -6.9      9.150     12.439
REMARK  Name = modded_pdb/CHEMBL2037211_nitrogen_modded_with_ethanol_version_3.pdb
REMARK                            x       y       z     vdW  Elec       q    Type
REMARK                         _______ _______ _______ _____ _____    ______ ____
ROOT
ATOM      1  C   LIG    1      -36.736  68.918  24.572  0.00  0.00    +0.035 A 
ATOM      2  C   LIG    1      -37.861  69.700  24.868  0.00  0.00    +0.046 A 
ATOM      3  C   LIG    1      -38.813  69.990  23.881  0.00  0.00    +0.033 A 
ATOM      4  C   LIG    1      -38.689  69.359  22.636  0.00  0.00    +0.023 A 
ATOM      5  C   LIG    1      -37.555  68.610  22.329  0.00  0.00    +0.004 A 
ATOM      6  C   LIG    1      -36.560  68.436  23.281  0.00  0.00    +0.023 A 
ENDROOT
BRANCH   1   8
ATOM      7  C   LIG    1      -34.604  69.181  25.823  0.00  0.00    +0.248 C 
ATOM      8  N   LIG    1      -35.844  68.603  25.612  0.00  0.00    -0.281 N 
ATOM      9  H   LIG    1      -36.106  67.813  26.189  0.00  0.00    +0.155 HD
ATOM     10  O   LIG    1      -34.043  70.018  25.128  0.00  0.00    -0.270 OA
BRANCH   7  15
ATOM     11  C   LIG    1      -33.565  66.865  28.632  0.00  0.00    +0.031 A 
ATOM     12  C   LIG    1      -32.725  67.743  29.336  0.00  0.00    +0.035 A 
ATOM     13  C   LIG    1      -32.464  69.064  28.919  0.00  0.00    +0.057 A 
ATOM     14  C   LIG    1      -33.027  69.526  27.733  0.00  0.00    +0.025 A 
ATOM     15  C   LIG    1      -33.896  68.701  27.029  0.00  0.00    +0.039 A 
ATOM     16  C   LIG    1      -34.133  67.387  27.458  0.00  0.00    +0.036 A 
BRANCH  11  21
ATOM     17  C   LIG    1      -32.749  62.033  27.899  0.00  0.00    +0.105 C 
ATOM     18  N   LIG    1      -32.577  63.392  27.397  0.00  0.00    -0.302 NA
ATOM     19  C   LIG    1      -31.809  64.230  28.352  0.00  0.00    +0.103 C 
ATOM     20  C   LIG    1      -32.626  64.765  29.553  0.00  0.00    +0.120 C 
ATOM     21  N   LIG    1      -33.781  65.546  29.052  0.00  0.00    -0.327 N 
ATOM     22  C   LIG    1      -34.661  64.657  28.251  0.00  0.00    +0.120 C 
ATOM     23  C   LIG    1      -33.882  64.021  27.069  0.00  0.00    +0.103 C 
ENDBRANCH  11  21
BRANCH  13  24
ATOM     24  C   LIG    1      -31.632  69.963  29.792  0.00  0.00    +0.417 C 
ATOM     25  F   LIG    1      -30.660  70.619  29.106  0.00  0.00    -0.166 F 
ATOM     26  F   LIG    1      -30.998  69.261  30.772  0.00  0.00    -0.166 F 
ATOM     27  F   LIG    1      -32.361  70.918  30.434  0.00  0.00    -0.166 F 
ENDBRANCH  13  24
ENDBRANCH   7  15
ENDBRANCH   1   8
BRANCH   3  28
ATOM     28  N   LIG    1      -39.914  70.849  24.096  0.00  0.00    -0.314 N 
ATOM     29  H   LIG    1      -40.549  70.446  24.781  0.00  0.00    +0.152 HD
BRANCH  28  30
ATOM     30  C   LIG    1      -39.987  72.262  24.050  0.00  0.00    +0.033 A 
ATOM     31  C   LIG    1      -39.033  73.018  24.757  0.00  0.00    +0.047 A 
ATOM     32  C   LIG    1      -39.124  74.404  24.739  0.00  0.00    +0.046 A 
ATOM     33  N   LIG    1      -38.287  75.346  25.359  0.00  0.00    -0.265 N 
ATOM     34  C   LIG    1      -38.684  76.653  25.067  0.00  0.00    +0.252 C 
ATOM     35  O   LIG    1      -38.130  77.668  25.421  0.00  0.00    -0.270 OA
ATOM     36  C   LIG    1      -39.913  76.510  24.194  0.00  0.00    +0.048 C 
ATOM     37  C   LIG    1      -40.678  77.460  23.625  0.00  0.00    +0.039 C 
ATOM     38  C   LIG    1      -40.148  75.064  24.047  0.00  0.00    +0.009 A 
ATOM     39  C   LIG    1      -41.136  74.342  23.408  0.00  0.00    +0.012 A 
ATOM     40  C   LIG    1      -41.066  72.945  23.448  0.00  0.00    +0.024 A 
BRANCH  37  41
ATOM     41  C   LIG    1      -40.489  78.866  23.695  0.00  0.00    +0.040 A 
ATOM     42  N   LIG    1      -39.393  79.466  23.122  0.00  0.00    -0.361 N 
ATOM     43  H   LIG    1      -38.613  78.972  22.703  0.00  0.00    +0.165 HD
ATOM     44  C   LIG    1      -39.443  80.823  23.304  0.00  0.00    +0.083 A 
ATOM     45  C   LIG    1      -40.607  81.114  23.972  0.00  0.00    +0.019 A 
ATOM     46  C   LIG    1      -41.274  79.885  24.207  0.00  0.00    +0.027 A 
ENDBRANCH  37  41
BRANCH  33  47
ATOM     47  C   LIG    1      -37.130  75.054  26.177  0.00  0.00    +0.142 C 
BRANCH  47  48
ATOM     48  C   LIG    1      -37.417  75.076  27.683  0.00  0.00    +0.175 C 
BRANCH  48  49
ATOM     49  O   LIG    1      -37.507  76.392  28.221  0.00  0.00    -0.393 OA
ATOM     50  H   LIG    1      -38.229  76.866  27.768  0.00  0.00    +0.209 HD
ENDBRANCH  48  49
ENDBRANCH  47  48
ENDBRANCH  33  47
ENDBRANCH  28  30
ENDBRANCH   3  28
TORSDOF 10
ENDMDL
MODEL 9
REMARK VINA RESULT:      -6.8      2.296      3.144
REMARK  Name = modded_pdb/CHEMBL2037211_nitrogen_modded_with_ethanol_version_3.pdb
REMARK                            x       y       z     vdW  Elec       q    Type
REMARK                         _______ _______ _______ _____ _____    ______ ____
ROOT
ATOM      1  C   LIG    1      -26.855  76.584  32.776  0.00  0.00    +0.035 A 
ATOM      2  C   LIG    1      -27.749  76.813  31.722  0.00  0.00    +0.046 A 
ATOM      3  C   LIG    1      -29.129  76.646  31.901  0.00  0.00    +0.033 A 
ATOM      4  C   LIG    1      -29.601  76.389  33.195  0.00  0.00    +0.023 A 
ATOM      5  C   LIG    1      -28.713  76.127  34.237  0.00  0.00    +0.004 A 
ATOM      6  C   LIG    1      -27.345  76.175  34.009  0.00  0.00    +0.023 A 
ENDROOT
BRANCH   1   8
ATOM      7  C   LIG    1      -24.734  77.825  33.158  0.00  0.00    +0.248 C 
ATOM      8  N   LIG    1      -25.486  76.827  32.562  0.00  0.00    -0.281 N 
ATOM      9  H   LIG    1      -25.054  76.276  31.831  0.00  0.00    +0.155 HD
ATOM     10  O   LIG    1      -25.124  78.695  33.926  0.00  0.00    -0.270 OA
BRANCH   7  15
ATOM     11  C   LIG    1      -21.047  78.675  33.278  0.00  0.00    +0.031 A 
ATOM     12  C   LIG    1      -20.628  77.975  32.135  0.00  0.00    +0.035 A 
ATOM     13  C   LIG    1      -21.500  77.214  31.331  0.00  0.00    +0.057 A 
ATOM     14  C   LIG    1      -22.839  77.107  31.693  0.00  0.00    +0.025 A 
ATOM     15  C   LIG    1      -23.301  77.818  32.795  0.00  0.00    +0.039 A 
ATOM     16  C   LIG    1      -22.413  78.562  33.586  0.00  0.00    +0.036 A 
BRANCH  11  21
ATOM     17  C   LIG    1      -19.028  79.378  37.748  0.00  0.00    +0.105 C 
ATOM     18  N   LIG    1      -20.025  78.666  36.954  0.00  0.00    -0.302 NA
ATOM     19  C   LIG    1      -19.389  77.876  35.870  0.00  0.00    +0.103 C 
ATOM     20  C   LIG    1      -18.968  78.696  34.626  0.00  0.00    +0.120 C 
ATOM     21  N   LIG    1      -20.152  79.398  34.077  0.00  0.00    -0.327 N 
ATOM     22  C   LIG    1      -20.678  80.339  35.098  0.00  0.00    +0.120 C 
ATOM     23  C   LIG    1      -21.048  79.591  36.407  0.00  0.00    +0.103 C 
ENDBRANCH  11  21
BRANCH  13  24
ATOM     24  C   LIG    1      -20.978  76.583  30.069  0.00  0.00    +0.417 C 
ATOM     25  F   LIG    1      -21.964  76.092  29.273  0.00  0.00    -0.166 F 
ATOM     26  F   LIG    1      -20.151  75.534  30.339  0.00  0.00    -0.166 F 
ATOM     27  F   LIG    1      -20.252  77.438  29.298  0.00  0.00    -0.166 F 
ENDBRANCH  13  24
ENDBRANCH   7  15
ENDBRANCH   1   8
BRANCH   3  28
ATOM     28  N   LIG    1      -30.067  76.771  30.852  0.00  0.00    -0.314 N 
ATOM     29  H   LIG    1      -29.756  77.466  30.179  0.00  0.00    +0.152 HD
BRANCH  28  30
ATOM     30  C   LIG    1      -30.922  75.799  30.277  0.00  0.00    +0.033 A 
ATOM     31  C   LIG    1      -32.210  76.184  29.860  0.00  0.00    +0.047 A 
ATOM     32  C   LIG    1      -33.061  75.224  29.327  0.00  0.00    +0.046 A 
ATOM     33  N   LIG    1      -34.370  75.383  28.845  0.00  0.00    -0.265 N 
ATOM     34  C   LIG    1      -34.880  74.182  28.345  0.00  0.00    +0.252 C 
ATOM     35  O   LIG    1      -35.960  74.022  27.825  0.00  0.00    -0.270 OA
ATOM     36  C   LIG    1      -33.781  73.163  28.562  0.00  0.00    +0.048 C 
ATOM     37  C   LIG    1      -33.749  71.855  28.246  0.00  0.00    +0.039 C 
ATOM     38  C   LIG    1      -32.672  73.884  29.207  0.00  0.00    +0.009 A 
ATOM     39  C   LIG    1      -31.441  73.469  29.676  0.00  0.00    +0.012 A 
ATOM     40  C   LIG    1      -30.592  74.427  30.241  0.00  0.00    +0.024 A 
BRANCH  37  41
ATOM     41  C   LIG    1      -34.765  71.106  27.594  0.00  0.00    +0.040 A 
ATOM     42  N   LIG    1      -35.941  70.794  28.235  0.00  0.00    -0.361 N 
ATOM     43  H   LIG    1      -36.137  70.980  29.212  0.00  0.00    +0.165 HD
ATOM     44  C   LIG    1      -36.766  70.088  27.400  0.00  0.00    +0.083 A 
ATOM     45  C   LIG    1      -36.134  69.970  26.186  0.00  0.00    +0.019 A 
ATOM     46  C   LIG    1      -34.879  70.623  26.303  0.00  0.00    +0.027 A 
ENDBRANCH  37  41
BRANCH  33  47
ATOM     47  C   LIG    1      -35.127  76.615  28.817  0.00  0.00    +0.142 C 
BRANCH  47  48
ATOM     48  C   LIG    1      -35.039  77.365  27.482  0.00  0.00    +0.175 C 
BRANCH  48  49
ATOM     49  O   LIG    1      -35.886  76.822  26.473  0.00  0.00    -0.393 OA
ATOM     50  H   LIG    1      -36.806  77.084  26.664  0.00  0.00    +0.209 HD
ENDBRANCH  48  49
ENDBRANCH  47  48
ENDBRANCH  33  47
ENDBRANCH  28  30
ENDBRANCH   3  28
TORSDOF 10
ENDMDL
