MODEL 1
REMARK VINA RESULT:      -7.2      0.000      0.000
REMARK  Name = modded_pdb/CHEMBL2037208_nitrogen_modded_with_ethanol_version_1.pdb
REMARK                            x       y       z     vdW  Elec       q    Type
REMARK                         _______ _______ _______ _____ _____    ______ ____
ROOT
ATOM      1  C   LIG    1      -38.763  74.389  24.810  0.00  0.00    +0.038 A 
ATOM      2  C   LIG    1      -38.215  73.101  25.031  0.00  0.00    +0.046 A 
ATOM      3  C   LIG    1      -38.880  71.902  24.702  0.00  0.00    +0.033 A 
ATOM      4  C   LIG    1      -40.107  71.995  24.051  0.00  0.00    +0.023 A 
ATOM      5  C   LIG    1      -40.656  73.242  23.766  0.00  0.00    +0.004 A 
ATOM      6  C   LIG    1      -39.998  74.419  24.148  0.00  0.00    +0.023 A 
ENDROOT
BRANCH   1   8
ATOM      7  C   LIG    1      -37.598  75.659  26.662  0.00  0.00    +0.251 C 
ATOM      8  N   LIG    1      -38.110  75.602  25.331  0.00  0.00    -0.265 N 
ATOM      9  O   LIG    1      -37.846  74.817  27.530  0.00  0.00    -0.270 OA
BRANCH   7  12
ATOM     10  C   LIG    1      -34.327  77.380  27.607  0.00  0.00    +0.056 A 
ATOM     11  C   LIG    1      -35.279  76.471  27.100  0.00  0.00    +0.025 A 
ATOM     12  C   LIG    1      -36.666  76.743  27.146  0.00  0.00    +0.038 A 
ATOM     13  C   LIG    1      -37.072  77.923  27.775  0.00  0.00    +0.013 A 
ATOM     14  C   LIG    1      -36.142  78.886  28.177  0.00  0.00    +0.001 A 
ATOM     15  C   LIG    1      -34.776  78.617  28.091  0.00  0.00    +0.012 A 
BRANCH  10  17
ATOM     16  F   LIG    1      -32.141  77.811  28.512  0.00  0.00    -0.166 F 
ATOM     17  C   LIG    1      -32.858  77.010  27.672  0.00  0.00    +0.417 C 
ATOM     18  F   LIG    1      -32.648  75.739  28.115  0.00  0.00    -0.166 F 
ATOM     19  F   LIG    1      -32.249  77.096  26.462  0.00  0.00    -0.166 F 
ENDBRANCH  10  17
ENDBRANCH   7  12
BRANCH   8  20
ATOM     20  C   LIG    1      -37.827  76.638  24.318  0.00  0.00    +0.141 C 
BRANCH  20  21
ATOM     21  C   LIG    1      -38.842  77.776  24.320  0.00  0.00    +0.175 C 
BRANCH  21  22
ATOM     22  O   LIG    1      -39.468  77.835  23.042  0.00  0.00    -0.393 OA
ATOM     23  H   LIG    1      -38.763  77.760  22.375  0.00  0.00    +0.209 HD
ENDBRANCH  21  22
ENDBRANCH  20  21
ENDBRANCH   8  20
ENDBRANCH   1   8
BRANCH   3  24
ATOM     24  N   LIG    1      -38.263  70.668  25.009  0.00  0.00    -0.314 N 
ATOM     25  H   LIG    1      -38.550  70.281  25.902  0.00  0.00    +0.152 HD
BRANCH  24  26
ATOM     26  C   LIG    1      -37.500  69.797  24.203  0.00  0.00    +0.033 A 
ATOM     27  C   LIG    1      -37.871  69.510  22.884  0.00  0.00    +0.047 A 
ATOM     28  C   LIG    1      -37.112  68.604  22.168  0.00  0.00    +0.043 A 
ATOM     29  N   LIG    1      -37.342  68.202  20.857  0.00  0.00    -0.281 N 
ATOM     30  H   LIG    1      -38.088  68.519  20.259  0.00  0.00    +0.155 HD
ATOM     31  C   LIG    1      -36.387  67.308  20.432  0.00  0.00    +0.249 C 
ATOM     32  O   LIG    1      -36.314  66.836  19.309  0.00  0.00    -0.270 OA
ATOM     33  C   LIG    1      -35.455  67.120  21.608  0.00  0.00    +0.048 C 
ATOM     34  C   LIG    1      -34.361  66.338  21.699  0.00  0.00    +0.039 C 
ATOM     35  C   LIG    1      -35.986  67.969  22.690  0.00  0.00    +0.008 A 
ATOM     36  C   LIG    1      -35.599  68.234  23.993  0.00  0.00    +0.012 A 
ATOM     37  C   LIG    1      -36.367  69.146  24.745  0.00  0.00    +0.024 A 
BRANCH  34  38
ATOM     38  C   LIG    1      -33.818  65.504  20.683  0.00  0.00    +0.040 A 
ATOM     39  N   LIG    1      -34.413  64.315  20.326  0.00  0.00    -0.361 N 
ATOM     40  H   LIG    1      -35.198  63.891  20.811  0.00  0.00    +0.165 HD
ATOM     41  C   LIG    1      -33.709  63.713  19.317  0.00  0.00    +0.083 A 
ATOM     42  C   LIG    1      -32.647  64.525  19.002  0.00  0.00    +0.019 A 
ATOM     43  C   LIG    1      -32.726  65.661  19.846  0.00  0.00    +0.027 A 
ENDBRANCH  34  38
ENDBRANCH  24  26
ENDBRANCH   3  24
TORSDOF 9
ENDMDL
MODEL 2
REMARK VINA RESULT:      -6.9     19.062     20.911
REMARK  Name = modded_pdb/CHEMBL2037208_nitrogen_modded_with_ethanol_version_1.pdb
REMARK                            x       y       z     vdW  Elec       q    Type
REMARK                         _______ _______ _______ _____ _____    ______ ____
ROOT
ATOM      1  C   LIG    1      -21.075  85.114  13.730  0.00  0.00    +0.038 A 
ATOM      2  C   LIG    1      -22.229  84.473  14.246  0.00  0.00    +0.046 A 
ATOM      3  C   LIG    1      -22.286  83.097  14.553  0.00  0.00    +0.033 A 
ATOM      4  C   LIG    1      -21.120  82.350  14.418  0.00  0.00    +0.023 A 
ATOM      5  C   LIG    1      -19.950  82.954  13.965  0.00  0.00    +0.004 A 
ATOM      6  C   LIG    1      -19.932  84.312  13.619  0.00  0.00    +0.023 A 
ENDROOT
BRANCH   1   8
ATOM      7  C   LIG    1      -21.658  86.846  11.981  0.00  0.00    +0.251 C 
ATOM      8  N   LIG    1      -21.118  86.508  13.257  0.00  0.00    -0.265 N 
ATOM      9  O   LIG    1      -21.918  86.018  11.103  0.00  0.00    -0.270 OA
BRANCH   7  12
ATOM     10  C   LIG    1      -23.779  89.960  11.384  0.00  0.00    +0.056 A 
ATOM     11  C   LIG    1      -23.329  88.691  11.805  0.00  0.00    +0.025 A 
ATOM     12  C   LIG    1      -22.003  88.258  11.573  0.00  0.00    +0.038 A 
ATOM     13  C   LIG    1      -21.162  89.108  10.851  0.00  0.00    +0.013 A 
ATOM     14  C   LIG    1      -21.554  90.412  10.530  0.00  0.00    +0.001 A 
ATOM     15  C   LIG    1      -22.855  90.837  10.798  0.00  0.00    +0.012 A 
BRANCH  10  17
ATOM     16  F   LIG    1      -25.578  90.723  12.787  0.00  0.00    -0.166 F 
ATOM     17  C   LIG    1      -25.238  90.351  11.520  0.00  0.00    +0.417 C 
ATOM     18  F   LIG    1      -25.582  91.405  10.727  0.00  0.00    -0.166 F 
ATOM     19  F   LIG    1      -26.078  89.337  11.190  0.00  0.00    -0.166 F 
ENDBRANCH  10  17
ENDBRANCH   7  12
BRANCH   8  20
ATOM     20  C   LIG    1      -20.785  87.519  14.280  0.00  0.00    +0.141 C 
BRANCH  20  21
ATOM     21  C   LIG    1      -21.933  87.802  15.244  0.00  0.00    +0.175 C 
BRANCH  21  22
ATOM     22  O   LIG    1      -21.512  87.480  16.566  0.00  0.00    -0.393 OA
ATOM     23  H   LIG    1      -21.939  86.639  16.805  0.00  0.00    +0.209 HD
ENDBRANCH  21  22
ENDBRANCH  20  21
ENDBRANCH   8  20
ENDBRANCH   1   8
BRANCH   3  24
ATOM     24  N   LIG    1      -23.502  82.548  15.019  0.00  0.00    -0.314 N 
ATOM     25  H   LIG    1      -24.025  83.175  15.624  0.00  0.00    +0.152 HD
BRANCH  24  26
ATOM     26  C   LIG    1      -24.201  81.389  14.620  0.00  0.00    +0.033 A 
ATOM     27  C   LIG    1      -24.861  81.323  13.388  0.00  0.00    +0.047 A 
ATOM     28  C   LIG    1      -25.575  80.179  13.084  0.00  0.00    +0.043 A 
ATOM     29  N   LIG    1      -26.291  79.951  11.914  0.00  0.00    -0.281 N 
ATOM     30  H   LIG    1      -26.381  80.587  11.138  0.00  0.00    +0.155 HD
ATOM     31  C   LIG    1      -26.865  78.702  11.914  0.00  0.00    +0.249 C 
ATOM     32  O   LIG    1      -27.502  78.219  10.991  0.00  0.00    -0.270 OA
ATOM     33  C   LIG    1      -26.474  78.074  13.233  0.00  0.00    +0.048 C 
ATOM     34  C   LIG    1      -26.792  76.857  13.713  0.00  0.00    +0.039 C 
ATOM     35  C   LIG    1      -25.659  79.081  13.938  0.00  0.00    +0.008 A 
ATOM     36  C   LIG    1      -25.016  79.121  15.163  0.00  0.00    +0.012 A 
ATOM     37  C   LIG    1      -24.293  80.284  15.499  0.00  0.00    +0.024 A 
BRANCH  34  38
ATOM     38  C   LIG    1      -27.575  75.859  13.068  0.00  0.00    +0.040 A 
ATOM     39  N   LIG    1      -28.906  76.059  12.778  0.00  0.00    -0.361 N 
ATOM     40  H   LIG    1      -29.453  76.858  13.083  0.00  0.00    +0.165 HD
ATOM     41  C   LIG    1      -29.426  74.962  12.143  0.00  0.00    +0.083 A 
ATOM     42  C   LIG    1      -28.418  74.038  12.007  0.00  0.00    +0.019 A 
ATOM     43  C   LIG    1      -27.249  74.609  12.570  0.00  0.00    +0.027 A 
ENDBRANCH  34  38
ENDBRANCH  24  26
ENDBRANCH   3  24
TORSDOF 9
ENDMDL
MODEL 3
REMARK VINA RESULT:      -6.8      8.546     12.689
REMARK  Name = modded_pdb/CHEMBL2037208_nitrogen_modded_with_ethanol_version_1.pdb
REMARK                            x       y       z     vdW  Elec       q    Type
REMARK                         _______ _______ _______ _____ _____    ______ ____
ROOT
ATOM      1  C   LIG    1      -26.928  76.327  32.269  0.00  0.00    +0.038 A 
ATOM      2  C   LIG    1      -27.971  76.577  31.343  0.00  0.00    +0.046 A 
ATOM      3  C   LIG    1      -29.337  76.605  31.693  0.00  0.00    +0.033 A 
ATOM      4  C   LIG    1      -29.668  76.460  33.038  0.00  0.00    +0.023 A 
ATOM      5  C   LIG    1      -28.669  76.267  33.988  0.00  0.00    +0.004 A 
ATOM      6  C   LIG    1      -27.322  76.193  33.607  0.00  0.00    +0.023 A 
ENDROOT
BRANCH   1   8
ATOM      7  C   LIG    1      -24.864  77.107  31.034  0.00  0.00    +0.251 C 
ATOM      8  N   LIG    1      -25.537  76.131  31.826  0.00  0.00    -0.265 N 
ATOM      9  O   LIG    1      -25.429  78.055  30.483  0.00  0.00    -0.270 OA
BRANCH   7  12
ATOM     10  C   LIG    1      -21.158  77.695  31.728  0.00  0.00    +0.056 A 
ATOM     11  C   LIG    1      -22.557  77.574  31.866  0.00  0.00    +0.025 A 
ATOM     12  C   LIG    1      -23.370  77.105  30.808  0.00  0.00    +0.038 A 
ATOM     13  C   LIG    1      -22.748  76.823  29.590  0.00  0.00    +0.013 A 
ATOM     14  C   LIG    1      -21.354  76.825  29.472  0.00  0.00    +0.001 A 
ATOM     15  C   LIG    1      -20.563  77.256  30.537  0.00  0.00    +0.012 A 
BRANCH  10  17
ATOM     16  F   LIG    1      -19.457  79.274  32.358  0.00  0.00    -0.166 F 
ATOM     17  C   LIG    1      -20.322  78.328  32.824  0.00  0.00    +0.417 C 
ATOM     18  F   LIG    1      -21.073  78.957  33.770  0.00  0.00    -0.166 F 
ATOM     19  F   LIG    1      -19.561  77.418  33.485  0.00  0.00    -0.166 F 
ENDBRANCH  10  17
ENDBRANCH   7  12
BRANCH   8  20
ATOM     20  C   LIG    1      -24.845  74.986  32.449  0.00  0.00    +0.141 C 
BRANCH  20  21
ATOM     21  C   LIG    1      -25.052  73.675  31.697  0.00  0.00    +0.175 C 
BRANCH  21  22
ATOM     22  O   LIG    1      -24.144  73.627  30.600  0.00  0.00    -0.393 OA
ATOM     23  H   LIG    1      -23.411  74.230  30.810  0.00  0.00    +0.209 HD
ENDBRANCH  21  22
ENDBRANCH  20  21
ENDBRANCH   8  20
ENDBRANCH   1   8
BRANCH   3  24
ATOM     24  N   LIG    1      -30.301  76.817  30.682  0.00  0.00    -0.314 N 
ATOM     25  H   LIG    1      -30.218  77.720  30.225  0.00  0.00    +0.152 HD
BRANCH  24  26
ATOM     26  C   LIG    1      -31.199  75.920  30.066  0.00  0.00    +0.033 A 
ATOM     27  C   LIG    1      -32.414  76.359  29.526  0.00  0.00    +0.047 A 
ATOM     28  C   LIG    1      -33.274  75.420  28.988  0.00  0.00    +0.043 A 
ATOM     29  N   LIG    1      -34.516  75.681  28.421  0.00  0.00    -0.281 N 
ATOM     30  H   LIG    1      -34.949  76.586  28.327  0.00  0.00    +0.155 HD
ATOM     31  C   LIG    1      -35.106  74.530  27.956  0.00  0.00    +0.249 C 
ATOM     32  O   LIG    1      -36.173  74.475  27.364  0.00  0.00    -0.270 OA
ATOM     33  C   LIG    1      -34.131  73.418  28.271  0.00  0.00    +0.048 C 
ATOM     34  C   LIG    1      -34.248  72.099  28.020  0.00  0.00    +0.039 C 
ATOM     35  C   LIG    1      -32.986  74.057  28.943  0.00  0.00    +0.008 A 
ATOM     36  C   LIG    1      -31.792  73.597  29.471  0.00  0.00    +0.012 A 
ATOM     37  C   LIG    1      -30.906  74.536  30.036  0.00  0.00    +0.024 A 
BRANCH  34  38
ATOM     38  C   LIG    1      -35.334  71.443  27.376  0.00  0.00    +0.040 A 
ATOM     39  N   LIG    1      -35.553  71.563  26.022  0.00  0.00    -0.361 N 
ATOM     40  H   LIG    1      -35.047  72.191  25.406  0.00  0.00    +0.165 HD
ATOM     41  C   LIG    1      -36.645  70.824  25.648  0.00  0.00    +0.083 A 
ATOM     42  C   LIG    1      -37.137  70.204  26.770  0.00  0.00    +0.019 A 
ATOM     43  C   LIG    1      -36.303  70.576  27.854  0.00  0.00    +0.027 A 
ENDBRANCH  34  38
ENDBRANCH  24  26
ENDBRANCH   3  24
TORSDOF 9
ENDMDL
MODEL 4
REMARK VINA RESULT:      -6.8      4.240     11.298
REMARK  Name = modded_pdb/CHEMBL2037208_nitrogen_modded_with_ethanol_version_1.pdb
REMARK                            x       y       z     vdW  Elec       q    Type
REMARK                         _______ _______ _______ _____ _____    ______ ____
ROOT
ATOM      1  C   LIG    1      -37.245  68.180  23.645  0.00  0.00    +0.038 A 
ATOM      2  C   LIG    1      -38.269  69.138  23.437  0.00  0.00    +0.046 A 
ATOM      3  C   LIG    1      -39.088  69.643  24.469  0.00  0.00    +0.033 A 
ATOM      4  C   LIG    1      -38.818  69.236  25.772  0.00  0.00    +0.023 A 
ATOM      5  C   LIG    1      -37.786  68.337  26.027  0.00  0.00    +0.004 A 
ATOM      6  C   LIG    1      -37.019  67.812  24.978  0.00  0.00    +0.023 A 
ENDROOT
BRANCH   1   8
ATOM      7  C   LIG    1      -35.174  67.152  22.619  0.00  0.00    +0.251 C 
ATOM      8  N   LIG    1      -36.539  67.552  22.515  0.00  0.00    -0.265 N 
ATOM      9  O   LIG    1      -34.429  67.485  23.544  0.00  0.00    -0.270 OA
BRANCH   7  12
ATOM     10  C   LIG    1      -32.843  66.078  19.796  0.00  0.00    +0.056 A 
ATOM     11  C   LIG    1      -33.479  66.813  20.819  0.00  0.00    +0.025 A 
ATOM     12  C   LIG    1      -34.498  66.245  21.619  0.00  0.00    +0.038 A 
ATOM     13  C   LIG    1      -34.904  64.943  21.320  0.00  0.00    +0.013 A 
ATOM     14  C   LIG    1      -34.208  64.162  20.391  0.00  0.00    +0.001 A 
ATOM     15  C   LIG    1      -33.180  64.727  19.635  0.00  0.00    +0.012 A 
BRANCH  10  17
ATOM     16  F   LIG    1      -32.314  66.859  17.584  0.00  0.00    -0.166 F 
ATOM     17  C   LIG    1      -31.852  66.745  18.862  0.00  0.00    +0.417 C 
ATOM     18  F   LIG    1      -31.528  68.012  19.246  0.00  0.00    -0.166 F 
ATOM     19  F   LIG    1      -30.681  66.062  18.777  0.00  0.00    -0.166 F 
ENDBRANCH  10  17
ENDBRANCH   7  12
BRANCH   8  20
ATOM     20  C   LIG    1      -37.404  67.168  21.382  0.00  0.00    +0.141 C 
BRANCH  20  21
ATOM     21  C   LIG    1      -37.181  68.021  20.138  0.00  0.00    +0.175 C 
BRANCH  21  22
ATOM     22  O   LIG    1      -38.408  68.655  19.790  0.00  0.00    -0.393 OA
ATOM     23  H   LIG    1      -38.565  69.355  20.448  0.00  0.00    +0.209 HD
ENDBRANCH  21  22
ENDBRANCH  20  21
ENDBRANCH   8  20
ENDBRANCH   1   8
BRANCH   3  24
ATOM     24  N   LIG    1      -40.111  70.561  24.145  0.00  0.00    -0.314 N 
ATOM     25  H   LIG    1      -41.036  70.143  24.110  0.00  0.00    +0.152 HD
BRANCH  24  26
ATOM     26  C   LIG    1      -40.095  71.971  24.079  0.00  0.00    +0.033 A 
ATOM     27  C   LIG    1      -39.013  72.712  24.569  0.00  0.00    +0.047 A 
ATOM     28  C   LIG    1      -39.086  74.091  24.527  0.00  0.00    +0.043 A 
ATOM     29  N   LIG    1      -38.111  74.975  24.975  0.00  0.00    -0.281 N 
ATOM     30  H   LIG    1      -37.226  74.725  25.386  0.00  0.00    +0.155 HD
ATOM     31  C   LIG    1      -38.483  76.281  24.764  0.00  0.00    +0.249 C 
ATOM     32  O   LIG    1      -37.794  77.259  25.010  0.00  0.00    -0.270 OA
ATOM     33  C   LIG    1      -39.848  76.216  24.116  0.00  0.00    +0.048 C 
ATOM     34  C   LIG    1      -40.640  77.229  23.718  0.00  0.00    +0.039 C 
ATOM     35  C   LIG    1      -40.179  74.783  24.007  0.00  0.00    +0.008 A 
ATOM     36  C   LIG    1      -41.262  74.074  23.516  0.00  0.00    +0.012 A 
ATOM     37  C   LIG    1      -41.214  72.666  23.562  0.00  0.00    +0.024 A 
BRANCH  34  38
ATOM     38  C   LIG    1      -40.360  78.622  23.807  0.00  0.00    +0.040 A 
ATOM     39  N   LIG    1      -39.373  79.211  23.050  0.00  0.00    -0.361 N 
ATOM     40  H   LIG    1      -38.711  78.709  22.467  0.00  0.00    +0.165 HD
ATOM     41  C   LIG    1      -39.315  80.556  23.305  0.00  0.00    +0.083 A 
ATOM     42  C   LIG    1      -40.286  80.850  24.232  0.00  0.00    +0.019 A 
ATOM     43  C   LIG    1      -40.957  79.638  24.533  0.00  0.00    +0.027 A 
ENDBRANCH  34  38
ENDBRANCH  24  26
ENDBRANCH   3  24
TORSDOF 9
ENDMDL
MODEL 5
REMARK VINA RESULT:      -6.8      8.967     13.933
REMARK  Name = modded_pdb/CHEMBL2037208_nitrogen_modded_with_ethanol_version_1.pdb
REMARK                            x       y       z     vdW  Elec       q    Type
REMARK                         _______ _______ _______ _____ _____    ______ ____
ROOT
ATOM      1  C   LIG    1      -26.364  76.256  32.264  0.00  0.00    +0.038 A 
ATOM      2  C   LIG    1      -27.426  75.497  31.713  0.00  0.00    +0.046 A 
ATOM      3  C   LIG    1      -28.730  75.472  32.253  0.00  0.00    +0.033 A 
ATOM      4  C   LIG    1      -29.002  76.303  33.335  0.00  0.00    +0.023 A 
ATOM      5  C   LIG    1      -28.000  77.106  33.873  0.00  0.00    +0.004 A 
ATOM      6  C   LIG    1      -26.700  77.075  33.350  0.00  0.00    +0.023 A 
ENDROOT
BRANCH   1   8
ATOM      7  C   LIG    1      -24.300  77.190  31.139  0.00  0.00    +0.251 C 
ATOM      8  N   LIG    1      -24.982  76.111  31.774  0.00  0.00    -0.265 N 
ATOM      9  O   LIG    1      -24.854  78.224  30.755  0.00  0.00    -0.270 OA
BRANCH   7  12
ATOM     10  C   LIG    1      -20.591  77.815  31.782  0.00  0.00    +0.056 A 
ATOM     11  C   LIG    1      -21.987  77.683  31.938  0.00  0.00    +0.025 A 
ATOM     12  C   LIG    1      -22.810  77.200  30.894  0.00  0.00    +0.038 A 
ATOM     13  C   LIG    1      -22.200  76.916  29.670  0.00  0.00    +0.013 A 
ATOM     14  C   LIG    1      -20.808  76.930  29.534  0.00  0.00    +0.001 A 
ATOM     15  C   LIG    1      -20.007  77.374  30.586  0.00  0.00    +0.012 A 
BRANCH  10  17
ATOM     16  F   LIG    1      -20.442  79.356  33.624  0.00  0.00    -0.166 F 
ATOM     17  C   LIG    1      -19.747  78.462  32.863  0.00  0.00    +0.417 C 
ATOM     18  F   LIG    1      -19.228  77.561  33.744  0.00  0.00    -0.166 F 
ATOM     19  F   LIG    1      -18.691  79.147  32.354  0.00  0.00    -0.166 F 
ENDBRANCH  10  17
ENDBRANCH   7  12
BRANCH   8  20
ATOM     20  C   LIG    1      -24.303  74.869  32.196  0.00  0.00    +0.141 C 
BRANCH  20  21
ATOM     21  C   LIG    1      -24.143  73.857  31.067  0.00  0.00    +0.175 C 
BRANCH  21  22
ATOM     22  O   LIG    1      -23.292  72.804  31.511  0.00  0.00    -0.393 OA
ATOM     23  H   LIG    1      -23.392  72.071  30.879  0.00  0.00    +0.209 HD
ENDBRANCH  21  22
ENDBRANCH  20  21
ENDBRANCH   8  20
ENDBRANCH   1   8
BRANCH   3  24
ATOM     24  N   LIG    1      -29.705  74.644  31.653  0.00  0.00    -0.314 N 
ATOM     25  H   LIG    1      -29.669  73.679  31.969  0.00  0.00    +0.152 HD
BRANCH  24  26
ATOM     26  C   LIG    1      -30.834  74.969  30.872  0.00  0.00    +0.033 A 
ATOM     27  C   LIG    1      -30.827  76.065  30.000  0.00  0.00    +0.047 A 
ATOM     28  C   LIG    1      -31.985  76.363  29.308  0.00  0.00    +0.043 A 
ATOM     29  N   LIG    1      -32.153  77.413  28.412  0.00  0.00    -0.281 N 
ATOM     30  H   LIG    1      -31.454  78.090  28.151  0.00  0.00    +0.155 HD
ATOM     31  C   LIG    1      -33.419  77.416  27.875  0.00  0.00    +0.249 C 
ATOM     32  O   LIG    1      -33.820  78.191  27.022  0.00  0.00    -0.270 OA
ATOM     33  C   LIG    1      -34.131  76.240  28.506  0.00  0.00    +0.048 C 
ATOM     34  C   LIG    1      -35.395  75.819  28.312  0.00  0.00    +0.039 C 
ATOM     35  C   LIG    1      -33.158  75.619  29.423  0.00  0.00    +0.008 A 
ATOM     36  C   LIG    1      -33.192  74.531  30.279  0.00  0.00    +0.012 A 
ATOM     37  C   LIG    1      -32.025  74.217  31.005  0.00  0.00    +0.024 A 
BRANCH  34  38
ATOM     38  C   LIG    1      -36.364  76.390  27.440  0.00  0.00    +0.040 A 
ATOM     39  N   LIG    1      -36.370  76.121  26.090  0.00  0.00    -0.361 N 
ATOM     40  H   LIG    1      -35.649  75.603  25.598  0.00  0.00    +0.165 HD
ATOM     41  C   LIG    1      -37.408  76.774  25.479  0.00  0.00    +0.083 A 
ATOM     42  C   LIG    1      -38.096  77.468  26.444  0.00  0.00    +0.019 A 
ATOM     43  C   LIG    1      -37.452  77.210  27.681  0.00  0.00    +0.027 A 
ENDBRANCH  34  38
ENDBRANCH  24  26
ENDBRANCH   3  24
TORSDOF 9
ENDMDL
MODEL 6
REMARK VINA RESULT:      -6.7     22.126     25.986
REMARK  Name = modded_pdb/CHEMBL2037208_nitrogen_modded_with_ethanol_version_1.pdb
REMARK                            x       y       z     vdW  Elec       q    Type
REMARK                         _______ _______ _______ _____ _____    ______ ____
ROOT
ATOM      1  C   LIG    1      -22.066  85.879  14.532  0.00  0.00    +0.038 A 
ATOM      2  C   LIG    1      -22.470  86.487  13.316  0.00  0.00    +0.046 A 
ATOM      3  C   LIG    1      -22.799  87.853  13.198  0.00  0.00    +0.033 A 
ATOM      4  C   LIG    1      -22.639  88.661  14.320  0.00  0.00    +0.023 A 
ATOM      5  C   LIG    1      -22.193  88.114  15.520  0.00  0.00    +0.004 A 
ATOM      6  C   LIG    1      -21.920  86.743  15.625  0.00  0.00    +0.023 A 
ENDROOT
BRANCH   1   8
ATOM      7  C   LIG    1      -22.570  83.674  15.664  0.00  0.00    +0.251 C 
ATOM      8  N   LIG    1      -21.907  84.419  14.644  0.00  0.00    -0.265 N 
ATOM      9  O   LIG    1      -23.130  84.187  16.636  0.00  0.00    -0.270 OA
BRANCH   7  12
ATOM     10  C   LIG    1      -24.082  80.230  15.027  0.00  0.00    +0.056 A 
ATOM     11  C   LIG    1      -23.831  81.618  15.022  0.00  0.00    +0.025 A 
ATOM     12  C   LIG    1      -22.688  82.169  15.647  0.00  0.00    +0.038 A 
ATOM     13  C   LIG    1      -21.840  81.294  16.331  0.00  0.00    +0.013 A 
ATOM     14  C   LIG    1      -22.010  79.908  16.246  0.00  0.00    +0.001 A 
ATOM     15  C   LIG    1      -23.123  79.378  15.595  0.00  0.00    +0.012 A 
BRANCH  10  17
ATOM     16  F   LIG    1      -25.228  78.457  13.872  0.00  0.00    -0.166 F 
ATOM     17  C   LIG    1      -25.379  79.673  14.472  0.00  0.00    +0.417 C 
ATOM     18  F   LIG    1      -26.332  79.490  15.429  0.00  0.00    -0.166 F 
ATOM     19  F   LIG    1      -25.932  80.486  13.535  0.00  0.00    -0.166 F 
ENDBRANCH  10  17
ENDBRANCH   7  12
BRANCH   8  20
ATOM     20  C   LIG    1      -21.215  83.782  13.506  0.00  0.00    +0.141 C 
BRANCH  20  21
ATOM     21  C   LIG    1      -19.696  83.872  13.598  0.00  0.00    +0.175 C 
BRANCH  21  22
ATOM     22  O   LIG    1      -19.234  82.904  14.535  0.00  0.00    -0.393 OA
ATOM     23  H   LIG    1      -20.001  82.359  14.783  0.00  0.00    +0.209 HD
ENDBRANCH  21  22
ENDBRANCH  20  21
ENDBRANCH   8  20
ENDBRANCH   1   8
BRANCH   3  24
ATOM     24  N   LIG    1      -23.235  88.349  11.949  0.00  0.00    -0.314 N 
ATOM     25  H   LIG    1      -23.721  87.658  11.385  0.00  0.00    +0.152 HD
BRANCH  24  26
ATOM     26  C   LIG    1      -23.299  89.668  11.455  0.00  0.00    +0.033 A 
ATOM     27  C   LIG    1      -22.147  90.354  11.052  0.00  0.00    +0.047 A 
ATOM     28  C   LIG    1      -22.273  91.665  10.632  0.00  0.00    +0.043 A 
ATOM     29  N   LIG    1      -21.237  92.489  10.208  0.00  0.00    -0.281 N 
ATOM     30  H   LIG    1      -20.263  92.239  10.149  0.00  0.00    +0.155 HD
ATOM     31  C   LIG    1      -21.703  93.727   9.833  0.00  0.00    +0.249 C 
ATOM     32  O   LIG    1      -21.020  94.626   9.368  0.00  0.00    -0.270 OA
ATOM     33  C   LIG    1      -23.199  93.681  10.051  0.00  0.00    +0.048 C 
ATOM     34  C   LIG    1      -24.112  94.649   9.837  0.00  0.00    +0.039 C 
ATOM     35  C   LIG    1      -23.494  92.336  10.577  0.00  0.00    +0.008 A 
ATOM     36  C   LIG    1      -24.648  91.681  10.971  0.00  0.00    +0.012 A 
ATOM     37  C   LIG    1      -24.540  90.347  11.414  0.00  0.00    +0.024 A 
BRANCH  34  38
ATOM     38  C   LIG    1      -23.870  95.958   9.334  0.00  0.00    +0.040 A 
ATOM     39  N   LIG    1      -23.490  96.173   8.028  0.00  0.00    -0.361 N 
ATOM     40  H   LIG    1      -23.252  95.442   7.365  0.00  0.00    +0.165 HD
ATOM     41  C   LIG    1      -23.339  97.514   7.790  0.00  0.00    +0.083 A 
ATOM     42  C   LIG    1      -23.636  98.183   8.952  0.00  0.00    +0.019 A 
ATOM     43  C   LIG    1      -23.989  97.207   9.917  0.00  0.00    +0.027 A 
ENDBRANCH  34  38
ENDBRANCH  24  26
ENDBRANCH   3  24
TORSDOF 9
ENDMDL
MODEL 7
REMARK VINA RESULT:      -6.6      5.471     10.983
REMARK  Name = modded_pdb/CHEMBL2037208_nitrogen_modded_with_ethanol_version_1.pdb
REMARK                            x       y       z     vdW  Elec       q    Type
REMARK                         _______ _______ _______ _____ _____    ______ ____
ROOT
ATOM      1  C   LIG    1      -32.420  65.664  18.899  0.00  0.00    +0.038 A 
ATOM      2  C   LIG    1      -32.881  66.180  20.136  0.00  0.00    +0.046 A 
ATOM      3  C   LIG    1      -33.837  65.532  20.946  0.00  0.00    +0.033 A 
ATOM      4  C   LIG    1      -34.288  64.279  20.543  0.00  0.00    +0.023 A 
ATOM      5  C   LIG    1      -33.821  63.711  19.361  0.00  0.00    +0.004 A 
ATOM      6  C   LIG    1      -32.908  64.398  18.549  0.00  0.00    +0.023 A 
ENDROOT
BRANCH   1   8
ATOM      7  C   LIG    1      -32.010  67.689  17.440  0.00  0.00    +0.251 C 
ATOM      8  N   LIG    1      -31.559  66.459  18.007  0.00  0.00    -0.265 N 
ATOM      9  O   LIG    1      -33.184  68.066  17.460  0.00  0.00    -0.270 OA
BRANCH   7  12
ATOM     10  C   LIG    1      -29.684  70.691  17.075  0.00  0.00    +0.056 A 
ATOM     11  C   LIG    1      -30.493  69.664  17.605  0.00  0.00    +0.025 A 
ATOM     12  C   LIG    1      -31.086  68.683  16.777  0.00  0.00    +0.038 A 
ATOM     13  C   LIG    1      -30.898  68.801  15.398  0.00  0.00    +0.013 A 
ATOM     14  C   LIG    1      -30.007  69.739  14.866  0.00  0.00    +0.001 A 
ATOM     15  C   LIG    1      -29.401  70.678  15.701  0.00  0.00    +0.012 A 
BRANCH  10  17
ATOM     16  F   LIG    1      -28.619  71.363  19.124  0.00  0.00    -0.166 F 
ATOM     17  C   LIG    1      -29.171  71.810  17.960  0.00  0.00    +0.417 C 
ATOM     18  F   LIG    1      -28.202  72.559  17.362  0.00  0.00    -0.166 F 
ATOM     19  F   LIG    1      -30.152  72.677  18.320  0.00  0.00    -0.166 F 
ENDBRANCH  10  17
ENDBRANCH   7  12
BRANCH   8  20
ATOM     20  C   LIG    1      -30.154  66.013  17.942  0.00  0.00    +0.141 C 
BRANCH  20  21
ATOM     21  C   LIG    1      -29.489  65.917  19.312  0.00  0.00    +0.175 C 
BRANCH  21  22
ATOM     22  O   LIG    1      -29.215  67.234  19.782  0.00  0.00    -0.393 OA
ATOM     23  H   LIG    1      -29.765  67.843  19.260  0.00  0.00    +0.209 HD
ENDBRANCH  21  22
ENDBRANCH  20  21
ENDBRANCH   8  20
ENDBRANCH   1   8
BRANCH   3  24
ATOM     24  N   LIG    1      -34.262  66.157  22.140  0.00  0.00    -0.314 N 
ATOM     25  H   LIG    1      -33.578  66.107  22.889  0.00  0.00    +0.152 HD
BRANCH  24  26
ATOM     26  C   LIG    1      -35.358  67.008  22.392  0.00  0.00    +0.033 A 
ATOM     27  C   LIG    1      -36.423  67.114  21.490  0.00  0.00    +0.047 A 
ATOM     28  C   LIG    1      -37.438  68.009  21.769  0.00  0.00    +0.043 A 
ATOM     29  N   LIG    1      -38.560  68.244  20.983  0.00  0.00    -0.281 N 
ATOM     30  H   LIG    1      -38.779  67.792  20.110  0.00  0.00    +0.155 HD
ATOM     31  C   LIG    1      -39.389  69.177  21.558  0.00  0.00    +0.249 C 
ATOM     32  O   LIG    1      -40.469  69.531  21.111  0.00  0.00    -0.270 OA
ATOM     33  C   LIG    1      -38.712  69.582  22.849  0.00  0.00    +0.048 C 
ATOM     34  C   LIG    1      -39.123  70.473  23.772  0.00  0.00    +0.039 C 
ATOM     35  C   LIG    1      -37.461  68.805  22.914  0.00  0.00    +0.008 A 
ATOM     36  C   LIG    1      -36.419  68.720  23.822  0.00  0.00    +0.012 A 
ATOM     37  C   LIG    1      -35.368  67.823  23.549  0.00  0.00    +0.024 A 
BRANCH  34  38
ATOM     38  C   LIG    1      -40.319  71.243  23.746  0.00  0.00    +0.040 A 
ATOM     39  N   LIG    1      -41.561  70.655  23.845  0.00  0.00    -0.361 N 
ATOM     40  H   LIG    1      -41.732  69.655  23.835  0.00  0.00    +0.165 HD
ATOM     41  C   LIG    1      -42.544  71.609  23.813  0.00  0.00    +0.083 A 
ATOM     42  C   LIG    1      -41.936  72.836  23.704  0.00  0.00    +0.019 A 
ATOM     43  C   LIG    1      -40.537  72.608  23.682  0.00  0.00    +0.027 A 
ENDBRANCH  34  38
ENDBRANCH  24  26
ENDBRANCH   3  24
TORSDOF 9
ENDMDL
MODEL 8
REMARK VINA RESULT:      -6.6      4.047      5.745
REMARK  Name = modded_pdb/CHEMBL2037208_nitrogen_modded_with_ethanol_version_1.pdb
REMARK                            x       y       z     vdW  Elec       q    Type
REMARK                         _______ _______ _______ _____ _____    ______ ____
ROOT
ATOM      1  C   LIG    1      -38.597  74.298  24.840  0.00  0.00    +0.038 A 
ATOM      2  C   LIG    1      -37.969  73.040  25.019  0.00  0.00    +0.046 A 
ATOM      3  C   LIG    1      -38.577  71.810  24.693  0.00  0.00    +0.033 A 
ATOM      4  C   LIG    1      -39.830  71.844  24.087  0.00  0.00    +0.023 A 
ATOM      5  C   LIG    1      -40.459  73.062  23.844  0.00  0.00    +0.004 A 
ATOM      6  C   LIG    1      -39.854  74.268  24.223  0.00  0.00    +0.023 A 
ENDROOT
BRANCH   1   8
ATOM      7  C   LIG    1      -37.479  75.616  26.687  0.00  0.00    +0.251 C 
ATOM      8  N   LIG    1      -37.994  75.538  25.360  0.00  0.00    -0.265 N 
ATOM      9  O   LIG    1      -37.685  74.764  27.556  0.00  0.00    -0.270 OA
BRANCH   7  12
ATOM     10  C   LIG    1      -34.279  77.490  27.583  0.00  0.00    +0.056 A 
ATOM     11  C   LIG    1      -35.195  76.541  27.082  0.00  0.00    +0.025 A 
ATOM     12  C   LIG    1      -36.592  76.740  27.168  0.00  0.00    +0.038 A 
ATOM     13  C   LIG    1      -37.043  77.886  27.827  0.00  0.00    +0.013 A 
ATOM     14  C   LIG    1      -36.154  78.890  28.224  0.00  0.00    +0.001 A 
ATOM     15  C   LIG    1      -34.779  78.694  28.099  0.00  0.00    +0.012 A 
BRANCH  10  17
ATOM     16  F   LIG    1      -32.237  77.141  26.360  0.00  0.00    -0.166 F 
ATOM     17  C   LIG    1      -32.791  77.197  27.605  0.00  0.00    +0.417 C 
ATOM     18  F   LIG    1      -32.073  78.138  28.280  0.00  0.00    -0.166 F 
ATOM     19  F   LIG    1      -32.507  76.007  28.195  0.00  0.00    -0.166 F 
ENDBRANCH  10  17
ENDBRANCH   7  12
BRANCH   8  20
ATOM     20  C   LIG    1      -37.761  76.586  24.345  0.00  0.00    +0.141 C 
BRANCH  20  21
ATOM     21  C   LIG    1      -38.803  77.699  24.380  0.00  0.00    +0.175 C 
BRANCH  21  22
ATOM     22  O   LIG    1      -39.355  77.852  23.075  0.00  0.00    -0.393 OA
ATOM     23  H   LIG    1      -39.309  78.799  22.855  0.00  0.00    +0.209 HD
ENDBRANCH  21  22
ENDBRANCH  20  21
ENDBRANCH   8  20
ENDBRANCH   1   8
BRANCH   3  24
ATOM     24  N   LIG    1      -37.881  70.609  24.955  0.00  0.00    -0.314 N 
ATOM     25  H   LIG    1      -38.080  69.870  24.287  0.00  0.00    +0.152 HD
BRANCH  24  26
ATOM     26  C   LIG    1      -36.814  70.339  25.838  0.00  0.00    +0.033 A 
ATOM     27  C   LIG    1      -37.028  70.168  27.210  0.00  0.00    +0.047 A 
ATOM     28  C   LIG    1      -35.932  69.963  28.028  0.00  0.00    +0.043 A 
ATOM     29  N   LIG    1      -35.964  69.783  29.406  0.00  0.00    -0.281 N 
ATOM     30  H   LIG    1      -36.788  69.775  29.986  0.00  0.00    +0.155 HD
ATOM     31  C   LIG    1      -34.704  69.577  29.914  0.00  0.00    +0.249 C 
ATOM     32  O   LIG    1      -34.445  69.337  31.083  0.00  0.00    -0.270 OA
ATOM     33  C   LIG    1      -33.771  69.642  28.725  0.00  0.00    +0.048 C 
ATOM     34  C   LIG    1      -32.431  69.507  28.698  0.00  0.00    +0.039 C 
ATOM     35  C   LIG    1      -34.624  69.905  27.552  0.00  0.00    +0.008 A 
ATOM     36  C   LIG    1      -34.385  70.072  26.198  0.00  0.00    +0.012 A 
ATOM     37  C   LIG    1      -35.487  70.295  25.348  0.00  0.00    +0.024 A 
BRANCH  34  38
ATOM     38  C   LIG    1      -31.573  69.255  29.804  0.00  0.00    +0.040 A 
ATOM     39  N   LIG    1      -31.473  68.005  30.373  0.00  0.00    -0.361 N 
ATOM     40  H   LIG    1      -32.060  67.211  30.136  0.00  0.00    +0.165 HD
ATOM     41  C   LIG    1      -30.571  68.021  31.405  0.00  0.00    +0.083 A 
ATOM     42  C   LIG    1      -30.067  69.295  31.502  0.00  0.00    +0.019 A 
ATOM     43  C   LIG    1      -30.681  70.066  30.484  0.00  0.00    +0.027 A 
ENDBRANCH  34  38
ENDBRANCH  24  26
ENDBRANCH   3  24
TORSDOF 9
ENDMDL
MODEL 9
REMARK VINA RESULT:      -6.4      8.781     13.443
REMARK  Name = modded_pdb/CHEMBL2037208_nitrogen_modded_with_ethanol_version_1.pdb
REMARK                            x       y       z     vdW  Elec       q    Type
REMARK                         _______ _______ _______ _____ _____    ______ ____
ROOT
ATOM      1  C   LIG    1      -32.619  76.108  29.324  0.00  0.00    +0.038 A 
ATOM      2  C   LIG    1      -31.840  76.019  30.505  0.00  0.00    +0.046 A 
ATOM      3  C   LIG    1      -31.501  74.798  31.125  0.00  0.00    +0.033 A 
ATOM      4  C   LIG    1      -31.886  73.618  30.496  0.00  0.00    +0.023 A 
ATOM      5  C   LIG    1      -32.606  73.661  29.305  0.00  0.00    +0.004 A 
ATOM      6  C   LIG    1      -32.973  74.888  28.735  0.00  0.00    +0.023 A 
ENDROOT
BRANCH   1   8
ATOM      7  C   LIG    1      -34.273  78.022  29.334  0.00  0.00    +0.251 C 
ATOM      8  N   LIG    1      -33.096  77.406  28.815  0.00  0.00    -0.265 N 
ATOM      9  O   LIG    1      -35.087  77.446  30.061  0.00  0.00    -0.270 OA
BRANCH   7  12
ATOM     10  C   LIG    1      -35.209  81.645  30.076  0.00  0.00    +0.056 A 
ATOM     11  C   LIG    1      -34.787  80.305  30.201  0.00  0.00    +0.025 A 
ATOM     12  C   LIG    1      -34.637  79.464  29.074  0.00  0.00    +0.038 A 
ATOM     13  C   LIG    1      -34.986  79.987  27.827  0.00  0.00    +0.013 A 
ATOM     14  C   LIG    1      -35.293  81.343  27.670  0.00  0.00    +0.001 A 
ATOM     15  C   LIG    1      -35.401  82.168  28.789  0.00  0.00    +0.012 A 
BRANCH  10  17
ATOM     16  F   LIG    1      -35.136  83.794  31.153  0.00  0.00    -0.166 F 
ATOM     17  C   LIG    1      -35.495  82.487  31.305  0.00  0.00    +0.417 C 
ATOM     18  F   LIG    1      -36.815  82.510  31.639  0.00  0.00    -0.166 F 
ATOM     19  F   LIG    1      -34.831  82.042  32.403  0.00  0.00    -0.166 F 
ENDBRANCH  10  17
ENDBRANCH   7  12
BRANCH   8  20
ATOM     20  C   LIG    1      -32.152  78.105  27.920  0.00  0.00    +0.141 C 
BRANCH  20  21
ATOM     21  C   LIG    1      -32.291  77.692  26.458  0.00  0.00    +0.175 C 
BRANCH  21  22
ATOM     22  O   LIG    1      -32.313  78.866  25.650  0.00  0.00    -0.393 OA
ATOM     23  H   LIG    1      -31.449  78.924  25.209  0.00  0.00    +0.209 HD
ENDBRANCH  21  22
ENDBRANCH  20  21
ENDBRANCH   8  20
ENDBRANCH   1   8
BRANCH   3  24
ATOM     24  N   LIG    1      -30.758  74.823  32.327  0.00  0.00    -0.314 N 
ATOM     25  H   LIG    1      -31.019  74.091  32.981  0.00  0.00    +0.152 HD
BRANCH  24  26
ATOM     26  C   LIG    1      -29.593  75.540  32.674  0.00  0.00    +0.033 A 
ATOM     27  C   LIG    1      -28.597  75.815  31.729  0.00  0.00    +0.047 A 
ATOM     28  C   LIG    1      -27.455  76.471  32.147  0.00  0.00    +0.043 A 
ATOM     29  N   LIG    1      -26.371  76.813  31.347  0.00  0.00    -0.281 N 
ATOM     30  H   LIG    1      -26.278  76.631  30.361  0.00  0.00    +0.155 HD
ATOM     31  C   LIG    1      -25.409  77.482  32.066  0.00  0.00    +0.249 C 
ATOM     32  O   LIG    1      -24.379  77.947  31.603  0.00  0.00    -0.270 OA
ATOM     33  C   LIG    1      -25.942  77.565  33.479  0.00  0.00    +0.048 C 
ATOM     34  C   LIG    1      -25.369  78.122  34.564  0.00  0.00    +0.039 C 
ATOM     35  C   LIG    1      -27.250  76.885  33.462  0.00  0.00    +0.008 A 
ATOM     36  C   LIG    1      -28.219  76.625  34.416  0.00  0.00    +0.012 A 
ATOM     37  C   LIG    1      -29.386  75.945  34.014  0.00  0.00    +0.024 A 
BRANCH  34  38
ATOM     38  C   LIG    1      -24.111  78.783  34.624  0.00  0.00    +0.040 A 
ATOM     39  N   LIG    1      -22.946  78.160  34.236  0.00  0.00    -0.361 N 
ATOM     40  H   LIG    1      -22.868  77.179  33.987  0.00  0.00    +0.165 HD
ATOM     41  C   LIG    1      -21.882  79.012  34.371  0.00  0.00    +0.083 A 
ATOM     42  C   LIG    1      -22.359  80.211  34.842  0.00  0.00    +0.019 A 
ATOM     43  C   LIG    1      -23.763  80.075  34.982  0.00  0.00    +0.027 A 
ENDBRANCH  34  38
ENDBRANCH  24  26
ENDBRANCH   3  24
TORSDOF 9
ENDMDL
