MODEL 1
REMARK VINA RESULT:      -8.0      0.000      0.000
REMARK  Name = modded_pdb/CHEMBL2037209_nitrogen_modded_with_ethanol_version_3.pdb
REMARK                            x       y       z     vdW  Elec       q    Type
REMARK                         _______ _______ _______ _____ _____    ______ ____
ROOT
ATOM      1  C   LIG    1      -27.721  76.644  32.804  0.00  0.00    +0.035 A 
ATOM      2  C   LIG    1      -28.277  75.765  31.853  0.00  0.00    +0.046 A 
ATOM      3  C   LIG    1      -29.650  75.482  31.824  0.00  0.00    +0.033 A 
ATOM      4  C   LIG    1      -30.452  76.040  32.825  0.00  0.00    +0.023 A 
ATOM      5  C   LIG    1      -29.909  76.894  33.791  0.00  0.00    +0.004 A 
ATOM      6  C   LIG    1      -28.549  77.211  33.771  0.00  0.00    +0.023 A 
ENDROOT
BRANCH   1   8
ATOM      7  C   LIG    1      -25.651  77.546  31.705  0.00  0.00    +0.248 C 
ATOM      8  N   LIG    1      -26.331  76.883  32.714  0.00  0.00    -0.281 N 
ATOM      9  H   LIG    1      -25.778  76.385  33.395  0.00  0.00    +0.155 HD
ATOM     10  O   LIG    1      -26.144  78.028  30.693  0.00  0.00    -0.270 OA
BRANCH   7  15
ATOM     11  C   LIG    1      -22.160  78.244  33.118  0.00  0.00    +0.049 A 
ATOM     12  C   LIG    1      -21.362  77.704  32.099  0.00  0.00    +0.038 A 
ATOM     13  C   LIG    1      -21.943  77.120  30.960  0.00  0.00    +0.057 A 
ATOM     14  C   LIG    1      -23.343  77.086  30.848  0.00  0.00    +0.025 A 
ATOM     15  C   LIG    1      -24.157  77.598  31.870  0.00  0.00    +0.040 A 
ATOM     16  C   LIG    1      -23.559  78.173  33.002  0.00  0.00    +0.039 A 
BRANCH  11  21
ATOM     17  C   LIG    1      -21.270  80.233  37.634  0.00  0.00    +0.067 C 
ATOM     18  C   LIG    1      -21.181  79.742  36.242  0.00  0.00    +0.056 A 
ATOM     19  N   LIG    1      -19.981  79.731  35.588  0.00  0.00    -0.241 NA
ATOM     20  C   LIG    1      -20.234  79.212  34.408  0.00  0.00    +0.204 A 
ATOM     21  N   LIG    1      -21.558  78.865  34.252  0.00  0.00    -0.306 N 
ATOM     22  C   LIG    1      -22.173  79.242  35.427  0.00  0.00    +0.115 A 
ENDBRANCH  11  21
BRANCH  13  23
ATOM     23  C   LIG    1      -21.047  76.548  29.884  0.00  0.00    +0.418 C 
ATOM     24  F   LIG    1      -20.283  75.521  30.351  0.00  0.00    -0.166 F 
ATOM     25  F   LIG    1      -20.171  77.470  29.398  0.00  0.00    -0.166 F 
ATOM     26  F   LIG    1      -21.720  76.058  28.811  0.00  0.00    -0.166 F 
ENDBRANCH  13  23
ENDBRANCH   7  15
ENDBRANCH   1   8
BRANCH   3  27
ATOM     27  N   LIG    1      -30.250  74.657  30.851  0.00  0.00    -0.314 N 
ATOM     28  H   LIG    1      -29.687  73.854  30.587  0.00  0.00    +0.152 HD
BRANCH  27  29
ATOM     29  C   LIG    1      -31.434  74.779  30.105  0.00  0.00    +0.033 A 
ATOM     30  C   LIG    1      -31.799  75.980  29.499  0.00  0.00    +0.047 A 
ATOM     31  C   LIG    1      -32.992  76.037  28.802  0.00  0.00    +0.046 A 
ATOM     32  N   LIG    1      -33.530  77.142  28.135  0.00  0.00    -0.265 N 
ATOM     33  C   LIG    1      -34.776  76.840  27.620  0.00  0.00    +0.252 C 
ATOM     34  O   LIG    1      -35.481  77.623  27.030  0.00  0.00    -0.270 OA
ATOM     35  C   LIG    1      -35.026  75.378  27.908  0.00  0.00    +0.048 C 
ATOM     36  C   LIG    1      -36.072  74.614  27.529  0.00  0.00    +0.039 C 
ATOM     37  C   LIG    1      -33.855  74.932  28.691  0.00  0.00    +0.009 A 
ATOM     38  C   LIG    1      -33.519  73.735  29.293  0.00  0.00    +0.012 A 
ATOM     39  C   LIG    1      -32.307  73.669  30.001  0.00  0.00    +0.024 A 
BRANCH  36  40
ATOM     40  C   LIG    1      -37.223  75.010  26.774  0.00  0.00    +0.040 A 
ATOM     41  N   LIG    1      -37.150  75.332  25.441  0.00  0.00    -0.361 N 
ATOM     42  H   LIG    1      -36.312  75.315  24.877  0.00  0.00    +0.165 HD
ATOM     43  C   LIG    1      -38.364  75.670  24.927  0.00  0.00    +0.083 A 
ATOM     44  C   LIG    1      -39.271  75.585  25.949  0.00  0.00    +0.019 A 
ATOM     45  C   LIG    1      -38.560  75.169  27.110  0.00  0.00    +0.027 A 
ENDBRANCH  36  40
BRANCH  32  46
ATOM     46  C   LIG    1      -32.984  78.484  28.093  0.00  0.00    +0.142 C 
BRANCH  46  47
ATOM     47  C   LIG    1      -32.072  78.756  26.883  0.00  0.00    +0.175 C 
BRANCH  47  48
ATOM     48  O   LIG    1      -32.702  78.630  25.615  0.00  0.00    -0.393 OA
ATOM     49  H   LIG    1      -33.572  78.205  25.745  0.00  0.00    +0.209 HD
ENDBRANCH  47  48
ENDBRANCH  46  47
ENDBRANCH  32  46
ENDBRANCH  27  29
ENDBRANCH   3  27
TORSDOF 10
ENDMDL
MODEL 2
REMARK VINA RESULT:      -7.6      7.593     12.601
REMARK  Name = modded_pdb/CHEMBL2037209_nitrogen_modded_with_ethanol_version_3.pdb
REMARK                            x       y       z     vdW  Elec       q    Type
REMARK                         _______ _______ _______ _____ _____    ______ ____
ROOT
ATOM      1  C   LIG    1      -38.384  74.411  25.136  0.00  0.00    +0.035 A 
ATOM      2  C   LIG    1      -38.457  73.007  25.046  0.00  0.00    +0.046 A 
ATOM      3  C   LIG    1      -39.488  72.365  24.347  0.00  0.00    +0.033 A 
ATOM      4  C   LIG    1      -40.499  73.161  23.799  0.00  0.00    +0.023 A 
ATOM      5  C   LIG    1      -40.453  74.555  23.901  0.00  0.00    +0.004 A 
ATOM      6  C   LIG    1      -39.389  75.182  24.553  0.00  0.00    +0.023 A 
ENDROOT
BRANCH   1   8
ATOM      7  C   LIG    1      -37.264  75.458  27.124  0.00  0.00    +0.248 C 
ATOM      8  N   LIG    1      -37.281  74.949  25.836  0.00  0.00    -0.281 N 
ATOM      9  H   LIG    1      -36.460  75.099  25.268  0.00  0.00    +0.155 HD
ATOM     10  O   LIG    1      -38.222  75.549  27.881  0.00  0.00    -0.270 OA
BRANCH   7  15
ATOM     11  C   LIG    1      -33.706  75.707  28.523  0.00  0.00    +0.049 A 
ATOM     12  C   LIG    1      -33.501  77.092  28.447  0.00  0.00    +0.038 A 
ATOM     13  C   LIG    1      -34.503  77.944  27.951  0.00  0.00    +0.057 A 
ATOM     14  C   LIG    1      -35.725  77.391  27.532  0.00  0.00    +0.025 A 
ATOM     15  C   LIG    1      -35.938  76.005  27.577  0.00  0.00    +0.040 A 
ATOM     16  C   LIG    1      -34.924  75.169  28.071  0.00  0.00    +0.039 A 
BRANCH  11  21
ATOM     17  C   LIG    1      -30.832  71.778  29.725  0.00  0.00    +0.067 C 
ATOM     18  C   LIG    1      -31.441  73.118  29.586  0.00  0.00    +0.056 A 
ATOM     19  N   LIG    1      -30.816  74.219  30.102  0.00  0.00    -0.241 NA
ATOM     20  C   LIG    1      -31.584  75.235  29.782  0.00  0.00    +0.204 A 
ATOM     21  N   LIG    1      -32.696  74.857  29.060  0.00  0.00    -0.306 N 
ATOM     22  C   LIG    1      -32.617  73.484  28.967  0.00  0.00    +0.115 A 
ENDBRANCH  11  21
BRANCH  13  23
ATOM     23  C   LIG    1      -34.241  79.432  27.884  0.00  0.00    +0.418 C 
ATOM     24  F   LIG    1      -33.838  79.933  29.085  0.00  0.00    -0.166 F 
ATOM     25  F   LIG    1      -35.355  80.137  27.544  0.00  0.00    -0.166 F 
ATOM     26  F   LIG    1      -33.281  79.782  26.990  0.00  0.00    -0.166 F 
ENDBRANCH  13  23
ENDBRANCH   7  15
ENDBRANCH   1   8
BRANCH   3  27
ATOM     27  N   LIG    1      -39.560  70.966  24.186  0.00  0.00    -0.314 N 
ATOM     28  H   LIG    1      -40.274  70.521  24.754  0.00  0.00    +0.152 HD
BRANCH  27  29
ATOM     29  C   LIG    1      -38.771  70.054  23.463  0.00  0.00    +0.033 A 
ATOM     30  C   LIG    1      -37.570  69.561  23.969  0.00  0.00    +0.047 A 
ATOM     31  C   LIG    1      -36.831  68.687  23.192  0.00  0.00    +0.046 A 
ATOM     32  N   LIG    1      -35.608  68.093  23.518  0.00  0.00    -0.265 N 
ATOM     33  C   LIG    1      -35.136  67.341  22.460  0.00  0.00    +0.252 C 
ATOM     34  O   LIG    1      -34.082  66.750  22.456  0.00  0.00    -0.270 OA
ATOM     35  C   LIG    1      -36.195  67.384  21.384  0.00  0.00    +0.048 C 
ATOM     36  C   LIG    1      -36.218  66.736  20.201  0.00  0.00    +0.039 C 
ATOM     37  C   LIG    1      -37.241  68.286  21.908  0.00  0.00    +0.009 A 
ATOM     38  C   LIG    1      -38.424  68.771  21.382  0.00  0.00    +0.012 A 
ATOM     39  C   LIG    1      -39.181  69.657  22.167  0.00  0.00    +0.024 A 
BRANCH  36  40
ATOM     40  C   LIG    1      -35.225  65.858  19.659  0.00  0.00    +0.040 A 
ATOM     41  N   LIG    1      -34.951  64.631  20.212  0.00  0.00    -0.361 N 
ATOM     42  H   LIG    1      -35.410  64.234  21.020  0.00  0.00    +0.165 HD
ATOM     43  C   LIG    1      -33.979  63.965  19.530  0.00  0.00    +0.083 A 
ATOM     44  C   LIG    1      -33.583  64.776  18.501  0.00  0.00    +0.019 A 
ATOM     45  C   LIG    1      -34.363  65.965  18.576  0.00  0.00    +0.027 A 
ENDBRANCH  36  40
BRANCH  32  46
ATOM     46  C   LIG    1      -34.819  68.324  24.712  0.00  0.00    +0.142 C 
BRANCH  46  47
ATOM     47  C   LIG    1      -34.979  67.238  25.793  0.00  0.00    +0.175 C 
BRANCH  47  48
ATOM     48  O   LIG    1      -34.581  65.933  25.397  0.00  0.00    -0.393 OA
ATOM     49  H   LIG    1      -34.346  65.427  26.200  0.00  0.00    +0.209 HD
ENDBRANCH  47  48
ENDBRANCH  46  47
ENDBRANCH  32  46
ENDBRANCH  27  29
ENDBRANCH   3  27
TORSDOF 10
ENDMDL
MODEL 3
REMARK VINA RESULT:      -7.3      7.749     12.865
REMARK  Name = modded_pdb/CHEMBL2037209_nitrogen_modded_with_ethanol_version_3.pdb
REMARK                            x       y       z     vdW  Elec       q    Type
REMARK                         _______ _______ _______ _____ _____    ______ ____
ROOT
ATOM      1  C   LIG    1      -38.414  76.463  24.716  0.00  0.00    +0.035 A 
ATOM      2  C   LIG    1      -39.230  75.317  24.793  0.00  0.00    +0.046 A 
ATOM      3  C   LIG    1      -40.467  75.247  24.136  0.00  0.00    +0.033 A 
ATOM      4  C   LIG    1      -40.911  76.387  23.459  0.00  0.00    +0.023 A 
ATOM      5  C   LIG    1      -40.123  77.540  23.395  0.00  0.00    +0.004 A 
ATOM      6  C   LIG    1      -38.868  77.575  24.008  0.00  0.00    +0.023 A 
ENDROOT
BRANCH   1   8
ATOM      7  C   LIG    1      -36.954  76.344  26.755  0.00  0.00    +0.248 C 
ATOM      8  N   LIG    1      -37.173  76.407  25.388  0.00  0.00    -0.281 N 
ATOM      9  H   LIG    1      -36.371  76.576  24.798  0.00  0.00    +0.155 HD
ATOM     10  O   LIG    1      -37.812  76.348  27.628  0.00  0.00    -0.270 OA
BRANCH   7  15
ATOM     11  C   LIG    1      -33.573  75.261  28.192  0.00  0.00    +0.049 A 
ATOM     12  C   LIG    1      -32.817  76.419  27.962  0.00  0.00    +0.038 A 
ATOM     13  C   LIG    1      -33.391  77.546  27.350  0.00  0.00    +0.057 A 
ATOM     14  C   LIG    1      -34.744  77.503  26.971  0.00  0.00    +0.025 A 
ATOM     15  C   LIG    1      -35.508  76.343  27.171  0.00  0.00    +0.040 A 
ATOM     16  C   LIG    1      -34.915  75.226  27.779  0.00  0.00    +0.039 A 
BRANCH  11  21
ATOM     17  C   LIG    1      -32.541  70.661  29.902  0.00  0.00    +0.067 C 
ATOM     18  C   LIG    1      -32.547  72.108  29.596  0.00  0.00    +0.056 A 
ATOM     19  N   LIG    1      -31.509  72.903  29.993  0.00  0.00    -0.241 NA
ATOM     20  C   LIG    1      -31.798  74.102  29.542  0.00  0.00    +0.204 A 
ATOM     21  N   LIG    1      -32.987  74.137  28.846  0.00  0.00    -0.306 N 
ATOM     22  C   LIG    1      -33.485  72.853  28.914  0.00  0.00    +0.115 A 
ENDBRANCH  11  21
BRANCH  13  23
ATOM     23  C   LIG    1      -32.542  78.775  27.117  0.00  0.00    +0.418 C 
ATOM     24  F   LIG    1      -33.272  79.923  27.201  0.00  0.00    -0.166 F 
ATOM     25  F   LIG    1      -31.976  78.785  25.879  0.00  0.00    -0.166 F 
ATOM     26  F   LIG    1      -31.521  78.914  28.003  0.00  0.00    -0.166 F 
ENDBRANCH  13  23
ENDBRANCH   7  15
ENDBRANCH   1   8
BRANCH   3  27
ATOM     27  N   LIG    1      -41.281  74.096  24.141  0.00  0.00    -0.314 N 
ATOM     28  H   LIG    1      -42.103  74.174  24.732  0.00  0.00    +0.152 HD
BRANCH  27  29
ATOM     29  C   LIG    1      -41.128  72.825  23.561  0.00  0.00    +0.033 A 
ATOM     30  C   LIG    1      -42.098  72.280  22.722  0.00  0.00    +0.047 A 
ATOM     31  C   LIG    1      -41.895  71.012  22.207  0.00  0.00    +0.046 A 
ATOM     32  N   LIG    1      -42.746  70.298  21.358  0.00  0.00    -0.265 N 
ATOM     33  C   LIG    1      -42.243  69.033  21.119  0.00  0.00    +0.252 C 
ATOM     34  O   LIG    1      -42.796  68.193  20.450  0.00  0.00    -0.270 OA
ATOM     35  C   LIG    1      -40.901  68.957  21.808  0.00  0.00    +0.048 C 
ATOM     36  C   LIG    1      -40.003  67.950  21.789  0.00  0.00    +0.039 C 
ATOM     37  C   LIG    1      -40.752  70.249  22.507  0.00  0.00    +0.009 A 
ATOM     38  C   LIG    1      -39.783  70.765  23.347  0.00  0.00    +0.012 A 
ATOM     39  C   LIG    1      -39.981  72.054  23.871  0.00  0.00    +0.024 A 
BRANCH  36  40
ATOM     40  C   LIG    1      -40.112  66.686  21.125  0.00  0.00    +0.040 A 
ATOM     41  N   LIG    1      -40.655  65.582  21.736  0.00  0.00    -0.361 N 
ATOM     42  H   LIG    1      -41.026  65.552  22.675  0.00  0.00    +0.165 HD
ATOM     43  C   LIG    1      -40.665  64.494  20.917  0.00  0.00    +0.083 A 
ATOM     44  C   LIG    1      -40.100  64.879  19.731  0.00  0.00    +0.019 A 
ATOM     45  C   LIG    1      -39.753  66.254  19.856  0.00  0.00    +0.027 A 
ENDBRANCH  36  40
BRANCH  32  46
ATOM     46  C   LIG    1      -44.057  70.707  20.894  0.00  0.00    +0.142 C 
BRANCH  46  47
ATOM     47  C   LIG    1      -44.044  71.459  19.551  0.00  0.00    +0.175 C 
BRANCH  47  48
ATOM     48  O   LIG    1      -43.442  70.755  18.473  0.00  0.00    -0.393 OA
ATOM     49  H   LIG    1      -43.491  69.798  18.666  0.00  0.00    +0.209 HD
ENDBRANCH  47  48
ENDBRANCH  46  47
ENDBRANCH  32  46
ENDBRANCH  27  29
ENDBRANCH   3  27
TORSDOF 10
ENDMDL
MODEL 4
REMARK VINA RESULT:      -7.3      6.946     12.166
REMARK  Name = modded_pdb/CHEMBL2037209_nitrogen_modded_with_ethanol_version_3.pdb
REMARK                            x       y       z     vdW  Elec       q    Type
REMARK                         _______ _______ _______ _____ _____    ______ ____
ROOT
ATOM      1  C   LIG    1      -37.828  75.464  25.359  0.00  0.00    +0.035 A 
ATOM      2  C   LIG    1      -38.274  74.128  25.395  0.00  0.00    +0.046 A 
ATOM      3  C   LIG    1      -39.481  73.737  24.798  0.00  0.00    +0.033 A 
ATOM      4  C   LIG    1      -40.279  74.734  24.227  0.00  0.00    +0.023 A 
ATOM      5  C   LIG    1      -39.860  76.068  24.206  0.00  0.00    +0.004 A 
ATOM      6  C   LIG    1      -38.629  76.432  24.756  0.00  0.00    +0.023 A 
ENDROOT
BRANCH   1   8
ATOM      7  C   LIG    1      -36.212  75.516  27.281  0.00  0.00    +0.248 C 
ATOM      8  N   LIG    1      -36.579  75.735  25.963  0.00  0.00    -0.281 N 
ATOM      9  H   LIG    1      -35.948  76.277  25.391  0.00  0.00    +0.155 HD
ATOM     10  O   LIG    1      -36.926  75.062  28.167  0.00  0.00    -0.270 OA
BRANCH   7  15
ATOM     11  C   LIG    1      -32.694  75.614  28.792  0.00  0.00    +0.049 A 
ATOM     12  C   LIG    1      -32.242  76.847  28.300  0.00  0.00    +0.038 A 
ATOM     13  C   LIG    1      -33.065  77.646  27.488  0.00  0.00    +0.057 A 
ATOM     14  C   LIG    1      -34.359  77.196  27.174  0.00  0.00    +0.025 A 
ATOM     15  C   LIG    1      -34.818  75.954  27.637  0.00  0.00    +0.040 A 
ATOM     16  C   LIG    1      -33.980  75.168  28.443  0.00  0.00    +0.039 A 
BRANCH  11  21
ATOM     17  C   LIG    1      -29.636  74.030  32.437  0.00  0.00    +0.067 C 
ATOM     18  C   LIG    1      -30.512  74.146  31.251  0.00  0.00    +0.056 A 
ATOM     19  N   LIG    1      -30.873  73.032  30.546  0.00  0.00    -0.241 NA
ATOM     20  C   LIG    1      -31.668  73.466  29.595  0.00  0.00    +0.204 A 
ATOM     21  N   LIG    1      -31.862  74.829  29.644  0.00  0.00    -0.306 N 
ATOM     22  C   LIG    1      -31.085  75.269  30.694  0.00  0.00    +0.115 A 
ENDBRANCH  11  21
BRANCH  13  23
ATOM     23  C   LIG    1      -32.539  78.968  26.976  0.00  0.00    +0.418 C 
ATOM     24  F   LIG    1      -32.244  78.919  25.647  0.00  0.00    -0.166 F 
ATOM     25  F   LIG    1      -31.386  79.340  27.597  0.00  0.00    -0.166 F 
ATOM     26  F   LIG    1      -33.405  80.002  27.131  0.00  0.00    -0.166 F 
ENDBRANCH  13  23
ENDBRANCH   7  15
ENDBRANCH   1   8
BRANCH   3  27
ATOM     27  N   LIG    1      -39.929  72.401  24.762  0.00  0.00    -0.314 N 
ATOM     28  H   LIG    1      -40.558  72.156  25.520  0.00  0.00    +0.152 HD
BRANCH  27  29
ATOM     29  C   LIG    1      -39.601  71.314  23.934  0.00  0.00    +0.033 A 
ATOM     30  C   LIG    1      -40.524  70.760  23.049  0.00  0.00    +0.047 A 
ATOM     31  C   LIG    1      -40.142  69.673  22.284  0.00  0.00    +0.046 A 
ATOM     32  N   LIG    1      -40.920  68.981  21.351  0.00  0.00    -0.265 N 
ATOM     33  C   LIG    1      -40.222  67.903  20.841  0.00  0.00    +0.252 C 
ATOM     34  O   LIG    1      -40.669  67.113  20.045  0.00  0.00    -0.270 OA
ATOM     35  C   LIG    1      -38.835  67.958  21.437  0.00  0.00    +0.048 C 
ATOM     36  C   LIG    1      -37.776  67.164  21.175  0.00  0.00    +0.039 C 
ATOM     37  C   LIG    1      -38.861  69.101  22.372  0.00  0.00    +0.009 A 
ATOM     38  C   LIG    1      -37.932  69.627  23.250  0.00  0.00    +0.012 A 
ATOM     39  C   LIG    1      -38.313  70.733  24.030  0.00  0.00    +0.024 A 
BRANCH  36  40
ATOM     40  C   LIG    1      -37.713  66.048  20.279  0.00  0.00    +0.040 A 
ATOM     41  N   LIG    1      -38.397  64.881  20.513  0.00  0.00    -0.361 N 
ATOM     42  H   LIG    1      -38.999  64.699  21.304  0.00  0.00    +0.165 HD
ATOM     43  C   LIG    1      -38.198  63.962  19.528  0.00  0.00    +0.083 A 
ATOM     44  C   LIG    1      -37.344  64.527  18.619  0.00  0.00    +0.019 A 
ATOM     45  C   LIG    1      -37.038  65.836  19.084  0.00  0.00    +0.027 A 
ENDBRANCH  36  40
BRANCH  32  46
ATOM     46  C   LIG    1      -42.317  69.210  21.040  0.00  0.00    +0.142 C 
BRANCH  46  47
ATOM     47  C   LIG    1      -42.630  70.641  20.565  0.00  0.00    +0.175 C 
BRANCH  47  48
ATOM     48  O   LIG    1      -42.648  70.816  19.155  0.00  0.00    -0.393 OA
ATOM     49  H   LIG    1      -42.689  69.933  18.736  0.00  0.00    +0.209 HD
ENDBRANCH  47  48
ENDBRANCH  46  47
ENDBRANCH  32  46
ENDBRANCH  27  29
ENDBRANCH   3  27
TORSDOF 10
ENDMDL
MODEL 5
REMARK VINA RESULT:      -7.2      2.634      3.427
REMARK  Name = modded_pdb/CHEMBL2037209_nitrogen_modded_with_ethanol_version_3.pdb
REMARK                            x       y       z     vdW  Elec       q    Type
REMARK                         _______ _______ _______ _____ _____    ______ ____
ROOT
ATOM      1  C   LIG    1      -27.551  74.865  32.315  0.00  0.00    +0.035 A 
ATOM      2  C   LIG    1      -28.831  75.442  32.203  0.00  0.00    +0.046 A 
ATOM      3  C   LIG    1      -29.966  74.671  31.915  0.00  0.00    +0.033 A 
ATOM      4  C   LIG    1      -29.781  73.308  31.662  0.00  0.00    +0.023 A 
ATOM      5  C   LIG    1      -28.512  72.725  31.745  0.00  0.00    +0.004 A 
ATOM      6  C   LIG    1      -27.399  73.498  32.088  0.00  0.00    +0.023 A 
ENDROOT
BRANCH   1   8
ATOM      7  C   LIG    1      -25.827  76.618  31.805  0.00  0.00    +0.248 C 
ATOM      8  N   LIG    1      -26.487  75.734  32.644  0.00  0.00    -0.281 N 
ATOM      9  H   LIG    1      -26.085  75.575  33.556  0.00  0.00    +0.155 HD
ATOM     10  O   LIG    1      -26.044  76.784  30.611  0.00  0.00    -0.270 OA
BRANCH   7  15
ATOM     11  C   LIG    1      -22.337  77.994  32.581  0.00  0.00    +0.049 A 
ATOM     12  C   LIG    1      -22.623  78.790  33.699  0.00  0.00    +0.038 A 
ATOM     13  C   LIG    1      -23.930  78.883  34.205  0.00  0.00    +0.057 A 
ATOM     14  C   LIG    1      -24.959  78.161  33.576  0.00  0.00    +0.025 A 
ATOM     15  C   LIG    1      -24.696  77.379  32.441  0.00  0.00    +0.040 A 
ATOM     16  C   LIG    1      -23.384  77.303  31.948  0.00  0.00    +0.039 A 
BRANCH  11  21
ATOM     17  C   LIG    1      -17.341  77.873  32.174  0.00  0.00    +0.067 C 
ATOM     18  C   LIG    1      -18.799  77.835  31.932  0.00  0.00    +0.056 A 
ATOM     19  N   LIG    1      -19.290  77.435  30.721  0.00  0.00    -0.241 NA
ATOM     20  C   LIG    1      -20.596  77.477  30.844  0.00  0.00    +0.204 A 
ATOM     21  N   LIG    1      -21.000  77.880  32.099  0.00  0.00    -0.306 N 
ATOM     22  C   LIG    1      -19.835  78.144  32.787  0.00  0.00    +0.115 A 
ENDBRANCH  11  21
BRANCH  13  23
ATOM     23  C   LIG    1      -24.196  79.754  35.412  0.00  0.00    +0.418 C 
ATOM     24  F   LIG    1      -23.630  80.987  35.285  0.00  0.00    -0.166 F 
ATOM     25  F   LIG    1      -23.678  79.225  36.554  0.00  0.00    -0.166 F 
ATOM     26  F   LIG    1      -25.515  79.970  35.656  0.00  0.00    -0.166 F 
ENDBRANCH  13  23
ENDBRANCH   7  15
ENDBRANCH   1   8
BRANCH   3  27
ATOM     27  N   LIG    1      -31.269  75.204  31.855  0.00  0.00    -0.314 N 
ATOM     28  H   LIG    1      -31.537  75.734  32.678  0.00  0.00    +0.152 HD
BRANCH  27  29
ATOM     29  C   LIG    1      -32.307  75.066  30.917  0.00  0.00    +0.033 A 
ATOM     30  C   LIG    1      -32.520  76.010  29.914  0.00  0.00    +0.047 A 
ATOM     31  C   LIG    1      -33.577  75.826  29.042  0.00  0.00    +0.046 A 
ATOM     32  N   LIG    1      -33.954  76.657  27.982  0.00  0.00    -0.265 N 
ATOM     33  C   LIG    1      -35.106  76.187  27.383  0.00  0.00    +0.252 C 
ATOM     34  O   LIG    1      -35.673  76.734  26.466  0.00  0.00    -0.270 OA
ATOM     35  C   LIG    1      -35.456  74.885  28.064  0.00  0.00    +0.048 C 
ATOM     36  C   LIG    1      -36.450  74.022  27.769  0.00  0.00    +0.039 C 
ATOM     37  C   LIG    1      -34.449  74.727  29.134  0.00  0.00    +0.009 A 
ATOM     38  C   LIG    1      -34.264  73.784  30.127  0.00  0.00    +0.012 A 
ATOM     39  C   LIG    1      -33.190  73.964  31.016  0.00  0.00    +0.024 A 
BRANCH  36  40
ATOM     40  C   LIG    1      -37.443  74.142  26.743  0.00  0.00    +0.040 A 
ATOM     41  N   LIG    1      -38.373  75.152  26.737  0.00  0.00    -0.361 N 
ATOM     42  H   LIG    1      -38.444  75.890  27.424  0.00  0.00    +0.165 HD
ATOM     43  C   LIG    1      -39.210  75.074  25.667  0.00  0.00    +0.083 A 
ATOM     44  C   LIG    1      -38.838  73.972  24.945  0.00  0.00    +0.019 A 
ATOM     45  C   LIG    1      -37.728  73.384  25.615  0.00  0.00    +0.027 A 
ENDBRANCH  36  40
BRANCH  32  46
ATOM     46  C   LIG    1      -33.359  77.928  27.619  0.00  0.00    +0.142 C 
BRANCH  46  47
ATOM     47  C   LIG    1      -32.277  77.828  26.528  0.00  0.00    +0.175 C 
BRANCH  47  48
ATOM     48  O   LIG    1      -32.308  78.862  25.553  0.00  0.00    -0.393 OA
ATOM     49  H   LIG    1      -31.950  79.677  25.958  0.00  0.00    +0.209 HD
ENDBRANCH  47  48
ENDBRANCH  46  47
ENDBRANCH  32  46
ENDBRANCH  27  29
ENDBRANCH   3  27
TORSDOF 10
ENDMDL
MODEL 6
REMARK VINA RESULT:      -7.1      7.066     11.754
REMARK  Name = modded_pdb/CHEMBL2037209_nitrogen_modded_with_ethanol_version_3.pdb
REMARK                            x       y       z     vdW  Elec       q    Type
REMARK                         _______ _______ _______ _____ _____    ______ ____
ROOT
ATOM      1  C   LIG    1      -37.998  76.220  25.322  0.00  0.00    +0.035 A 
ATOM      2  C   LIG    1      -38.724  77.422  25.207  0.00  0.00    +0.046 A 
ATOM      3  C   LIG    1      -40.015  77.455  24.660  0.00  0.00    +0.033 A 
ATOM      4  C   LIG    1      -40.539  76.262  24.153  0.00  0.00    +0.023 A 
ATOM      5  C   LIG    1      -39.820  75.065  24.238  0.00  0.00    +0.004 A 
ATOM      6  C   LIG    1      -38.558  75.039  24.837  0.00  0.00    +0.023 A 
ENDROOT
BRANCH   1   8
ATOM      7  C   LIG    1      -36.312  75.729  27.116  0.00  0.00    +0.248 C 
ATOM      8  N   LIG    1      -36.722  76.302  25.923  0.00  0.00    -0.281 N 
ATOM      9  H   LIG    1      -36.101  76.971  25.493  0.00  0.00    +0.155 HD
ATOM     10  O   LIG    1      -37.002  75.061  27.876  0.00  0.00    -0.270 OA
BRANCH   7  15
ATOM     11  C   LIG    1      -32.821  75.462  28.671  0.00  0.00    +0.049 A 
ATOM     12  C   LIG    1      -32.272  76.689  28.272  0.00  0.00    +0.038 A 
ATOM     13  C   LIG    1      -33.021  77.602  27.509  0.00  0.00    +0.057 A 
ATOM     14  C   LIG    1      -34.339  77.271  27.150  0.00  0.00    +0.025 A 
ATOM     15  C   LIG    1      -34.895  76.037  27.518  0.00  0.00    +0.040 A 
ATOM     16  C   LIG    1      -34.130  75.137  28.276  0.00  0.00    +0.039 A 
BRANCH  11  21
ATOM     17  C   LIG    1      -30.556  71.408  30.562  0.00  0.00    +0.067 C 
ATOM     18  C   LIG    1      -31.074  72.767  30.300  0.00  0.00    +0.056 A 
ATOM     19  N   LIG    1      -30.665  73.823  31.064  0.00  0.00    -0.241 NA
ATOM     20  C   LIG    1      -31.270  74.873  30.558  0.00  0.00    +0.204 A 
ATOM     21  N   LIG    1      -32.063  74.561  29.475  0.00  0.00    -0.306 N 
ATOM     22  C   LIG    1      -31.961  73.193  29.334  0.00  0.00    +0.115 A 
ENDBRANCH  11  21
BRANCH  13  23
ATOM     23  C   LIG    1      -32.392  78.913  27.099  0.00  0.00    +0.418 C 
ATOM     24  F   LIG    1      -31.224  79.148  27.760  0.00  0.00    -0.166 F 
ATOM     25  F   LIG    1      -33.193  79.979  27.375  0.00  0.00    -0.166 F 
ATOM     26  F   LIG    1      -32.097  78.992  25.775  0.00  0.00    -0.166 F 
ENDBRANCH  13  23
ENDBRANCH   7  15
ENDBRANCH   1   8
BRANCH   3  27
ATOM     27  N   LIG    1      -40.793  78.628  24.584  0.00  0.00    -0.314 N 
ATOM     28  H   LIG    1      -41.794  78.463  24.631  0.00  0.00    +0.152 HD
BRANCH  27  29
ATOM     29  C   LIG    1      -40.458  79.974  24.361  0.00  0.00    +0.033 A 
ATOM     30  C   LIG    1      -39.608  80.671  25.219  0.00  0.00    +0.047 A 
ATOM     31  C   LIG    1      -39.342  82.002  24.954  0.00  0.00    +0.046 A 
ATOM     32  N   LIG    1      -38.527  82.864  25.694  0.00  0.00    -0.265 N 
ATOM     33  C   LIG    1      -38.565  84.141  25.166  0.00  0.00    +0.252 C 
ATOM     34  O   LIG    1      -37.984  85.092  25.632  0.00  0.00    -0.270 OA
ATOM     35  C   LIG    1      -39.417  84.075  23.921  0.00  0.00    +0.048 C 
ATOM     36  C   LIG    1      -39.678  85.052  23.028  0.00  0.00    +0.039 C 
ATOM     37  C   LIG    1      -39.904  82.681  23.859  0.00  0.00    +0.009 A 
ATOM     38  C   LIG    1      -40.758  82.014  23.001  0.00  0.00    +0.012 A 
ATOM     39  C   LIG    1      -41.031  80.660  23.263  0.00  0.00    +0.024 A 
BRANCH  36  40
ATOM     40  C   LIG    1      -39.227  86.412  23.055  0.00  0.00    +0.040 A 
ATOM     41  N   LIG    1      -37.904  86.748  22.908  0.00  0.00    -0.361 N 
ATOM     42  H   LIG    1      -37.144  86.097  22.762  0.00  0.00    +0.165 HD
ATOM     43  C   LIG    1      -37.706  88.094  22.958  0.00  0.00    +0.083 A 
ATOM     44  C   LIG    1      -38.931  88.672  23.158  0.00  0.00    +0.019 A 
ATOM     45  C   LIG    1      -39.889  87.621  23.219  0.00  0.00    +0.027 A 
ENDBRANCH  36  40
BRANCH  32  46
ATOM     46  C   LIG    1      -37.843  82.564  26.936  0.00  0.00    +0.142 C 
BRANCH  46  47
ATOM     47  C   LIG    1      -36.361  82.183  26.764  0.00  0.00    +0.175 C 
BRANCH  47  48
ATOM     48  O   LIG    1      -35.555  83.169  26.133  0.00  0.00    -0.393 OA
ATOM     49  H   LIG    1      -34.624  83.011  26.385  0.00  0.00    +0.209 HD
ENDBRANCH  47  48
ENDBRANCH  46  47
ENDBRANCH  32  46
ENDBRANCH  27  29
ENDBRANCH   3  27
TORSDOF 10
ENDMDL
MODEL 7
REMARK VINA RESULT:      -7.1     10.683     15.385
REMARK  Name = modded_pdb/CHEMBL2037209_nitrogen_modded_with_ethanol_version_3.pdb
REMARK                            x       y       z     vdW  Elec       q    Type
REMARK                         _______ _______ _______ _____ _____    ______ ____
ROOT
ATOM      1  C   LIG    1      -39.526  78.824  24.590  0.00  0.00    +0.035 A 
ATOM      2  C   LIG    1      -39.306  79.407  25.853  0.00  0.00    +0.046 A 
ATOM      3  C   LIG    1      -39.270  80.797  26.028  0.00  0.00    +0.033 A 
ATOM      4  C   LIG    1      -39.383  81.601  24.889  0.00  0.00    +0.023 A 
ATOM      5  C   LIG    1      -39.578  81.035  23.625  0.00  0.00    +0.004 A 
ATOM      6  C   LIG    1      -39.666  79.649  23.475  0.00  0.00    +0.023 A 
ENDROOT
BRANCH   1   8
ATOM      7  C   LIG    1      -38.539  76.521  24.756  0.00  0.00    +0.248 C 
ATOM      8  N   LIG    1      -39.578  77.413  24.540  0.00  0.00    -0.281 N 
ATOM      9  H   LIG    1      -40.437  77.040  24.165  0.00  0.00    +0.155 HD
ATOM     10  O   LIG    1      -37.377  76.809  25.011  0.00  0.00    -0.270 OA
BRANCH   7  15
ATOM     11  C   LIG    1      -38.352  72.695  24.736  0.00  0.00    +0.049 A 
ATOM     12  C   LIG    1      -39.608  72.383  24.199  0.00  0.00    +0.038 A 
ATOM     13  C   LIG    1      -40.513  73.398  23.840  0.00  0.00    +0.057 A 
ATOM     14  C   LIG    1      -40.141  74.740  24.023  0.00  0.00    +0.025 A 
ATOM     15  C   LIG    1      -38.897  75.070  24.584  0.00  0.00    +0.040 A 
ATOM     16  C   LIG    1      -38.009  74.042  24.940  0.00  0.00    +0.039 A 
BRANCH  11  21
ATOM     17  C   LIG    1      -35.002  69.751  27.030  0.00  0.00    +0.067 C 
ATOM     18  C   LIG    1      -35.952  70.372  26.082  0.00  0.00    +0.056 A 
ATOM     19  N   LIG    1      -36.293  69.731  24.924  0.00  0.00    -0.241 NA
ATOM     20  C   LIG    1      -37.166  70.516  24.336  0.00  0.00    +0.204 A 
ATOM     21  N   LIG    1      -37.430  71.657  25.063  0.00  0.00    -0.306 N 
ATOM     22  C   LIG    1      -36.616  71.576  26.173  0.00  0.00    +0.115 A 
ENDBRANCH  11  21
BRANCH  13  23
ATOM     23  C   LIG    1      -41.858  73.019  23.265  0.00  0.00    +0.418 C 
ATOM     24  F   LIG    1      -42.732  72.621  24.232  0.00  0.00    -0.166 F 
ATOM     25  F   LIG    1      -41.772  71.977  22.393  0.00  0.00    -0.166 F 
ATOM     26  F   LIG    1      -42.474  74.027  22.593  0.00  0.00    -0.166 F 
ENDBRANCH  13  23
ENDBRANCH   7  15
ENDBRANCH   1   8
BRANCH   3  27
ATOM     27  N   LIG    1      -39.112  81.415  27.285  0.00  0.00    -0.314 N 
ATOM     28  H   LIG    1      -39.940  81.375  27.872  0.00  0.00    +0.152 HD
BRANCH  27  29
ATOM     29  C   LIG    1      -38.062  82.160  27.849  0.00  0.00    +0.033 A 
ATOM     30  C   LIG    1      -37.766  83.452  27.419  0.00  0.00    +0.047 A 
ATOM     31  C   LIG    1      -36.701  84.117  27.999  0.00  0.00    +0.046 A 
ATOM     32  N   LIG    1      -36.246  85.406  27.703  0.00  0.00    -0.265 N 
ATOM     33  C   LIG    1      -35.111  85.701  28.432  0.00  0.00    +0.252 C 
ATOM     34  O   LIG    1      -34.488  86.732  28.343  0.00  0.00    -0.270 OA
ATOM     35  C   LIG    1      -34.861  84.525  29.347  0.00  0.00    +0.048 C 
ATOM     36  C   LIG    1      -33.915  84.388  30.300  0.00  0.00    +0.039 C 
ATOM     37  C   LIG    1      -35.901  83.536  28.999  0.00  0.00    +0.009 A 
ATOM     38  C   LIG    1      -36.170  82.252  29.433  0.00  0.00    +0.012 A 
ATOM     39  C   LIG    1      -37.252  81.570  28.850  0.00  0.00    +0.024 A 
BRANCH  36  40
ATOM     40  C   LIG    1      -32.891  85.321  30.664  0.00  0.00    +0.040 A 
ATOM     41  N   LIG    1      -33.177  86.535  31.237  0.00  0.00    -0.361 N 
ATOM     42  H   LIG    1      -34.101  86.878  31.460  0.00  0.00    +0.165 HD
ATOM     43  C   LIG    1      -32.053  87.254  31.507  0.00  0.00    +0.083 A 
ATOM     44  C   LIG    1      -30.986  86.504  31.088  0.00  0.00    +0.019 A 
ATOM     45  C   LIG    1      -31.507  85.289  30.560  0.00  0.00    +0.027 A 
ENDBRANCH  36  40
BRANCH  32  46
ATOM     46  C   LIG    1      -36.752  86.292  26.672  0.00  0.00    +0.142 C 
BRANCH  46  47
ATOM     47  C   LIG    1      -36.352  85.887  25.241  0.00  0.00    +0.175 C 
BRANCH  47  48
ATOM     48  O   LIG    1      -34.959  85.686  25.040  0.00  0.00    -0.393 OA
ATOM     49  H   LIG    1      -34.819  85.424  24.109  0.00  0.00    +0.209 HD
ENDBRANCH  47  48
ENDBRANCH  46  47
ENDBRANCH  32  46
ENDBRANCH  27  29
ENDBRANCH   3  27
TORSDOF 10
ENDMDL
MODEL 8
REMARK VINA RESULT:      -7.1      5.679      9.896
REMARK  Name = modded_pdb/CHEMBL2037209_nitrogen_modded_with_ethanol_version_3.pdb
REMARK                            x       y       z     vdW  Elec       q    Type
REMARK                         _______ _______ _______ _____ _____    ______ ____
ROOT
ATOM      1  C   LIG    1      -35.323  71.507  27.479  0.00  0.00    +0.035 A 
ATOM      2  C   LIG    1      -36.063  71.600  26.283  0.00  0.00    +0.046 A 
ATOM      3  C   LIG    1      -36.942  70.586  25.878  0.00  0.00    +0.033 A 
ATOM      4  C   LIG    1      -37.009  69.430  26.662  0.00  0.00    +0.023 A 
ATOM      5  C   LIG    1      -36.262  69.313  27.839  0.00  0.00    +0.004 A 
ATOM      6  C   LIG    1      -35.433  70.356  28.258  0.00  0.00    +0.023 A 
ENDROOT
BRANCH   1   8
ATOM      7  C   LIG    1      -34.873  73.930  27.958  0.00  0.00    +0.248 C 
ATOM      8  N   LIG    1      -34.496  72.606  27.804  0.00  0.00    -0.281 N 
ATOM      9  H   LIG    1      -33.507  72.406  27.776  0.00  0.00    +0.155 HD
ATOM     10  O   LIG    1      -36.001  74.385  27.817  0.00  0.00    -0.270 OA
BRANCH   7  15
ATOM     11  C   LIG    1      -31.738  75.500  29.501  0.00  0.00    +0.049 A 
ATOM     12  C   LIG    1      -31.700  76.720  28.810  0.00  0.00    +0.038 A 
ATOM     13  C   LIG    1      -32.679  77.039  27.855  0.00  0.00    +0.057 A 
ATOM     14  C   LIG    1      -33.709  76.118  27.597  0.00  0.00    +0.025 A 
ATOM     15  C   LIG    1      -33.748  74.882  28.261  0.00  0.00    +0.040 A 
ATOM     16  C   LIG    1      -32.758  74.579  29.209  0.00  0.00    +0.039 A 
BRANCH  11  21
ATOM     17  C   LIG    1      -28.183  75.799  33.025  0.00  0.00    +0.067 C 
ATOM     18  C   LIG    1      -29.190  75.348  32.041  0.00  0.00    +0.056 A 
ATOM     19  N   LIG    1      -29.537  74.029  31.961  0.00  0.00    -0.241 NA
ATOM     20  C   LIG    1      -30.464  73.969  31.033  0.00  0.00    +0.204 A 
ATOM     21  N   LIG    1      -30.758  75.203  30.494  0.00  0.00    -0.306 N 
ATOM     22  C   LIG    1      -29.907  76.086  31.124  0.00  0.00    +0.115 A 
ENDBRANCH  11  21
BRANCH  13  23
ATOM     23  C   LIG    1      -32.601  78.364  27.131  0.00  0.00    +0.418 C 
ATOM     24  F   LIG    1      -32.403  78.203  25.792  0.00  0.00    -0.166 F 
ATOM     25  F   LIG    1      -31.565  79.131  27.568  0.00  0.00    -0.166 F 
ATOM     26  F   LIG    1      -33.718  79.127  27.257  0.00  0.00    -0.166 F 
ENDBRANCH  13  23
ENDBRANCH   7  15
ENDBRANCH   1   8
BRANCH   3  27
ATOM     27  N   LIG    1      -37.742  70.672  24.720  0.00  0.00    -0.314 N 
ATOM     28  H   LIG    1      -37.487  70.011  23.993  0.00  0.00    +0.152 HD
BRANCH  27  29
ATOM     29  C   LIG    1      -38.763  71.559  24.338  0.00  0.00    +0.033 A 
ATOM     30  C   LIG    1      -38.687  72.924  24.608  0.00  0.00    +0.047 A 
ATOM     31  C   LIG    1      -39.741  73.736  24.228  0.00  0.00    +0.046 A 
ATOM     32  N   LIG    1      -39.854  75.117  24.413  0.00  0.00    -0.265 N 
ATOM     33  C   LIG    1      -41.083  75.567  23.972  0.00  0.00    +0.252 C 
ATOM     34  O   LIG    1      -41.461  76.712  24.048  0.00  0.00    -0.270 OA
ATOM     35  C   LIG    1      -41.794  74.379  23.367  0.00  0.00    +0.048 C 
ATOM     36  C   LIG    1      -42.987  74.345  22.737  0.00  0.00    +0.039 C 
ATOM     37  C   LIG    1      -40.888  73.234  23.588  0.00  0.00    +0.009 A 
ATOM     38  C   LIG    1      -40.989  71.882  23.321  0.00  0.00    +0.012 A 
ATOM     39  C   LIG    1      -39.921  71.051  23.702  0.00  0.00    +0.024 A 
BRANCH  36  40
ATOM     40  C   LIG    1      -43.891  75.432  22.506  0.00  0.00    +0.040 A 
ATOM     41  N   LIG    1      -44.512  76.099  23.532  0.00  0.00    -0.361 N 
ATOM     42  H   LIG    1      -44.393  75.907  24.517  0.00  0.00    +0.165 HD
ATOM     43  C   LIG    1      -45.320  77.098  23.081  0.00  0.00    +0.083 A 
ATOM     44  C   LIG    1      -45.247  77.087  21.714  0.00  0.00    +0.019 A 
ATOM     45  C   LIG    1      -44.351  76.044  21.348  0.00  0.00    +0.027 A 
ENDBRANCH  36  40
BRANCH  32  46
ATOM     46  C   LIG    1      -38.921  75.982  25.108  0.00  0.00    +0.142 C 
BRANCH  46  47
ATOM     47  C   LIG    1      -37.994  76.786  24.179  0.00  0.00    +0.175 C 
BRANCH  47  48
ATOM     48  O   LIG    1      -38.636  77.804  23.423  0.00  0.00    -0.393 OA
ATOM     49  H   LIG    1      -38.921  78.509  24.037  0.00  0.00    +0.209 HD
ENDBRANCH  47  48
ENDBRANCH  46  47
ENDBRANCH  32  46
ENDBRANCH  27  29
ENDBRANCH   3  27
TORSDOF 10
ENDMDL
MODEL 9
REMARK VINA RESULT:      -7.0     12.902     16.687
REMARK  Name = modded_pdb/CHEMBL2037209_nitrogen_modded_with_ethanol_version_3.pdb
REMARK                            x       y       z     vdW  Elec       q    Type
REMARK                         _______ _______ _______ _____ _____    ______ ____
ROOT
ATOM      1  C   LIG    1      -36.947  68.167  24.547  0.00  0.00    +0.035 A 
ATOM      2  C   LIG    1      -35.991  67.840  23.565  0.00  0.00    +0.046 A 
ATOM      3  C   LIG    1      -35.287  66.628  23.596  0.00  0.00    +0.033 A 
ATOM      4  C   LIG    1      -35.503  65.776  24.684  0.00  0.00    +0.023 A 
ATOM      5  C   LIG    1      -36.431  66.099  25.679  0.00  0.00    +0.004 A 
ATOM      6  C   LIG    1      -37.166  67.285  25.604  0.00  0.00    +0.023 A 
ENDROOT
BRANCH   1   8
ATOM      7  C   LIG    1      -37.261  70.631  24.917  0.00  0.00    +0.248 C 
ATOM      8  N   LIG    1      -37.621  69.400  24.393  0.00  0.00    -0.281 N 
ATOM      9  H   LIG    1      -38.537  69.325  23.974  0.00  0.00    +0.155 HD
ATOM     10  O   LIG    1      -36.292  70.861  25.629  0.00  0.00    -0.270 OA
BRANCH   7  15
ATOM     11  C   LIG    1      -38.838  74.115  24.700  0.00  0.00    +0.049 A 
ATOM     12  C   LIG    1      -40.050  73.804  24.065  0.00  0.00    +0.038 A 
ATOM     13  C   LIG    1      -40.361  72.481  23.710  0.00  0.00    +0.057 A 
ATOM     14  C   LIG    1      -39.440  71.460  24.004  0.00  0.00    +0.025 A 
ATOM     15  C   LIG    1      -38.213  71.756  24.616  0.00  0.00    +0.040 A 
ATOM     16  C   LIG    1      -37.918  73.085  24.958  0.00  0.00    +0.039 A 
BRANCH  11  21
ATOM     17  C   LIG    1      -39.143  78.993  25.819  0.00  0.00    +0.067 C 
ATOM     18  C   LIG    1      -38.697  77.605  25.572  0.00  0.00    +0.056 A 
ATOM     19  N   LIG    1      -37.425  77.220  25.890  0.00  0.00    -0.241 NA
ATOM     20  C   LIG    1      -37.362  75.944  25.587  0.00  0.00    +0.204 A 
ATOM     21  N   LIG    1      -38.550  75.457  25.087  0.00  0.00    -0.306 N 
ATOM     22  C   LIG    1      -39.399  76.542  25.046  0.00  0.00    +0.115 A 
ENDBRANCH  11  21
BRANCH  13  23
ATOM     23  C   LIG    1      -41.677  72.189  23.025  0.00  0.00    +0.418 C 
ATOM     24  F   LIG    1      -41.540  71.269  22.030  0.00  0.00    -0.166 F 
ATOM     25  F   LIG    1      -42.208  73.295  22.436  0.00  0.00    -0.166 F 
ATOM     26  F   LIG    1      -42.635  71.703  23.857  0.00  0.00    -0.166 F 
ENDBRANCH  13  23
ENDBRANCH   7  15
ENDBRANCH   1   8
BRANCH   3  27
ATOM     27  N   LIG    1      -34.368  66.241  22.599  0.00  0.00    -0.314 N 
ATOM     28  H   LIG    1      -33.511  65.837  22.962  0.00  0.00    +0.152 HD
BRANCH  27  29
ATOM     29  C   LIG    1      -34.368  66.392  21.202  0.00  0.00    +0.033 A 
ATOM     30  C   LIG    1      -33.225  66.785  20.507  0.00  0.00    +0.047 A 
ATOM     31  C   LIG    1      -33.302  66.940  19.135  0.00  0.00    +0.046 A 
ATOM     32  N   LIG    1      -32.276  67.329  18.269  0.00  0.00    -0.265 N 
ATOM     33  C   LIG    1      -32.750  67.450  16.977  0.00  0.00    +0.252 C 
ATOM     34  O   LIG    1      -32.085  67.809  16.034  0.00  0.00    -0.270 OA
ATOM     35  C   LIG    1      -34.196  67.015  16.998  0.00  0.00    +0.048 C 
ATOM     36  C   LIG    1      -35.051  66.887  15.962  0.00  0.00    +0.039 C 
ATOM     37  C   LIG    1      -34.492  66.727  18.417  0.00  0.00    +0.009 A 
ATOM     38  C   LIG    1      -35.640  66.348  19.086  0.00  0.00    +0.012 A 
ATOM     39  C   LIG    1      -35.568  66.185  20.481  0.00  0.00    +0.024 A 
BRANCH  36  40
ATOM     40  C   LIG    1      -34.802  67.157  14.577  0.00  0.00    +0.040 A 
ATOM     41  N   LIG    1      -34.523  68.420  14.116  0.00  0.00    -0.361 N 
ATOM     42  H   LIG    1      -34.458  69.253  14.684  0.00  0.00    +0.165 HD
ATOM     43  C   LIG    1      -34.312  68.441  12.771  0.00  0.00    +0.083 A 
ATOM     44  C   LIG    1      -34.470  67.158  12.320  0.00  0.00    +0.019 A 
ATOM     45  C   LIG    1      -34.776  66.348  13.450  0.00  0.00    +0.027 A 
ENDBRANCH  36  40
BRANCH  32  46
ATOM     46  C   LIG    1      -30.929  67.722  18.636  0.00  0.00    +0.142 C 
BRANCH  46  47
ATOM     47  C   LIG    1      -29.981  66.540  18.909  0.00  0.00    +0.175 C 
BRANCH  47  48
ATOM     48  O   LIG    1      -29.561  66.405  20.260  0.00  0.00    -0.393 OA
ATOM     49  H   LIG    1      -29.717  67.256  20.716  0.00  0.00    +0.209 HD
ENDBRANCH  47  48
ENDBRANCH  46  47
ENDBRANCH  32  46
ENDBRANCH  27  29
ENDBRANCH   3  27
TORSDOF 10
ENDMDL
