REMARK  Name = modded_pdb/CHEMBL2037225_nitrogen_modded_with_ethanol_version_2.pdb
REMARK                            x       y       z     vdW  Elec       q    Type
REMARK                         _______ _______ _______ _____ _____    ______ ____
ROOT
ATOM      1  C   LIG    1        0.708  -0.541   1.304  0.00  0.00    +0.045 C 
ATOM      2  C   LIG    1        2.140  -0.324   0.893  0.00  0.00    -0.029 A 
ATOM      3  C   LIG    1        2.875  -1.275   0.169  0.00  0.00    +0.036 A 
ATOM      4  C   LIG    1        4.172  -0.944  -0.269  0.00  0.00    +0.046 A 
ATOM      5  C   LIG    1        4.817   0.233   0.119  0.00  0.00    +0.037 A 
ATOM      6  C   LIG    1        4.121   1.123   0.929  0.00  0.00    +0.024 A 
ATOM      7  C   LIG    1        2.789   0.858   1.289  0.00  0.00    +0.007 A 
ENDROOT
BRANCH   5   8
ATOM      8  N   LIG    1        6.167   0.357  -0.296  0.00  0.00    -0.269 N 
ATOM      9  H   LIG    1        6.534  -0.491  -0.682  0.00  0.00    +0.156 HD
ATOM     10  C   LIG    1        7.056   1.384  -0.044  0.00  0.00    +0.311 C 
ATOM     11  N   LIG    1        8.394   1.162  -0.500  0.00  0.00    -0.253 N 
ATOM     12  O   LIG    1        6.683   2.408   0.526  0.00  0.00    -0.252 OA
BRANCH  11  13
ATOM     13  C   LIG    1        9.475   2.079  -0.131  0.00  0.00    +0.038 A 
ATOM     14  C   LIG    1       10.743   2.034  -0.749  0.00  0.00    +0.036 A 
ATOM     15  C   LIG    1       11.793   2.912  -0.397  0.00  0.00    +0.057 A 
ATOM     16  C   LIG    1       11.583   3.853   0.610  0.00  0.00    +0.012 A 
ATOM     17  C   LIG    1       10.355   3.906   1.251  0.00  0.00    +0.002 A 
ATOM     18  C   LIG    1        9.328   3.029   0.889  0.00  0.00    +0.023 A 
BRANCH  15  19
ATOM     19  C   LIG    1       13.119   2.815  -1.111  0.00  0.00    +0.417 C 
ATOM     20  F   LIG    1       13.001   3.024  -2.452  0.00  0.00    -0.166 F 
ATOM     21  F   LIG    1       13.692   1.587  -0.975  0.00  0.00    -0.166 F 
ATOM     22  F   LIG    1       14.046   3.711  -0.673  0.00  0.00    -0.166 F 
ENDBRANCH  15  19
ENDBRANCH  11  13
BRANCH  11  23
ATOM     23  C   LIG    1        8.767   0.063  -1.429  0.00  0.00    +0.143 C 
BRANCH  23  24
ATOM     24  C   LIG    1        8.740   0.484  -2.905  0.00  0.00    +0.175 C 
BRANCH  24  25
ATOM     25  O   LIG    1        9.108  -0.621  -3.726  0.00  0.00    -0.393 OA
ATOM     26  H   LIG    1        9.117  -0.299  -4.646  0.00  0.00    +0.209 HD
ENDBRANCH  24  25
ENDBRANCH  23  24
ENDBRANCH  11  23
ENDBRANCH   5   8
BRANCH   3  27
ATOM     27  N   LIG    1        2.337  -2.548  -0.169  0.00  0.00    -0.314 N 
ATOM     28  H   LIG    1        1.749  -2.465  -0.995  0.00  0.00    +0.152 HD
BRANCH  27  29
ATOM     29  C   LIG    1        3.121  -3.739  -0.189  0.00  0.00    +0.033 A 
ATOM     30  C   LIG    1        4.022  -4.021   0.854  0.00  0.00    +0.047 A 
ATOM     31  C   LIG    1        4.749  -5.196   0.794  0.00  0.00    +0.043 A 
ATOM     32  N   LIG    1        5.646  -5.672   1.744  0.00  0.00    -0.281 N 
ATOM     33  H   LIG    1        5.880  -5.218   2.614  0.00  0.00    +0.155 HD
ATOM     34  C   LIG    1        6.167  -6.910   1.387  0.00  0.00    +0.249 C 
ATOM     35  O   LIG    1        6.952  -7.565   2.024  0.00  0.00    -0.270 OA
ATOM     36  C   LIG    1        5.567  -7.205   0.026  0.00  0.00    +0.048 C 
ATOM     37  C   LIG    1        5.793  -8.231  -0.811  0.00  0.00    +0.039 C 
ATOM     38  C   LIG    1        4.637  -6.096  -0.267  0.00  0.00    +0.008 A 
ATOM     39  C   LIG    1        3.749  -5.842  -1.296  0.00  0.00    +0.012 A 
ATOM     40  C   LIG    1        2.983  -4.664  -1.246  0.00  0.00    +0.024 A 
BRANCH  37  41
ATOM     41  C   LIG    1        6.657  -9.342  -0.617  0.00  0.00    +0.040 A 
ATOM     42  N   LIG    1        7.820  -9.248   0.112  0.00  0.00    -0.361 N 
ATOM     43  H   LIG    1        8.131  -8.425   0.616  0.00  0.00    +0.165 HD
ATOM     44  C   LIG    1        8.461 -10.461   0.133  0.00  0.00    +0.083 A 
ATOM     45  C   LIG    1        7.730 -11.341  -0.628  0.00  0.00    +0.019 A 
ATOM     46  C   LIG    1        6.604 -10.633  -1.114  0.00  0.00    +0.027 A 
ENDBRANCH  37  41
ENDBRANCH  27  29
ENDBRANCH   3  27
TORSDOF 9
