REMARK  Name = modded_pdb/CHEMBL2037225_nitrogen_modded_with_ethanol_version_3.pdb
REMARK                            x       y       z     vdW  Elec       q    Type
REMARK                         _______ _______ _______ _____ _____    ______ ____
ROOT
ATOM      1  C   LIG    1        4.873  -0.898  -1.500  0.00  0.00    +0.045 C 
ATOM      2  C   LIG    1        4.117  -0.328  -0.327  0.00  0.00    -0.029 A 
ATOM      3  C   LIG    1        2.925  -0.888   0.191  0.00  0.00    +0.036 A 
ATOM      4  C   LIG    1        2.352  -0.295   1.330  0.00  0.00    +0.046 A 
ATOM      5  C   LIG    1        2.946   0.801   1.971  0.00  0.00    +0.037 A 
ATOM      6  C   LIG    1        4.076   1.382   1.412  0.00  0.00    +0.024 A 
ATOM      7  C   LIG    1        4.667   0.812   0.288  0.00  0.00    +0.007 A 
ENDROOT
BRANCH   5   8
ATOM      8  N   LIG    1        2.318   1.309   3.118  0.00  0.00    -0.269 N 
ATOM      9  H   LIG    1        1.321   1.132   3.197  0.00  0.00    +0.156 HD
ATOM     10  C   LIG    1        2.762   2.137   4.114  0.00  0.00    +0.308 C 
ATOM     11  N   LIG    1        4.111   2.138   4.375  0.00  0.00    -0.269 N 
ATOM     12  H   LIG    1        4.677   1.530   3.803  0.00  0.00    +0.156 HD
ATOM     13  O   LIG    1        1.906   2.741   4.763  0.00  0.00    -0.252 OA
BRANCH  11  14
ATOM     14  C   LIG    1        4.786   2.836   5.404  0.00  0.00    +0.035 A 
ATOM     15  C   LIG    1        6.168   2.631   5.538  0.00  0.00    +0.035 A 
ATOM     16  C   LIG    1        6.918   3.326   6.510  0.00  0.00    +0.057 A 
ATOM     17  C   LIG    1        6.262   4.227   7.358  0.00  0.00    +0.012 A 
ATOM     18  C   LIG    1        4.890   4.426   7.240  0.00  0.00    +0.002 A 
ATOM     19  C   LIG    1        4.159   3.732   6.273  0.00  0.00    +0.023 A 
BRANCH  16  20
ATOM     20  C   LIG    1        8.405   3.107   6.629  0.00  0.00    +0.417 C 
ATOM     21  F   LIG    1        9.068   3.405   5.476  0.00  0.00    -0.166 F 
ATOM     22  F   LIG    1        8.721   1.815   6.917  0.00  0.00    -0.166 F 
ATOM     23  F   LIG    1        8.993   3.861   7.600  0.00  0.00    -0.166 F 
ENDBRANCH  16  20
ENDBRANCH  11  14
ENDBRANCH   5   8
BRANCH   3  24
ATOM     24  N   LIG    1        2.303  -1.998  -0.425  0.00  0.00    -0.314 N 
ATOM     25  H   LIG    1        2.963  -2.717  -0.699  0.00  0.00    +0.152 HD
BRANCH  24  26
ATOM     26  C   LIG    1        0.952  -2.417  -0.447  0.00  0.00    +0.033 A 
ATOM     27  C   LIG    1       -0.126  -1.516  -0.446  0.00  0.00    +0.047 A 
ATOM     28  C   LIG    1       -1.423  -2.017  -0.530  0.00  0.00    +0.046 A 
ATOM     29  N   LIG    1       -2.642  -1.308  -0.558  0.00  0.00    -0.265 N 
ATOM     30  C   LIG    1       -3.725  -2.170  -0.660  0.00  0.00    +0.252 C 
ATOM     31  O   LIG    1       -4.909  -1.851  -0.700  0.00  0.00    -0.270 OA
ATOM     32  C   LIG    1       -3.137  -3.555  -0.736  0.00  0.00    +0.048 C 
ATOM     33  C   LIG    1       -3.755  -4.736  -0.923  0.00  0.00    +0.039 C 
ATOM     34  C   LIG    1       -1.680  -3.390  -0.599  0.00  0.00    +0.009 A 
ATOM     35  C   LIG    1       -0.637  -4.297  -0.543  0.00  0.00    +0.012 A 
ATOM     36  C   LIG    1        0.672  -3.802  -0.464  0.00  0.00    +0.024 A 
BRANCH  33  37
ATOM     37  C   LIG    1       -5.146  -4.947  -1.123  0.00  0.00    +0.040 A 
ATOM     38  N   LIG    1       -5.922  -4.027  -1.788  0.00  0.00    -0.361 N 
ATOM     39  H   LIG    1       -5.609  -3.112  -2.091  0.00  0.00    +0.165 HD
ATOM     40  C   LIG    1       -7.218  -4.464  -1.867  0.00  0.00    +0.083 A 
ATOM     41  C   LIG    1       -7.280  -5.700  -1.270  0.00  0.00    +0.019 A 
ATOM     42  C   LIG    1       -5.973  -6.015  -0.821  0.00  0.00    +0.027 A 
ENDBRANCH  33  37
BRANCH  29  43
ATOM     43  C   LIG    1       -2.794   0.124  -0.395  0.00  0.00    +0.142 C 
BRANCH  43  44
ATOM     44  C   LIG    1       -2.867   0.531   1.079  0.00  0.00    +0.175 C 
BRANCH  44  45
ATOM     45  O   LIG    1       -1.672   0.187   1.779  0.00  0.00    -0.393 OA
ATOM     46  H   LIG    1       -1.634  -0.787   1.778  0.00  0.00    +0.209 HD
ENDBRANCH  44  45
ENDBRANCH  43  44
ENDBRANCH  29  43
ENDBRANCH  24  26
ENDBRANCH   3  24
TORSDOF 9
