REMARK  Name = modded_pdb/CHEMBL2037209_nitrogen_modded_with_ethanol_version_2.pdb
REMARK                            x       y       z     vdW  Elec       q    Type
REMARK                         _______ _______ _______ _____ _____    ______ ____
ROOT
ATOM      1  C   LIG    1        7.847   7.559  -0.539  0.00  0.00    +0.035 A 
ATOM      2  C   LIG    1        8.020   8.142   0.732  0.00  0.00    +0.046 A 
ATOM      3  C   LIG    1        8.540   9.437   0.914  0.00  0.00    +0.036 A 
ATOM      4  C   LIG    1        8.876  10.140  -0.253  0.00  0.00    +0.023 A 
ATOM      5  C   LIG    1        8.718   9.572  -1.524  0.00  0.00    +0.004 A 
ATOM      6  C   LIG    1        8.213   8.279  -1.667  0.00  0.00    +0.023 A 
ENDROOT
BRANCH   1   8
ATOM      7  C   LIG    1        6.989   5.467  -1.657  0.00  0.00    +0.248 C 
ATOM      8  N   LIG    1        7.290   6.262  -0.561  0.00  0.00    -0.281 N 
ATOM      9  H   LIG    1        7.065   5.917   0.356  0.00  0.00    +0.155 HD
ATOM     10  O   LIG    1        7.190   5.765  -2.829  0.00  0.00    -0.270 OA
BRANCH   7  15
ATOM     11  C   LIG    1        5.362   2.064  -2.223  0.00  0.00    +0.049 A 
ATOM     12  C   LIG    1        5.092   1.641  -0.915  0.00  0.00    +0.038 A 
ATOM     13  C   LIG    1        5.470   2.434   0.176  0.00  0.00    +0.057 A 
ATOM     14  C   LIG    1        6.092   3.672  -0.062  0.00  0.00    +0.025 A 
ATOM     15  C   LIG    1        6.352   4.127  -1.363  0.00  0.00    +0.040 A 
ATOM     16  C   LIG    1        5.993   3.300  -2.445  0.00  0.00    +0.039 A 
BRANCH  11  21
ATOM     17  C   LIG    1        3.109  -1.286  -5.170  0.00  0.00    +0.067 C 
ATOM     18  C   LIG    1        4.007  -0.262  -4.592  0.00  0.00    +0.056 A 
ATOM     19  N   LIG    1        5.001   0.304  -5.347  0.00  0.00    -0.241 NA
ATOM     20  C   LIG    1        5.569   1.195  -4.564  0.00  0.00    +0.204 A 
ATOM     21  N   LIG    1        4.999   1.232  -3.313  0.00  0.00    -0.306 N 
ATOM     22  C   LIG    1        4.003   0.283  -3.325  0.00  0.00    +0.115 A 
ENDBRANCH  11  21
BRANCH  13  23
ATOM     23  C   LIG    1        5.232   1.959   1.592  0.00  0.00    +0.418 C 
ATOM     24  F   LIG    1        5.893   0.804   1.869  0.00  0.00    -0.166 F 
ATOM     25  F   LIG    1        3.919   1.721   1.848  0.00  0.00    -0.166 F 
ATOM     26  F   LIG    1        5.641   2.857   2.531  0.00  0.00    -0.166 F 
ENDBRANCH  13  23
ENDBRANCH   7  15
ENDBRANCH   1   8
BRANCH   3  27
ATOM     27  N   LIG    1        8.748  10.010   2.202  0.00  0.00    -0.298 N 
BRANCH  27  28
ATOM     28  C   LIG    1        8.622  11.383   2.556  0.00  0.00    +0.036 A 
ATOM     29  C   LIG    1        7.715  12.210   1.870  0.00  0.00    +0.047 A 
ATOM     30  C   LIG    1        7.603  13.539   2.237  0.00  0.00    +0.043 A 
ATOM     31  N   LIG    1        6.763  14.472   1.643  0.00  0.00    -0.281 N 
ATOM     32  H   LIG    1        6.142  14.292   0.868  0.00  0.00    +0.155 HD
ATOM     33  C   LIG    1        6.886  15.706   2.244  0.00  0.00    +0.249 C 
ATOM     34  O   LIG    1        6.271  16.710   1.921  0.00  0.00    -0.270 OA
ATOM     35  C   LIG    1        7.910  15.533   3.348  0.00  0.00    +0.048 C 
ATOM     36  C   LIG    1        8.378  16.424   4.245  0.00  0.00    +0.039 C 
ATOM     37  C   LIG    1        8.334  14.116   3.275  0.00  0.00    +0.008 A 
ATOM     38  C   LIG    1        9.231  13.332   3.977  0.00  0.00    +0.012 A 
ATOM     39  C   LIG    1        9.377  11.977   3.604  0.00  0.00    +0.024 A 
BRANCH  36  40
ATOM     40  C   LIG    1        8.030  17.798   4.416  0.00  0.00    +0.040 A 
ATOM     41  N   LIG    1        7.082  18.435   3.649  0.00  0.00    -0.361 N 
ATOM     42  H   LIG    1        6.554  18.011   2.893  0.00  0.00    +0.165 HD
ATOM     43  C   LIG    1        6.941  19.741   4.038  0.00  0.00    +0.083 A 
ATOM     44  C   LIG    1        7.814  19.969   5.072  0.00  0.00    +0.019 A 
ATOM     45  C   LIG    1        8.499  18.751   5.311  0.00  0.00    +0.027 A 
ENDBRANCH  36  40
ENDBRANCH  27  28
BRANCH  27  46
ATOM     46  C   LIG    1        9.042   9.068   3.310  0.00  0.00    +0.138 C 
BRANCH  46  47
ATOM     47  C   LIG    1       10.397   8.373   3.126  0.00  0.00    +0.175 C 
BRANCH  47  48
ATOM     48  O   LIG    1       10.655   7.510   4.232  0.00  0.00    -0.393 OA
ATOM     49  H   LIG    1       11.516   7.088   4.064  0.00  0.00    +0.209 HD
ENDBRANCH  47  48
ENDBRANCH  46  47
ENDBRANCH  27  46
ENDBRANCH   3  27
TORSDOF 10
