REMARK  Name = modded_pdb/CHEMBL3904509_modded_start_oxygen_with_ethanol.pdb
REMARK                            x       y       z     vdW  Elec       q    Type
REMARK                         _______ _______ _______ _____ _____    ______ ____
ROOT
ATOM      1  C   LIG    1        1.641   2.331  -5.128  0.00  0.00    +0.105 A 
ATOM      2  C   LIG    1        1.060   1.519  -4.228  0.00  0.00    +0.145 A 
ATOM      3  N   LIG    1        0.083   1.651  -3.346  0.00  0.00    -0.201 NA
ATOM      4  C   LIG    1       -0.462   2.807  -3.399  0.00  0.00    +0.323 A 
ATOM      5  N   LIG    1       -0.032   3.833  -4.193  0.00  0.00    -0.201 NA
ATOM      6  C   LIG    1        1.024   3.555  -5.036  0.00  0.00    +0.145 A 
ENDROOT
BRANCH   1   8
ATOM      7  C   LIG    1        3.486   0.925  -6.069  0.00  0.00    +0.287 C 
ATOM      8  N   LIG    1        2.771   2.010  -5.882  0.00  0.00    -0.196 NA
BRANCH   7   9
ATOM      9  N   LIG    1        4.629   0.942  -6.871  0.00  0.00    -0.269 N 
ATOM     10  H   LIG    1        4.817   0.063  -7.319  0.00  0.00    +0.157 HD
BRANCH   9  11
ATOM     11  C   LIG    1        5.659   1.933  -6.904  0.00  0.00    +0.043 A 
ATOM     12  C   LIG    1        6.919   1.791  -7.575  0.00  0.00    +0.005 A 
ATOM     13  C   LIG    1        7.877   2.829  -7.341  0.00  0.00    +0.011 A 
ATOM     14  C   LIG    1        7.597   4.005  -6.638  0.00  0.00    +0.013 A 
ATOM     15  C   LIG    1        6.338   4.205  -6.098  0.00  0.00    +0.057 A 
ATOM     16  C   LIG    1        5.420   3.156  -6.209  0.00  0.00    +0.036 A 
BRANCH  12  17
ATOM     17  C   LIG    1        7.350   0.706  -8.536  0.00  0.00    +0.002 A 
ATOM     18  C   LIG    1        6.965  -0.632  -8.482  0.00  0.00    +0.119 A 
ATOM     19  N   LIG    1        7.368  -1.625  -9.323  0.00  0.00    -0.263 NA
ATOM     20  C   LIG    1        8.241  -1.293 -10.292  0.00  0.00    +0.111 A 
ATOM     21  C   LIG    1        8.694  -0.006 -10.482  0.00  0.00    +0.020 A 
ATOM     22  C   LIG    1        8.243   0.985  -9.603  0.00  0.00    +0.011 A 
ENDBRANCH  12  17
BRANCH  15  23
ATOM     23  C   LIG    1        5.995   5.515  -5.425  0.00  0.00    +0.417 C 
ATOM     24  F   LIG    1        6.140   6.569  -6.279  0.00  0.00    -0.166 F 
ATOM     25  F   LIG    1        6.818   5.779  -4.373  0.00  0.00    -0.166 F 
ATOM     26  F   LIG    1        4.727   5.609  -4.941  0.00  0.00    -0.166 F 
ENDBRANCH  15  23
ENDBRANCH   9  11
ENDBRANCH   7   9
BRANCH   7  27
ATOM     27  O   LIG    1        3.328  -0.354  -5.614  0.00  0.00    -0.463 OA
BRANCH  27  28
ATOM     28  C   LIG    1        2.516  -1.017  -4.577  0.00  0.00    +0.260 C 
BRANCH  28  29
ATOM     29  C   LIG    1        2.882  -0.573  -3.115  0.00  0.00    +0.197 C 
BRANCH  29  30
ATOM     30  O   LIG    1        4.189  -0.988  -2.777  0.00  0.00    -0.392 OA
ATOM     31  H   LIG    1        4.761  -0.253  -3.074  0.00  0.00    +0.210 HD
ENDBRANCH  29  30
ENDBRANCH  28  29
ENDBRANCH  27  28
ENDBRANCH   7  27
ENDBRANCH   1   8
BRANCH   4  32
ATOM     32  O   LIG    1       -1.487   3.076  -2.494  0.00  0.00    -0.424 OA
BRANCH  32  33
ATOM     33  C   LIG    1       -2.232   1.988  -2.054  0.00  0.00    +0.132 A 
ATOM     34  C   LIG    1       -2.716   2.060  -0.750  0.00  0.00    +0.047 A 
ATOM     35  C   LIG    1       -3.612   1.097  -0.270  0.00  0.00    +0.012 A 
ATOM     36  C   LIG    1       -4.021   0.028  -1.079  0.00  0.00    -0.013 A 
ATOM     37  C   LIG    1       -3.501  -0.066  -2.376  0.00  0.00    +0.012 A 
ATOM     38  C   LIG    1       -2.618   0.908  -2.863  0.00  0.00    +0.047 A 
BRANCH  36  39
ATOM     39  C   LIG    1       -4.995  -0.947  -0.615  0.00  0.00    +0.046 A 
ATOM     40  C   LIG    1       -5.159  -1.385   0.689  0.00  0.00    +0.165 A 
ATOM     41  N   LIG    1       -4.520  -1.077   1.863  0.00  0.00    -0.213 NA
ATOM     42  C   LIG    1       -4.880  -1.696   2.974  0.00  0.00    +0.125 A 
ATOM     43  C   LIG    1       -5.996  -2.719   2.965  0.00  0.00    +0.063 A 
ATOM     44  C   LIG    1       -6.592  -2.976   1.796  0.00  0.00    +0.118 A 
ATOM     45  N   LIG    1       -6.188  -2.326   0.645  0.00  0.00    -0.221 N 
ATOM     46  N   LIG    1       -6.691  -2.490  -0.600  0.00  0.00    -0.173 NA
ATOM     47  C   LIG    1       -5.965  -1.664  -1.351  0.00  0.00    +0.145 A 
BRANCH  42  48
ATOM     48  N   LIG    1       -4.179  -1.361   4.135  0.00  0.00    -0.315 N 
ATOM     49  C   LIG    1       -4.479  -0.035   4.641  0.00  0.00    +0.108 C 
ATOM     50  C   LIG    1       -5.283  -0.702   5.757  0.00  0.00    +0.038 C 
ATOM     51  C   LIG    1       -4.492  -1.959   5.407  0.00  0.00    +0.108 C 
ENDBRANCH  42  48
ENDBRANCH  36  39
ENDBRANCH  32  33
ENDBRANCH   4  32
TORSDOF 13
