REMARK  Name = modded_pdb/CHEMBL2037208_nitrogen_modded_with_ethanol_version_1.pdb
REMARK                            x       y       z     vdW  Elec       q    Type
REMARK                         _______ _______ _______ _____ _____    ______ ____
ROOT
ATOM      1  C   LIG    1        1.885  -6.328   0.837  0.00  0.00    +0.038 A 
ATOM      2  C   LIG    1        0.835  -6.666   1.727  0.00  0.00    +0.046 A 
ATOM      3  C   LIG    1        0.391  -7.987   1.945  0.00  0.00    +0.033 A 
ATOM      4  C   LIG    1        1.078  -9.018   1.311  0.00  0.00    +0.023 A 
ATOM      5  C   LIG    1        2.150  -8.733   0.470  0.00  0.00    +0.004 A 
ATOM      6  C   LIG    1        2.540  -7.408   0.231  0.00  0.00    +0.023 A 
ENDROOT
BRANCH   1   8
ATOM      7  C   LIG    1        3.379  -4.568  -0.197  0.00  0.00    +0.251 C 
ATOM      8  N   LIG    1        2.192  -4.925   0.509  0.00  0.00    -0.265 N 
ATOM      9  O   LIG    1        4.323  -5.339  -0.389  0.00  0.00    -0.270 OA
BRANCH   7  12
ATOM     10  C   LIG    1        4.576  -1.950  -2.701  0.00  0.00    +0.056 A 
ATOM     11  C   LIG    1        4.246  -3.170  -2.074  0.00  0.00    +0.025 A 
ATOM     12  C   LIG    1        3.597  -3.209  -0.818  0.00  0.00    +0.038 A 
ATOM     13  C   LIG    1        3.348  -1.991  -0.181  0.00  0.00    +0.013 A 
ATOM     14  C   LIG    1        3.561  -0.774  -0.837  0.00  0.00    +0.001 A 
ATOM     15  C   LIG    1        4.169  -0.754  -2.092  0.00  0.00    +0.012 A 
BRANCH  10  17
ATOM     16  F   LIG    1        5.641  -0.668  -4.435  0.00  0.00    -0.166 F 
ATOM     17  C   LIG    1        5.392  -1.929  -3.979  0.00  0.00    +0.417 C 
ATOM     18  F   LIG    1        6.615  -2.513  -3.839  0.00  0.00    -0.166 F 
ATOM     19  F   LIG    1        4.774  -2.580  -4.998  0.00  0.00    -0.166 F 
ENDBRANCH  10  17
ENDBRANCH   7  12
BRANCH   8  20
ATOM     20  C   LIG    1        1.088  -3.976   0.755  0.00  0.00    +0.141 C 
BRANCH  20  21
ATOM     21  C   LIG    1        0.011  -4.013  -0.324  0.00  0.00    +0.175 C 
BRANCH  21  22
ATOM     22  O   LIG    1       -0.984  -3.042  -0.013  0.00  0.00    -0.393 OA
ATOM     23  H   LIG    1       -1.565  -2.970  -0.790  0.00  0.00    +0.209 HD
ENDBRANCH  21  22
ENDBRANCH  20  21
ENDBRANCH   8  20
ENDBRANCH   1   8
BRANCH   3  24
ATOM     24  N   LIG    1       -0.696  -8.210   2.820  0.00  0.00    -0.314 N 
ATOM     25  H   LIG    1       -1.385  -7.464   2.810  0.00  0.00    +0.152 HD
BRANCH  24  26
ATOM     26  C   LIG    1       -1.086  -9.368   3.525  0.00  0.00    +0.033 A 
ATOM     27  C   LIG    1       -0.142 -10.284   4.004  0.00  0.00    +0.047 A 
ATOM     28  C   LIG    1       -0.594 -11.427   4.636  0.00  0.00    +0.043 A 
ATOM     29  N   LIG    1        0.202 -12.438   5.162  0.00  0.00    -0.281 N 
ATOM     30  H   LIG    1        1.209 -12.468   5.153  0.00  0.00    +0.155 HD
ATOM     31  C   LIG    1       -0.559 -13.422   5.747  0.00  0.00    +0.249 C 
ATOM     32  O   LIG    1       -0.119 -14.398   6.334  0.00  0.00    -0.270 OA
ATOM     33  C   LIG    1       -1.996 -12.987   5.564  0.00  0.00    +0.048 C 
ATOM     34  C   LIG    1       -3.122 -13.613   5.958  0.00  0.00    +0.039 C 
ATOM     35  C   LIG    1       -1.945 -11.708   4.833  0.00  0.00    +0.008 A 
ATOM     36  C   LIG    1       -2.899 -10.819   4.368  0.00  0.00    +0.012 A 
ATOM     37  C   LIG    1       -2.460  -9.653   3.709  0.00  0.00    +0.024 A 
BRANCH  34  38
ATOM     38  C   LIG    1       -3.215 -14.846   6.662  0.00  0.00    +0.040 A 
ATOM     39  N   LIG    1       -2.241 -15.249   7.548  0.00  0.00    -0.361 N 
ATOM     40  H   LIG    1       -1.354 -14.776   7.690  0.00  0.00    +0.165 HD
ATOM     41  C   LIG    1       -2.573 -16.456   8.105  0.00  0.00    +0.083 A 
ATOM     42  C   LIG    1       -3.785 -16.840   7.585  0.00  0.00    +0.019 A 
ATOM     43  C   LIG    1       -4.199 -15.819   6.693  0.00  0.00    +0.027 A 
ENDBRANCH  34  38
ENDBRANCH  24  26
ENDBRANCH   3  24
TORSDOF 9
