REMARK  Name = modded_pdb/CHEMBL2037208_nitrogen_modded_with_ethanol_version_2.pdb
REMARK                            x       y       z     vdW  Elec       q    Type
REMARK                         _______ _______ _______ _____ _____    ______ ____
ROOT
ATOM      1  N   LIG    1        4.589  -8.000   3.955  0.00  0.00    -0.298 N 
ENDROOT
BRANCH   1   2
ATOM      2  C   LIG    1        3.565  -8.212   2.970  0.00  0.00    +0.036 A 
ATOM      3  C   LIG    1        3.126  -7.164   2.137  0.00  0.00    +0.047 A 
ATOM      4  C   LIG    1        2.060  -7.377   1.275  0.00  0.00    +0.043 A 
ATOM      5  N   LIG    1        1.455  -6.437   0.448  0.00  0.00    -0.281 N 
ATOM      6  H   LIG    1        1.711  -5.465   0.371  0.00  0.00    +0.155 HD
ATOM      7  C   LIG    1        0.407  -6.988  -0.286  0.00  0.00    +0.249 C 
ATOM      8  O   LIG    1       -0.270  -6.423  -1.093  0.00  0.00    -0.270 OA
ATOM      9  C   LIG    1        0.366  -8.446   0.137  0.00  0.00    +0.048 C 
ATOM     10  C   LIG    1       -0.445  -9.438  -0.265  0.00  0.00    +0.039 C 
ATOM     11  C   LIG    1        1.432  -8.614   1.139  0.00  0.00    +0.008 A 
ATOM     12  C   LIG    1        1.874  -9.683   1.882  0.00  0.00    +0.012 A 
ATOM     13  C   LIG    1        2.938  -9.475   2.777  0.00  0.00    +0.024 A 
BRANCH  10  14
ATOM     14  C   LIG    1       -1.503  -9.371  -1.209  0.00  0.00    +0.040 A 
ATOM     15  N   LIG    1       -1.503  -8.466  -2.245  0.00  0.00    -0.361 N 
ATOM     16  H   LIG    1       -0.819  -7.728  -2.377  0.00  0.00    +0.165 HD
ATOM     17  C   LIG    1       -2.619  -8.639  -3.023  0.00  0.00    +0.083 A 
ATOM     18  C   LIG    1       -3.356  -9.669  -2.486  0.00  0.00    +0.019 A 
ATOM     19  C   LIG    1       -2.645 -10.140  -1.356  0.00  0.00    +0.027 A 
ENDBRANCH  10  14
ENDBRANCH   1   2
BRANCH   1  22
ATOM     20  C   LIG    1        6.440  -5.333   5.950  0.00  0.00    +0.035 A 
ATOM     21  C   LIG    1        6.146  -6.537   5.273  0.00  0.00    +0.046 A 
ATOM     22  C   LIG    1        4.897  -6.783   4.649  0.00  0.00    +0.036 A 
ATOM     23  C   LIG    1        3.950  -5.748   4.751  0.00  0.00    +0.023 A 
ATOM     24  C   LIG    1        4.236  -4.536   5.385  0.00  0.00    +0.004 A 
ATOM     25  C   LIG    1        5.472  -4.334   5.988  0.00  0.00    +0.023 A 
BRANCH  20  27
ATOM     26  C   LIG    1        8.236  -4.034   7.104  0.00  0.00    +0.248 C 
ATOM     27  N   LIG    1        7.706  -5.202   6.580  0.00  0.00    -0.281 N 
ATOM     28  H   LIG    1        8.302  -6.018   6.565  0.00  0.00    +0.155 HD
ATOM     29  O   LIG    1        7.759  -2.908   7.018  0.00  0.00    -0.270 OA
BRANCH  26  32
ATOM     30  C   LIG    1       11.697  -3.075   8.242  0.00  0.00    +0.056 A 
ATOM     31  C   LIG    1       10.437  -3.070   7.629  0.00  0.00    +0.025 A 
ATOM     32  C   LIG    1        9.559  -4.152   7.771  0.00  0.00    +0.038 A 
ATOM     33  C   LIG    1        9.927  -5.245   8.562  0.00  0.00    +0.013 A 
ATOM     34  C   LIG    1       11.179  -5.258   9.187  0.00  0.00    +0.001 A 
ATOM     35  C   LIG    1       12.061  -4.181   9.023  0.00  0.00    +0.012 A 
BRANCH  30  37
ATOM     36  F   LIG    1       13.814  -2.001   8.629  0.00  0.00    -0.166 F 
ATOM     37  C   LIG    1       12.600  -1.891   8.026  0.00  0.00    +0.417 C 
ATOM     38  F   LIG    1       12.853  -1.687   6.703  0.00  0.00    -0.166 F 
ATOM     39  F   LIG    1       12.054  -0.733   8.484  0.00  0.00    -0.166 F 
ENDBRANCH  30  37
ENDBRANCH  26  32
ENDBRANCH  20  27
ENDBRANCH   1  22
BRANCH   1  40
ATOM     40  C   LIG    1        5.248  -9.228   4.470  0.00  0.00    +0.138 C 
BRANCH  40  41
ATOM     41  C   LIG    1        4.515  -9.842   5.675  0.00  0.00    +0.175 C 
BRANCH  41  42
ATOM     42  O   LIG    1        5.214 -11.007   6.113  0.00  0.00    -0.393 OA
ATOM     43  H   LIG    1        4.714 -11.378   6.863  0.00  0.00    +0.209 HD
ENDBRANCH  41  42
ENDBRANCH  40  41
ENDBRANCH   1  40
TORSDOF 9
