REMARK  Name = modded_pdb/CHEMBL2037222_nitrogen_modded_with_ethanol_version_1.pdb
REMARK                            x       y       z     vdW  Elec       q    Type
REMARK                         _______ _______ _______ _____ _____    ______ ____
ROOT
ATOM      1  C   LIG    1        7.418   1.295  -8.276  0.00  0.00    +0.038 A 
ATOM      2  C   LIG    1        7.973   1.023  -9.533  0.00  0.00    +0.046 A 
ATOM      3  C   LIG    1        8.449   2.061 -10.347  0.00  0.00    +0.033 A 
ATOM      4  C   LIG    1        8.296   3.385  -9.903  0.00  0.00    +0.023 A 
ATOM      5  C   LIG    1        7.746   3.665  -8.655  0.00  0.00    +0.004 A 
ATOM      6  C   LIG    1        7.318   2.625  -7.842  0.00  0.00    +0.023 A 
ENDROOT
BRANCH   1   8
ATOM      7  C   LIG    1        5.896  -0.589  -7.908  0.00  0.00    +0.251 C 
ATOM      8  N   LIG    1        6.949   0.223  -7.425  0.00  0.00    -0.265 N 
ATOM      9  O   LIG    1        5.393  -0.435  -9.025  0.00  0.00    -0.270 OA
BRANCH   7  14
ATOM     10  C   LIG    1        3.213  -3.010  -6.553  0.00  0.00    +0.031 A 
ATOM     11  C   LIG    1        4.016  -3.798  -5.714  0.00  0.00    +0.035 A 
ATOM     12  C   LIG    1        5.375  -3.551  -5.530  0.00  0.00    +0.057 A 
ATOM     13  C   LIG    1        5.971  -2.499  -6.226  0.00  0.00    +0.025 A 
ATOM     14  C   LIG    1        5.252  -1.673  -7.076  0.00  0.00    +0.040 A 
ATOM     15  C   LIG    1        3.881  -1.970  -7.251  0.00  0.00    +0.036 A 
BRANCH  10  20
ATOM     16  C   LIG    1       -1.575  -2.277  -5.602  0.00  0.00    +0.105 C 
ATOM     17  N   LIG    1       -0.240  -1.768  -5.286  0.00  0.00    -0.302 NA
ATOM     18  C   LIG    1        0.448  -1.272  -6.506  0.00  0.00    +0.103 C 
ATOM     19  C   LIG    1        0.973  -2.378  -7.457  0.00  0.00    +0.120 C 
ATOM     20  N   LIG    1        1.855  -3.316  -6.724  0.00  0.00    -0.327 N 
ATOM     21  C   LIG    1        1.109  -3.911  -5.581  0.00  0.00    +0.120 C 
ATOM     22  C   LIG    1        0.591  -2.802  -4.632  0.00  0.00    +0.103 C 
ENDBRANCH  10  20
BRANCH  12  23
ATOM     23  C   LIG    1        6.177  -4.441  -4.629  0.00  0.00    +0.417 C 
ATOM     24  F   LIG    1        6.168  -5.744  -5.023  0.00  0.00    -0.166 F 
ATOM     25  F   LIG    1        5.739  -4.433  -3.342  0.00  0.00    -0.166 F 
ATOM     26  F   LIG    1        7.494  -4.084  -4.569  0.00  0.00    -0.166 F 
ENDBRANCH  12  23
ENDBRANCH   7  14
BRANCH   8  27
ATOM     27  C   LIG    1        7.544   0.211  -6.066  0.00  0.00    +0.141 C 
BRANCH  27  28
ATOM     28  C   LIG    1        8.835  -0.626  -5.968  0.00  0.00    +0.175 C 
BRANCH  28  29
ATOM     29  O   LIG    1        9.372  -0.527  -4.650  0.00  0.00    -0.393 OA
ATOM     30  H   LIG    1       10.094  -1.177  -4.585  0.00  0.00    +0.209 HD
ENDBRANCH  28  29
ENDBRANCH  27  28
ENDBRANCH   8  27
ENDBRANCH   1   8
BRANCH   3  31
ATOM     31  N   LIG    1        9.117   1.764 -11.566  0.00  0.00    -0.314 N 
ATOM     32  H   LIG    1        8.555   1.165 -12.161  0.00  0.00    +0.152 HD
BRANCH  31  33
ATOM     33  C   LIG    1       10.107   2.536 -12.209  0.00  0.00    +0.033 A 
ATOM     34  C   LIG    1       10.959   3.349 -11.452  0.00  0.00    +0.047 A 
ATOM     35  C   LIG    1       11.794   4.219 -12.114  0.00  0.00    +0.043 A 
ATOM     36  N   LIG    1       12.532   5.216 -11.501  0.00  0.00    -0.281 N 
ATOM     37  H   LIG    1       12.514   5.443 -10.519  0.00  0.00    +0.155 HD
ATOM     38  C   LIG    1       13.141   6.022 -12.433  0.00  0.00    +0.249 C 
ATOM     39  O   LIG    1       13.696   7.074 -12.183  0.00  0.00    -0.270 OA
ATOM     40  C   LIG    1       12.867   5.370 -13.781  0.00  0.00    +0.048 C 
ATOM     41  C   LIG    1       13.403   5.673 -14.976  0.00  0.00    +0.039 C 
ATOM     42  C   LIG    1       11.921   4.266 -13.503  0.00  0.00    +0.008 A 
ATOM     43  C   LIG    1       11.160   3.402 -14.271  0.00  0.00    +0.012 A 
ATOM     44  C   LIG    1       10.247   2.542 -13.616  0.00  0.00    +0.024 A 
BRANCH  41  45
ATOM     45  C   LIG    1       14.361   6.706 -15.233  0.00  0.00    +0.044 A 
ATOM     46  C   LIG    1       15.395   6.864 -16.142  0.00  0.00    -0.012 A 
ATOM     47  C   LIG    1       15.773   5.907 -17.230  0.00  0.00    +0.047 C 
ATOM     48  C   LIG    1       16.046   8.126 -15.855  0.00  0.00    +0.082 A 
ATOM     49  C   LIG    1       15.296   8.729 -14.858  0.00  0.00    +0.028 A 
ATOM     50  C   LIG    1       15.429  10.035 -14.158  0.00  0.00    +0.064 C 
ATOM     51  N   LIG    1       14.291   7.873 -14.517  0.00  0.00    -0.358 N 
ATOM     52  H   LIG    1       13.662   8.042 -13.740  0.00  0.00    +0.166 HD
BRANCH  48  53
ATOM     53  C   LIG    1       17.232   8.737 -16.456  0.00  0.00    +0.339 C 
ATOM     54  O   LIG    1       17.391   9.943 -16.576  0.00  0.00    -0.245 OA
BRANCH  53  55
ATOM     55  O   LIG    1       18.190   7.853 -16.836  0.00  0.00    -0.477 OA
ATOM     56  H   LIG    1       17.994   6.959 -16.502  0.00  0.00    +0.295 HD
ENDBRANCH  53  55
ENDBRANCH  48  53
ENDBRANCH  41  45
ENDBRANCH  31  33
ENDBRANCH   3  31
TORSDOF 12
