REMARK  Name = modded_pdb/CHEMBL2037213_modded_start_oxygen_with_ethanol.pdb
REMARK                            x       y       z     vdW  Elec       q    Type
REMARK                         _______ _______ _______ _____ _____    ______ ____
ROOT
ATOM      1  C   LIG    1        2.105  -7.214  -8.312  0.00  0.00    +0.035 A 
ATOM      2  C   LIG    1        1.883  -8.344  -7.515  0.00  0.00    +0.046 A 
ATOM      3  C   LIG    1        2.168  -9.636  -8.001  0.00  0.00    +0.033 A 
ATOM      4  C   LIG    1        2.713  -9.767  -9.283  0.00  0.00    +0.023 A 
ATOM      5  C   LIG    1        2.928  -8.649 -10.085  0.00  0.00    +0.004 A 
ATOM      6  C   LIG    1        2.607  -7.381  -9.606  0.00  0.00    +0.023 A 
ENDROOT
BRANCH   1   8
ATOM      7  C   LIG    1        1.707  -5.414  -6.619  0.00  0.00    +0.248 C 
ATOM      8  N   LIG    1        1.830  -5.890  -7.913  0.00  0.00    -0.281 N 
ATOM      9  H   LIG    1        1.897  -5.199  -8.648  0.00  0.00    +0.155 HD
ATOM     10  O   LIG    1        1.925  -6.044  -5.593  0.00  0.00    -0.270 OA
BRANCH   7  15
ATOM     11  C   LIG    1        1.654  -1.768  -5.482  0.00  0.00    +0.031 A 
ATOM     12  C   LIG    1        0.676  -1.273  -6.357  0.00  0.00    +0.035 A 
ATOM     13  C   LIG    1        0.013  -2.087  -7.287  0.00  0.00    +0.057 A 
ATOM     14  C   LIG    1        0.347  -3.442  -7.366  0.00  0.00    +0.025 A 
ATOM     15  C   LIG    1        1.338  -3.967  -6.530  0.00  0.00    +0.039 A 
ATOM     16  C   LIG    1        1.965  -3.139  -5.585  0.00  0.00    +0.036 A 
BRANCH  11  20
ATOM     17  C   LIG    1        3.711   1.045  -3.007  0.00  0.00    +0.121 C 
ATOM     18  C   LIG    1        4.293  -0.349  -3.255  0.00  0.00    +0.050 C 
ATOM     19  C   LIG    1        3.736  -0.967  -4.543  0.00  0.00    +0.107 C 
ATOM     20  N   LIG    1        2.267  -0.953  -4.511  0.00  0.00    -0.330 N 
ATOM     21  C   LIG    1        1.645   0.353  -4.241  0.00  0.00    +0.107 C 
ATOM     22  C   LIG    1        2.188   0.934  -2.942  0.00  0.00    +0.050 C 
BRANCH  17  23
ATOM     23  O   LIG    1        4.154   1.901  -4.069  0.00  0.00    -0.374 OA
BRANCH  23  24
ATOM     24  C   LIG    1        3.831   3.276  -3.873  0.00  0.00    +0.188 C 
BRANCH  24  25
ATOM     25  C   LIG    1        4.378   4.102  -5.030  0.00  0.00    +0.184 C 
BRANCH  25  26
ATOM     26  O   LIG    1        4.025   5.467  -4.843  0.00  0.00    -0.393 OA
ATOM     27  H   LIG    1        4.408   5.966  -5.585  0.00  0.00    +0.209 HD
ENDBRANCH  25  26
ENDBRANCH  24  25
ENDBRANCH  23  24
ENDBRANCH  17  23
ENDBRANCH  11  20
BRANCH  13  28
ATOM     28  C   LIG    1       -1.040  -1.484  -8.171  0.00  0.00    +0.417 C 
ATOM     29  F   LIG    1       -0.558  -0.478  -8.952  0.00  0.00    -0.166 F 
ATOM     30  F   LIG    1       -2.082  -0.954  -7.473  0.00  0.00    -0.166 F 
ATOM     31  F   LIG    1       -1.592  -2.387  -9.031  0.00  0.00    -0.166 F 
ENDBRANCH  13  28
ENDBRANCH   7  15
ENDBRANCH   1   8
BRANCH   3  32
ATOM     32  N   LIG    1        1.948 -10.758  -7.180  0.00  0.00    -0.314 N 
ATOM     33  H   LIG    1        1.164 -10.654  -6.545  0.00  0.00    +0.152 HD
BRANCH  32  34
ATOM     34  C   LIG    1        2.591 -12.011  -7.130  0.00  0.00    +0.033 A 
ATOM     35  C   LIG    1        1.851 -13.137  -6.761  0.00  0.00    +0.047 A 
ATOM     36  C   LIG    1        2.493 -14.363  -6.724  0.00  0.00    +0.043 A 
ATOM     37  N   LIG    1        1.914 -15.562  -6.354  0.00  0.00    -0.281 N 
ATOM     38  H   LIG    1        0.958 -15.697  -6.064  0.00  0.00    +0.155 HD
ATOM     39  C   LIG    1        2.825 -16.597  -6.389  0.00  0.00    +0.249 C 
ATOM     40  O   LIG    1        2.576 -17.748  -6.089  0.00  0.00    -0.270 OA
ATOM     41  C   LIG    1        4.130 -15.985  -6.865  0.00  0.00    +0.048 C 
ATOM     42  C   LIG    1        5.320 -16.567  -7.091  0.00  0.00    +0.039 C 
ATOM     43  C   LIG    1        3.841 -14.540  -7.051  0.00  0.00    +0.008 A 
ATOM     44  C   LIG    1        4.585 -13.442  -7.440  0.00  0.00    +0.012 A 
ATOM     45  C   LIG    1        3.949 -12.184  -7.485  0.00  0.00    +0.024 A 
BRANCH  42  46
ATOM     46  C   LIG    1        5.690 -17.936  -6.955  0.00  0.00    +0.040 A 
ATOM     47  N   LIG    1        4.810 -18.912  -6.541  0.00  0.00    -0.361 N 
ATOM     48  H   LIG    1        3.836 -18.761  -6.290  0.00  0.00    +0.165 HD
ATOM     49  C   LIG    1        5.413 -20.137  -6.501  0.00  0.00    +0.083 A 
ATOM     50  C   LIG    1        6.719 -19.971  -6.894  0.00  0.00    +0.019 A 
ATOM     51  C   LIG    1        6.894 -18.593  -7.177  0.00  0.00    +0.027 A 
ENDBRANCH  42  46
ENDBRANCH  32  34
ENDBRANCH   3  32
TORSDOF 11
