REMARK  Name = modded_pdb/CHEMBL2037208_nitrogen_modded_with_ethanol_version_3.pdb
REMARK                            x       y       z     vdW  Elec       q    Type
REMARK                         _______ _______ _______ _____ _____    ______ ____
ROOT
ATOM      1  N   LIG    1        3.523  -7.512   2.662  0.00  0.00    -0.314 N 
ATOM      2  H   LIG    1        3.418  -6.950   3.505  0.00  0.00    +0.152 HD
ENDROOT
BRANCH   1   3
ATOM      3  C   LIG    1        2.269  -7.703   2.030  0.00  0.00    +0.033 A 
ATOM      4  C   LIG    1        1.663  -8.965   1.995  0.00  0.00    +0.047 A 
ATOM      5  C   LIG    1        0.463  -9.115   1.332  0.00  0.00    +0.046 A 
ATOM      6  N   LIG    1       -0.256 -10.298   1.124  0.00  0.00    -0.265 N 
ATOM      7  C   LIG    1       -1.416 -10.060   0.393  0.00  0.00    +0.252 C 
ATOM      8  O   LIG    1       -2.248 -10.877   0.079  0.00  0.00    -0.270 OA
ATOM      9  C   LIG    1       -1.405  -8.572   0.104  0.00  0.00    +0.048 C 
ATOM     10  C   LIG    1       -2.271  -7.842  -0.617  0.00  0.00    +0.039 C 
ATOM     11  C   LIG    1       -0.188  -8.033   0.732  0.00  0.00    +0.009 A 
ATOM     12  C   LIG    1        0.371  -6.766   0.793  0.00  0.00    +0.012 A 
ATOM     13  C   LIG    1        1.601  -6.605   1.452  0.00  0.00    +0.024 A 
BRANCH  10  14
ATOM     14  C   LIG    1       -3.429  -8.307  -1.293  0.00  0.00    +0.040 A 
ATOM     15  N   LIG    1       -4.168  -9.368  -0.822  0.00  0.00    -0.361 N 
ATOM     16  H   LIG    1       -3.912  -9.952  -0.033  0.00  0.00    +0.165 HD
ATOM     17  C   LIG    1       -5.227  -9.616  -1.655  0.00  0.00    +0.083 A 
ATOM     18  C   LIG    1       -5.193  -8.688  -2.667  0.00  0.00    +0.019 A 
ATOM     19  C   LIG    1       -4.074  -7.852  -2.429  0.00  0.00    +0.027 A 
ENDBRANCH  10  14
BRANCH   6  20
ATOM     20  C   LIG    1        0.165 -11.625   1.529  0.00  0.00    +0.142 C 
BRANCH  20  21
ATOM     21  C   LIG    1        1.052 -12.304   0.478  0.00  0.00    +0.175 C 
BRANCH  21  22
ATOM     22  O   LIG    1        2.257 -11.576   0.230  0.00  0.00    -0.393 OA
ATOM     23  H   LIG    1        1.971 -10.722  -0.145  0.00  0.00    +0.209 HD
ENDBRANCH  21  22
ENDBRANCH  20  21
ENDBRANCH   6  20
ENDBRANCH   1   3
BRANCH   1  26
ATOM     24  C   LIG    1        5.777 -10.396   1.840  0.00  0.00    +0.035 A 
ATOM     25  C   LIG    1        4.760  -9.437   1.770  0.00  0.00    +0.046 A 
ATOM     26  C   LIG    1        4.548  -8.484   2.781  0.00  0.00    +0.033 A 
ATOM     27  C   LIG    1        5.424  -8.474   3.867  0.00  0.00    +0.023 A 
ATOM     28  C   LIG    1        6.449  -9.425   3.952  0.00  0.00    +0.004 A 
ATOM     29  C   LIG    1        6.628 -10.381   2.942  0.00  0.00    +0.023 A 
BRANCH  24  31
ATOM     30  C   LIG    1        6.901 -12.134   0.422  0.00  0.00    +0.248 C 
ATOM     31  N   LIG    1        5.839 -11.321   0.773  0.00  0.00    -0.281 N 
ATOM     32  H   LIG    1        5.047 -11.296   0.141  0.00  0.00    +0.155 HD
ATOM     33  O   LIG    1        7.997 -12.164   0.968  0.00  0.00    -0.270 OA
BRANCH  30  36
ATOM     34  C   LIG    1        7.633 -14.140  -2.735  0.00  0.00    +0.056 A 
ATOM     35  C   LIG    1        7.779 -13.305  -1.610  0.00  0.00    +0.025 A 
ATOM     36  C   LIG    1        6.680 -12.995  -0.789  0.00  0.00    +0.038 A 
ATOM     37  C   LIG    1        5.422 -13.526  -1.106  0.00  0.00    +0.013 A 
ATOM     38  C   LIG    1        5.275 -14.381  -2.203  0.00  0.00    +0.001 A 
ATOM     39  C   LIG    1        6.373 -14.694  -3.006  0.00  0.00    +0.012 A 
BRANCH  34  41
ATOM     40  F   LIG    1        8.501 -15.229  -4.695  0.00  0.00    -0.166 F 
ATOM     41  C   LIG    1        8.808 -14.414  -3.645  0.00  0.00    +0.417 C 
ATOM     42  F   LIG    1        9.308 -13.275  -4.200  0.00  0.00    -0.166 F 
ATOM     43  F   LIG    1        9.849 -15.011  -3.004  0.00  0.00    -0.166 F 
ENDBRANCH  34  41
ENDBRANCH  30  36
ENDBRANCH  24  31
ENDBRANCH   1  26
TORSDOF 9
