REMARK  Name = modded_pdb/CHEMBL2037209_nitrogen_modded_with_ethanol_version_1.pdb
REMARK                            x       y       z     vdW  Elec       q    Type
REMARK                         _______ _______ _______ _____ _____    ______ ____
ROOT
ATOM      1  C   LIG    1        6.348   8.329  -0.110  0.00  0.00    +0.038 A 
ATOM      2  C   LIG    1        7.421   9.000   0.494  0.00  0.00    +0.046 A 
ATOM      3  C   LIG    1        7.603  10.373   0.327  0.00  0.00    +0.033 A 
ATOM      4  C   LIG    1        6.660  11.064  -0.450  0.00  0.00    +0.023 A 
ATOM      5  C   LIG    1        5.594  10.396  -1.071  0.00  0.00    +0.004 A 
ATOM      6  C   LIG    1        5.453   9.017  -0.930  0.00  0.00    +0.023 A 
ENDROOT
BRANCH   1   8
ATOM      7  C   LIG    1        4.995   6.400   0.761  0.00  0.00    +0.251 C 
ATOM      8  N   LIG    1        6.169   6.964   0.211  0.00  0.00    -0.265 N 
ATOM      9  O   LIG    1        4.817   5.177   0.740  0.00  0.00    -0.270 OA
BRANCH   7  14
ATOM     10  C   LIG    1        1.606   7.353   2.311  0.00  0.00    +0.049 A 
ATOM     11  C   LIG    1        1.708   8.750   2.400  0.00  0.00    +0.038 A 
ATOM     12  C   LIG    1        2.901   9.391   2.082  0.00  0.00    +0.057 A 
ATOM     13  C   LIG    1        3.988   8.615   1.658  0.00  0.00    +0.025 A 
ATOM     14  C   LIG    1        3.898   7.239   1.416  0.00  0.00    +0.040 A 
ATOM     15  C   LIG    1        2.702   6.605   1.819  0.00  0.00    +0.039 A 
BRANCH  10  20
ATOM     16  C   LIG    1       -2.900   6.533   4.298  0.00  0.00    +0.067 C 
ATOM     17  C   LIG    1       -1.586   6.373   3.642  0.00  0.00    +0.056 A 
ATOM     18  N   LIG    1       -1.034   5.141   3.422  0.00  0.00    -0.241 NA
ATOM     19  C   LIG    1        0.138   5.378   2.871  0.00  0.00    +0.204 A 
ATOM     20  N   LIG    1        0.404   6.724   2.751  0.00  0.00    -0.306 N 
ATOM     21  C   LIG    1       -0.742   7.358   3.185  0.00  0.00    +0.115 A 
ENDBRANCH  10  20
BRANCH  12  22
ATOM     22  C   LIG    1        3.071  10.883   2.244  0.00  0.00    +0.418 C 
ATOM     23  F   LIG    1        3.765  11.193   3.371  0.00  0.00    -0.166 F 
ATOM     24  F   LIG    1        1.892  11.560   2.325  0.00  0.00    -0.166 F 
ATOM     25  F   LIG    1        3.751  11.454   1.211  0.00  0.00    -0.166 F 
ENDBRANCH  12  22
ENDBRANCH   7  14
BRANCH   8  26
ATOM     26  C   LIG    1        7.199   6.096  -0.408  0.00  0.00    +0.141 C 
BRANCH  26  27
ATOM     27  C   LIG    1        7.899   5.109   0.524  0.00  0.00    +0.175 C 
BRANCH  27  28
ATOM     28  O   LIG    1        8.608   5.797   1.555  0.00  0.00    -0.393 OA
ATOM     29  H   LIG    1        9.559   5.692   1.376  0.00  0.00    +0.209 HD
ENDBRANCH  27  28
ENDBRANCH  26  27
ENDBRANCH   8  26
ENDBRANCH   1   8
BRANCH   3  30
ATOM     30  N   LIG    1        8.636  11.108   0.951  0.00  0.00    -0.314 N 
ATOM     31  H   LIG    1        9.032  11.791   0.313  0.00  0.00    +0.152 HD
BRANCH  30  32
ATOM     32  C   LIG    1        9.478  10.790   2.040  0.00  0.00    +0.033 A 
ATOM     33  C   LIG    1       10.759  11.372   2.125  0.00  0.00    +0.047 A 
ATOM     34  C   LIG    1       11.555  11.033   3.203  0.00  0.00    +0.043 A 
ATOM     35  N   LIG    1       12.885  11.460   3.479  0.00  0.00    -0.281 N 
ATOM     36  H   LIG    1       13.415  12.081   2.874  0.00  0.00    +0.155 HD
ATOM     37  C   LIG    1       13.415  10.890   4.610  0.00  0.00    +0.249 C 
ATOM     38  O   LIG    1       14.548  10.990   5.022  0.00  0.00    -0.270 OA
ATOM     39  C   LIG    1       12.242  10.053   5.159  0.00  0.00    +0.048 C 
ATOM     40  C   LIG    1       12.156   9.331   6.312  0.00  0.00    +0.039 C 
ATOM     41  C   LIG    1       11.147  10.166   4.202  0.00  0.00    +0.008 A 
ATOM     42  C   LIG    1        9.882   9.589   4.148  0.00  0.00    +0.012 A 
ATOM     43  C   LIG    1        9.057   9.928   3.073  0.00  0.00    +0.024 A 
BRANCH  40  44
ATOM     44  C   LIG    1       13.175   9.173   7.281  0.00  0.00    +0.040 A 
ATOM     45  N   LIG    1       14.502   9.153   6.929  0.00  0.00    -0.361 N 
ATOM     46  H   LIG    1       14.855   9.349   5.999  0.00  0.00    +0.165 HD
ATOM     47  C   LIG    1       15.283   8.968   8.035  0.00  0.00    +0.083 A 
ATOM     48  C   LIG    1       14.452   8.831   9.121  0.00  0.00    +0.019 A 
ATOM     49  C   LIG    1       13.120   8.944   8.647  0.00  0.00    +0.027 A 
ENDBRANCH  40  44
ENDBRANCH  30  32
ENDBRANCH   3  30
TORSDOF 10
