REMARK  Name = modded_pdb/CHEMBL2037225_nitrogen_modded_with_ethanol_version_1.pdb
REMARK                            x       y       z     vdW  Elec       q    Type
REMARK                         _______ _______ _______ _____ _____    ______ ____
ROOT
ATOM      1  C   LIG    1        0.739   0.692   0.747  0.00  0.00    +0.045 C 
ATOM      2  C   LIG    1        2.042   0.333   0.075  0.00  0.00    -0.029 A 
ATOM      3  C   LIG    1        2.679  -0.919   0.239  0.00  0.00    +0.036 A 
ATOM      4  C   LIG    1        4.007  -1.071  -0.209  0.00  0.00    +0.047 A 
ATOM      5  C   LIG    1        4.688  -0.006  -0.815  0.00  0.00    +0.040 A 
ATOM      6  C   LIG    1        3.999   1.175  -1.098  0.00  0.00    +0.024 A 
ATOM      7  C   LIG    1        2.682   1.338  -0.667  0.00  0.00    +0.007 A 
ENDROOT
BRANCH   5   8
ATOM      8  N   LIG    1        6.102  -0.043  -1.004  0.00  0.00    -0.253 N 
ATOM      9  C   LIG    1        6.769  -1.041  -1.732  0.00  0.00    +0.311 C 
ATOM     10  N   LIG    1        6.105  -1.423  -2.888  0.00  0.00    -0.269 N 
ATOM     11  H   LIG    1        5.275  -0.885  -3.094  0.00  0.00    +0.156 HD
ATOM     12  O   LIG    1        7.908  -1.401  -1.432  0.00  0.00    -0.252 OA
BRANCH  10  13
ATOM     13  C   LIG    1        6.619  -2.244  -3.922  0.00  0.00    +0.035 A 
ATOM     14  C   LIG    1        6.001  -2.188  -5.181  0.00  0.00    +0.035 A 
ATOM     15  C   LIG    1        6.458  -2.978  -6.259  0.00  0.00    +0.057 A 
ATOM     16  C   LIG    1        7.558  -3.822  -6.064  0.00  0.00    +0.012 A 
ATOM     17  C   LIG    1        8.169  -3.894  -4.815  0.00  0.00    +0.002 A 
ATOM     18  C   LIG    1        7.698  -3.115  -3.752  0.00  0.00    +0.023 A 
BRANCH  15  19
ATOM     19  C   LIG    1        5.758  -2.927  -7.595  0.00  0.00    +0.417 C 
ATOM     20  F   LIG    1        5.769  -1.682  -8.146  0.00  0.00    -0.166 F 
ATOM     21  F   LIG    1        4.447  -3.286  -7.507  0.00  0.00    -0.166 F 
ATOM     22  F   LIG    1        6.305  -3.753  -8.532  0.00  0.00    -0.166 F 
ENDBRANCH  15  19
ENDBRANCH  10  13
BRANCH   8  23
ATOM     23  C   LIG    1        6.892   0.682   0.019  0.00  0.00    +0.143 C 
BRANCH  23  24
ATOM     24  C   LIG    1        7.273  -0.149   1.257  0.00  0.00    +0.175 C 
BRANCH  24  25
ATOM     25  O   LIG    1        6.120  -0.544   1.995  0.00  0.00    -0.393 OA
ATOM     26  H   LIG    1        6.432  -1.089   2.737  0.00  0.00    +0.209 HD
ENDBRANCH  24  25
ENDBRANCH  23  24
ENDBRANCH   8  23
ENDBRANCH   5   8
BRANCH   3  27
ATOM     27  N   LIG    1        1.998  -2.036   0.790  0.00  0.00    -0.314 N 
ATOM     28  H   LIG    1        2.614  -2.771   1.124  0.00  0.00    +0.152 HD
BRANCH  27  29
ATOM     29  C   LIG    1        0.753  -2.547   0.346  0.00  0.00    +0.033 A 
ATOM     30  C   LIG    1        0.283  -2.285  -0.944  0.00  0.00    +0.047 A 
ATOM     31  C   LIG    1       -1.001  -2.657  -1.254  0.00  0.00    +0.043 A 
ATOM     32  N   LIG    1       -1.662  -2.369  -2.437  0.00  0.00    -0.281 N 
ATOM     33  H   LIG    1       -1.295  -1.823  -3.198  0.00  0.00    +0.155 HD
ATOM     34  C   LIG    1       -2.976  -2.795  -2.404  0.00  0.00    +0.249 C 
ATOM     35  O   LIG    1       -3.805  -2.565  -3.247  0.00  0.00    -0.270 OA
ATOM     36  C   LIG    1       -3.132  -3.504  -1.063  0.00  0.00    +0.048 C 
ATOM     37  C   LIG    1       -4.188  -4.185  -0.597  0.00  0.00    +0.039 C 
ATOM     38  C   LIG    1       -1.843  -3.341  -0.362  0.00  0.00    +0.008 A 
ATOM     39  C   LIG    1       -1.373  -3.665   0.896  0.00  0.00    +0.012 A 
ATOM     40  C   LIG    1       -0.069  -3.264   1.246  0.00  0.00    +0.024 A 
BRANCH  37  41
ATOM     41  C   LIG    1       -5.424  -4.404  -1.262  0.00  0.00    +0.040 A 
ATOM     42  N   LIG    1       -5.939  -3.475  -2.137  0.00  0.00    -0.361 N 
ATOM     43  H   LIG    1       -5.462  -2.632  -2.438  0.00  0.00    +0.165 HD
ATOM     44  C   LIG    1       -7.127  -3.912  -2.657  0.00  0.00    +0.083 A 
ATOM     45  C   LIG    1       -7.414  -5.126  -2.081  0.00  0.00    +0.019 A 
ATOM     46  C   LIG    1       -6.349  -5.432  -1.196  0.00  0.00    +0.027 A 
ENDBRANCH  37  41
ENDBRANCH  27  29
ENDBRANCH   3  27
TORSDOF 9
