REMARK  Name = modded_pdb/CHEMBL2037213_nitrogen_modded_with_ethanol_version_2.pdb
REMARK                            x       y       z     vdW  Elec       q    Type
REMARK                         _______ _______ _______ _____ _____    ______ ____
ROOT
ATOM      1  C   LIG    1        7.984   1.056  -8.166  0.00  0.00    +0.035 A 
ATOM      2  C   LIG    1        8.107   0.726  -9.534  0.00  0.00    +0.046 A 
ATOM      3  C   LIG    1        8.031   1.694 -10.569  0.00  0.00    +0.036 A 
ATOM      4  C   LIG    1        7.771   3.016 -10.154  0.00  0.00    +0.023 A 
ATOM      5  C   LIG    1        7.611   3.347  -8.800  0.00  0.00    +0.004 A 
ATOM      6  C   LIG    1        7.713   2.371  -7.818  0.00  0.00    +0.023 A 
ENDROOT
BRANCH   1   8
ATOM      7  C   LIG    1        8.210   0.236  -5.817  0.00  0.00    +0.248 C 
ATOM      8  N   LIG    1        8.175   0.041  -7.194  0.00  0.00    -0.281 N 
ATOM      9  H   LIG    1        8.401  -0.876  -7.554  0.00  0.00    +0.155 HD
ATOM     10  O   LIG    1        8.083   1.301  -5.221  0.00  0.00    -0.270 OA
BRANCH   7  15
ATOM     11  C   LIG    1        8.221  -3.357  -4.575  0.00  0.00    +0.031 A 
ATOM     12  C   LIG    1        8.753  -3.131  -3.292  0.00  0.00    +0.035 A 
ATOM     13  C   LIG    1        9.140  -1.860  -2.836  0.00  0.00    +0.057 A 
ATOM     14  C   LIG    1        9.001  -0.774  -3.698  0.00  0.00    +0.025 A 
ATOM     15  C   LIG    1        8.445  -0.958  -4.969  0.00  0.00    +0.039 A 
ATOM     16  C   LIG    1        8.038  -2.230  -5.381  0.00  0.00    +0.036 A 
BRANCH  11  20
ATOM     17  C   LIG    1        9.393  -5.949  -7.045  0.00  0.00    +0.118 C 
ATOM     18  C   LIG    1        9.906  -5.790  -5.613  0.00  0.00    +0.050 C 
ATOM     19  C   LIG    1        8.749  -5.747  -4.618  0.00  0.00    +0.107 C 
ATOM     20  N   LIG    1        7.850  -4.639  -4.984  0.00  0.00    -0.330 N 
ATOM     21  C   LIG    1        7.210  -4.869  -6.292  0.00  0.00    +0.107 C 
ATOM     22  C   LIG    1        8.259  -4.983  -7.402  0.00  0.00    +0.050 C 
BRANCH  17  23
ATOM     23  O   LIG    1        8.928  -7.284  -7.237  0.00  0.00    -0.392 OA
ATOM     24  H   LIG    1        9.704  -7.870  -7.195  0.00  0.00    +0.210 HD
ENDBRANCH  17  23
ENDBRANCH  11  20
BRANCH  13  25
ATOM     25  C   LIG    1        9.636  -1.698  -1.422  0.00  0.00    +0.417 C 
ATOM     26  F   LIG    1       10.694  -2.512  -1.148  0.00  0.00    -0.166 F 
ATOM     27  F   LIG    1        8.681  -2.011  -0.503  0.00  0.00    -0.166 F 
ATOM     28  F   LIG    1       10.047  -0.437  -1.122  0.00  0.00    -0.166 F 
ENDBRANCH  13  25
ENDBRANCH   7  15
ENDBRANCH   1   8
BRANCH   3  29
ATOM     29  N   LIG    1        8.250   1.373 -11.954  0.00  0.00    -0.298 N 
BRANCH  29  30
ATOM     30  C   LIG    1        9.138   2.057 -12.866  0.00  0.00    +0.036 A 
ATOM     31  C   LIG    1        9.223   1.737 -14.241  0.00  0.00    +0.047 A 
ATOM     32  C   LIG    1       10.125   2.408 -15.062  0.00  0.00    +0.043 A 
ATOM     33  N   LIG    1       10.384   2.129 -16.402  0.00  0.00    -0.281 N 
ATOM     34  H   LIG    1        9.970   1.383 -16.940  0.00  0.00    +0.155 HD
ATOM     35  C   LIG    1       11.377   2.942 -16.903  0.00  0.00    +0.249 C 
ATOM     36  O   LIG    1       11.872   2.849 -18.023  0.00  0.00    -0.270 OA
ATOM     37  C   LIG    1       11.757   3.872 -15.774  0.00  0.00    +0.048 C 
ATOM     38  C   LIG    1       12.641   4.890 -15.762  0.00  0.00    +0.039 C 
ATOM     39  C   LIG    1       10.938   3.446 -14.618  0.00  0.00    +0.008 A 
ATOM     40  C   LIG    1       10.888   3.797 -13.285  0.00  0.00    +0.012 A 
ATOM     41  C   LIG    1       10.023   3.080 -12.421  0.00  0.00    +0.024 A 
BRANCH  38  42
ATOM     42  C   LIG    1       13.467   5.319 -16.841  0.00  0.00    +0.040 A 
ATOM     43  N   LIG    1       13.931   4.424 -17.777  0.00  0.00    -0.361 N 
ATOM     44  H   LIG    1       13.666   3.447 -17.825  0.00  0.00    +0.165 HD
ATOM     45  C   LIG    1       14.687   5.064 -18.722  0.00  0.00    +0.083 A 
ATOM     46  C   LIG    1       14.763   6.389 -18.370  0.00  0.00    +0.019 A 
ATOM     47  C   LIG    1       14.018   6.547 -17.172  0.00  0.00    +0.027 A 
ENDBRANCH  38  42
ENDBRANCH  29  30
BRANCH  29  48
ATOM     48  C   LIG    1        7.787   0.015 -12.394  0.00  0.00    +0.138 C 
BRANCH  48  49
ATOM     49  C   LIG    1        6.299  -0.085 -12.779  0.00  0.00    +0.175 C 
BRANCH  49  50
ATOM     50  O   LIG    1        6.026   0.504 -14.048  0.00  0.00    -0.393 OA
ATOM     51  H   LIG    1        5.086   0.759 -14.047  0.00  0.00    +0.209 HD
ENDBRANCH  49  50
ENDBRANCH  48  49
ENDBRANCH  29  48
ENDBRANCH   3  29
TORSDOF 11
