REMARK  Name = modded_pdb/CHEMBL2037213_nitrogen_modded_with_ethanol_version_3.pdb
REMARK                            x       y       z     vdW  Elec       q    Type
REMARK                         _______ _______ _______ _____ _____    ______ ____
ROOT
ATOM      1  C   LIG    1        7.817   1.760  -7.606  0.00  0.00    +0.035 A 
ATOM      2  C   LIG    1        8.267   1.207  -8.825  0.00  0.00    +0.046 A 
ATOM      3  C   LIG    1        9.014   1.956  -9.756  0.00  0.00    +0.033 A 
ATOM      4  C   LIG    1        9.286   3.293  -9.449  0.00  0.00    +0.023 A 
ATOM      5  C   LIG    1        8.875   3.843  -8.231  0.00  0.00    +0.004 A 
ATOM      6  C   LIG    1        8.152   3.079  -7.311  0.00  0.00    +0.023 A 
ENDROOT
BRANCH   1   8
ATOM      7  C   LIG    1        6.465   1.274  -5.526  0.00  0.00    +0.248 C 
ATOM      8  N   LIG    1        7.033   0.938  -6.755  0.00  0.00    -0.281 N 
ATOM      9  H   LIG    1        6.807   0.032  -7.139  0.00  0.00    +0.155 HD
ATOM     10  O   LIG    1        6.560   2.356  -4.958  0.00  0.00    -0.270 OA
BRANCH   7  15
ATOM     11  C   LIG    1        3.752  -0.444  -3.422  0.00  0.00    +0.031 A 
ATOM     12  C   LIG    1        4.072  -1.779  -3.704  0.00  0.00    +0.035 A 
ATOM     13  C   LIG    1        5.174  -2.153  -4.495  0.00  0.00    +0.057 A 
ATOM     14  C   LIG    1        5.972  -1.155  -5.061  0.00  0.00    +0.025 A 
ATOM     15  C   LIG    1        5.655   0.194  -4.865  0.00  0.00    +0.039 A 
ATOM     16  C   LIG    1        4.569   0.536  -4.024  0.00  0.00    +0.036 A 
BRANCH  11  20
ATOM     17  C   LIG    1        1.988  -1.309  -0.063  0.00  0.00    +0.118 C 
ATOM     18  C   LIG    1        3.151  -0.327  -0.220  0.00  0.00    +0.050 C 
ATOM     19  C   LIG    1        2.918   0.653  -1.376  0.00  0.00    +0.107 C 
ATOM     20  N   LIG    1        2.660  -0.092  -2.626  0.00  0.00    -0.330 N 
ATOM     21  C   LIG    1        1.479  -0.968  -2.518  0.00  0.00    +0.107 C 
ATOM     22  C   LIG    1        1.622  -1.984  -1.380  0.00  0.00    +0.050 C 
BRANCH  17  23
ATOM     23  O   LIG    1        0.851  -0.619   0.453  0.00  0.00    -0.392 OA
ATOM     24  H   LIG    1        0.181  -1.286   0.686  0.00  0.00    +0.210 HD
ENDBRANCH  17  23
ENDBRANCH  11  20
BRANCH  13  25
ATOM     25  C   LIG    1        5.462  -3.615  -4.719  0.00  0.00    +0.417 C 
ATOM     26  F   LIG    1        4.427  -4.259  -5.326  0.00  0.00    -0.166 F 
ATOM     27  F   LIG    1        5.696  -4.292  -3.561  0.00  0.00    -0.166 F 
ATOM     28  F   LIG    1        6.550  -3.832  -5.509  0.00  0.00    -0.166 F 
ENDBRANCH  13  25
ENDBRANCH   7  15
ENDBRANCH   1   8
BRANCH   3  29
ATOM     29  N   LIG    1        9.454   1.336 -10.955  0.00  0.00    -0.314 N 
ATOM     30  H   LIG    1        8.682   0.907 -11.456  0.00  0.00    +0.152 HD
BRANCH  29  31
ATOM     31  C   LIG    1       10.576   1.639 -11.766  0.00  0.00    +0.033 A 
ATOM     32  C   LIG    1       11.765   2.121 -11.203  0.00  0.00    +0.047 A 
ATOM     33  C   LIG    1       12.787   2.554 -12.038  0.00  0.00    +0.046 A 
ATOM     34  N   LIG    1       13.954   3.253 -11.679  0.00  0.00    -0.265 N 
ATOM     35  C   LIG    1       14.694   3.592 -12.809  0.00  0.00    +0.252 C 
ATOM     36  O   LIG    1       15.695   4.303 -12.849  0.00  0.00    -0.270 OA
ATOM     37  C   LIG    1       13.961   2.985 -13.981  0.00  0.00    +0.048 C 
ATOM     38  C   LIG    1       14.322   2.931 -15.277  0.00  0.00    +0.039 C 
ATOM     39  C   LIG    1       12.723   2.396 -13.425  0.00  0.00    +0.009 A 
ATOM     40  C   LIG    1       11.597   1.831 -14.003  0.00  0.00    +0.012 A 
ATOM     41  C   LIG    1       10.517   1.476 -13.169  0.00  0.00    +0.024 A 
BRANCH  38  42
ATOM     42  C   LIG    1       15.504   3.450 -15.877  0.00  0.00    +0.040 A 
ATOM     43  N   LIG    1       16.132   4.578 -15.399  0.00  0.00    -0.361 N 
ATOM     44  H   LIG    1       15.879   5.068 -14.548  0.00  0.00    +0.165 HD
ATOM     45  C   LIG    1       17.225   4.881 -16.169  0.00  0.00    +0.083 A 
ATOM     46  C   LIG    1       17.306   3.946 -17.171  0.00  0.00    +0.019 A 
ATOM     47  C   LIG    1       16.216   3.056 -16.999  0.00  0.00    +0.027 A 
ENDBRANCH  38  42
BRANCH  34  48
ATOM     48  C   LIG    1       14.210   3.811 -10.361  0.00  0.00    +0.142 C 
BRANCH  48  49
ATOM     49  C   LIG    1       15.155   2.966  -9.505  0.00  0.00    +0.175 C 
BRANCH  49  50
ATOM     50  O   LIG    1       16.427   2.769 -10.106  0.00  0.00    -0.393 OA
ATOM     51  H   LIG    1       16.303   2.152 -10.848  0.00  0.00    +0.209 HD
ENDBRANCH  49  50
ENDBRANCH  48  49
ENDBRANCH  34  48
ENDBRANCH  29  31
ENDBRANCH   3  29
TORSDOF 11
