REMARK  Name = modded_pdb/CHEMBL2037211_nitrogen_modded_with_ethanol_version_2.pdb
REMARK                            x       y       z     vdW  Elec       q    Type
REMARK                         _______ _______ _______ _____ _____    ______ ____
ROOT
ATOM      1  C   LIG    1        7.671   1.598  -7.989  0.00  0.00    +0.035 A 
ATOM      2  C   LIG    1        8.041   1.237  -9.302  0.00  0.00    +0.046 A 
ATOM      3  C   LIG    1        8.744   2.107 -10.160  0.00  0.00    +0.036 A 
ATOM      4  C   LIG    1        9.029   3.387  -9.652  0.00  0.00    +0.023 A 
ATOM      5  C   LIG    1        8.684   3.753  -8.346  0.00  0.00    +0.004 A 
ATOM      6  C   LIG    1        8.024   2.854  -7.513  0.00  0.00    +0.023 A 
ENDROOT
BRANCH   1   8
ATOM      7  C   LIG    1        6.386   0.841  -5.967  0.00  0.00    +0.248 C 
ATOM      8  N   LIG    1        6.944   0.653  -7.227  0.00  0.00    -0.281 N 
ATOM      9  H   LIG    1        6.726  -0.206  -7.713  0.00  0.00    +0.155 HD
ATOM     10  O   LIG    1        6.408   1.870  -5.303  0.00  0.00    -0.270 OA
BRANCH   7  15
ATOM     11  C   LIG    1        3.799  -1.210  -4.030  0.00  0.00    +0.031 A 
ATOM     12  C   LIG    1        4.221  -2.500  -4.407  0.00  0.00    +0.035 A 
ATOM     13  C   LIG    1        5.345  -2.731  -5.238  0.00  0.00    +0.057 A 
ATOM     14  C   LIG    1        6.069  -1.638  -5.721  0.00  0.00    +0.025 A 
ATOM     15  C   LIG    1        5.659  -0.340  -5.405  0.00  0.00    +0.039 A 
ATOM     16  C   LIG    1        4.550  -0.133  -4.552  0.00  0.00    +0.036 A 
BRANCH  11  21
ATOM     17  C   LIG    1        0.703  -1.767  -0.118  0.00  0.00    +0.105 C 
ATOM     18  N   LIG    1        1.907  -2.368  -0.678  0.00  0.00    -0.302 NA
ATOM     19  C   LIG    1        3.024  -1.393  -0.787  0.00  0.00    +0.103 C 
ATOM     20  C   LIG    1        2.894  -0.333  -1.918  0.00  0.00    +0.120 C 
ATOM     21  N   LIG    1        2.670  -0.978  -3.232  0.00  0.00    -0.327 N 
ATOM     22  C   LIG    1        1.546  -1.938  -3.194  0.00  0.00    +0.120 C 
ATOM     23  C   LIG    1        1.661  -2.950  -2.022  0.00  0.00    +0.103 C 
ENDBRANCH  11  21
BRANCH  13  24
ATOM     24  C   LIG    1        5.737  -4.148  -5.620  0.00  0.00    +0.417 C 
ATOM     25  F   LIG    1        4.718  -4.783  -6.258  0.00  0.00    -0.166 F 
ATOM     26  F   LIG    1        6.027  -4.899  -4.526  0.00  0.00    -0.166 F 
ATOM     27  F   LIG    1        6.813  -4.215  -6.440  0.00  0.00    -0.166 F 
ENDBRANCH  13  24
ENDBRANCH   7  15
ENDBRANCH   1   8
BRANCH   3  28
ATOM     28  N   LIG    1        9.160   1.744 -11.471  0.00  0.00    -0.298 N 
BRANCH  28  29
ATOM     29  C   LIG    1       10.376   2.131 -12.105  0.00  0.00    +0.036 A 
ATOM     30  C   LIG    1       10.451   2.337 -13.489  0.00  0.00    +0.047 A 
ATOM     31  C   LIG    1       11.670   2.652 -14.057  0.00  0.00    +0.043 A 
ATOM     32  N   LIG    1       11.902   2.814 -15.413  0.00  0.00    -0.281 N 
ATOM     33  H   LIG    1       11.219   2.718 -16.149  0.00  0.00    +0.155 HD
ATOM     34  C   LIG    1       13.233   3.077 -15.674  0.00  0.00    +0.249 C 
ATOM     35  O   LIG    1       13.705   3.246 -16.770  0.00  0.00    -0.270 OA
ATOM     36  C   LIG    1       13.902   3.139 -14.307  0.00  0.00    +0.048 C 
ATOM     37  C   LIG    1       15.183   3.426 -14.011  0.00  0.00    +0.039 C 
ATOM     38  C   LIG    1       12.844   2.821 -13.324  0.00  0.00    +0.008 A 
ATOM     39  C   LIG    1       12.804   2.649 -11.955  0.00  0.00    +0.012 A 
ATOM     40  C   LIG    1       11.572   2.301 -11.357  0.00  0.00    +0.024 A 
BRANCH  37  41
ATOM     41  C   LIG    1       16.214   3.754 -14.940  0.00  0.00    +0.040 A 
ATOM     42  N   LIG    1       15.916   4.409 -16.112  0.00  0.00    -0.361 N 
ATOM     43  H   LIG    1       14.979   4.612 -16.439  0.00  0.00    +0.165 HD
ATOM     44  C   LIG    1       17.045   4.623 -16.852  0.00  0.00    +0.083 A 
ATOM     45  C   LIG    1       18.110   4.139 -16.135  0.00  0.00    +0.019 A 
ATOM     46  C   LIG    1       17.592   3.602 -14.925  0.00  0.00    +0.027 A 
ENDBRANCH  37  41
ENDBRANCH  28  29
BRANCH  28  47
ATOM     47  C   LIG    1        8.299   0.803 -12.236  0.00  0.00    +0.138 C 
BRANCH  47  48
ATOM     48  C   LIG    1        8.729  -0.664 -12.089  0.00  0.00    +0.175 C 
BRANCH  48  49
ATOM     49  O   LIG    1        7.882  -1.496 -12.884  0.00  0.00    -0.393 OA
ATOM     50  H   LIG    1        8.293  -2.378 -12.914  0.00  0.00    +0.209 HD
ENDBRANCH  48  49
ENDBRANCH  47  48
ENDBRANCH  28  47
ENDBRANCH   3  28
TORSDOF 10
