REMARK  Name = modded_pdb/CHEMBL2037222_oxygen_modded_with_ethanol_version_1.pdb
REMARK                            x       y       z     vdW  Elec       q    Type
REMARK                         _______ _______ _______ _____ _____    ______ ____
ROOT
ATOM      1  N   LIG    1        9.456   0.737  -9.559  0.00  0.00    -0.314 N 
ATOM      2  H   LIG    1        9.073  -0.100  -9.126  0.00  0.00    +0.152 HD
ENDROOT
BRANCH   1   3
ATOM      3  C   LIG    1       10.839   0.573  -9.836  0.00  0.00    +0.033 A 
ATOM      4  C   LIG    1       11.786   1.464  -9.318  0.00  0.00    +0.047 A 
ATOM      5  C   LIG    1       13.092   1.349  -9.734  0.00  0.00    +0.043 A 
ATOM      6  N   LIG    1       14.099   2.279  -9.520  0.00  0.00    -0.281 N 
ATOM      7  H   LIG    1       13.986   3.189  -9.103  0.00  0.00    +0.155 HD
ATOM      8  C   LIG    1       15.245   1.948 -10.249  0.00  0.00    +0.249 C 
ATOM      9  O   LIG    1       16.172   2.666 -10.491  0.00  0.00    -0.270 OA
ATOM     10  C   LIG    1       14.977   0.547 -10.732  0.00  0.00    +0.048 C 
ATOM     11  C   LIG    1       15.872  -0.394 -11.058  0.00  0.00    +0.039 C 
ATOM     12  C   LIG    1       13.537   0.305 -10.547  0.00  0.00    +0.008 A 
ATOM     13  C   LIG    1       12.635  -0.621 -11.034  0.00  0.00    +0.012 A 
ATOM     14  C   LIG    1       11.276  -0.472 -10.688  0.00  0.00    +0.024 A 
BRANCH  11  15
ATOM     15  C   LIG    1       17.273  -0.226 -10.924  0.00  0.00    +0.044 A 
ATOM     16  C   LIG    1       18.305   0.131 -11.778  0.00  0.00    -0.012 A 
ATOM     17  C   LIG    1       18.151   0.552 -13.199  0.00  0.00    +0.047 C 
ATOM     18  C   LIG    1       19.535  -0.013 -11.037  0.00  0.00    +0.083 A 
ATOM     19  C   LIG    1       19.183  -0.365  -9.737  0.00  0.00    +0.028 A 
ATOM     20  C   LIG    1       20.004  -0.521  -8.502  0.00  0.00    +0.064 C 
ATOM     21  N   LIG    1       17.825  -0.542  -9.708  0.00  0.00    -0.358 N 
ATOM     22  H   LIG    1       17.305  -0.843  -8.895  0.00  0.00    +0.166 HD
BRANCH  18  23
ATOM     23  C   LIG    1       20.911   0.229 -11.468  0.00  0.00    +0.341 C 
ATOM     24  O   LIG    1       21.881  -0.354 -11.001  0.00  0.00    -0.245 OA
BRANCH  23  25
ATOM     25  O   LIG    1       20.993   1.309 -12.296  0.00  0.00    -0.459 OA
BRANCH  25  26
ATOM     26  C   LIG    1       22.205   2.072 -12.160  0.00  0.00    +0.260 C 
BRANCH  26  27
ATOM     27  C   LIG    1       22.086   2.921 -10.894  0.00  0.00    +0.197 C 
BRANCH  27  28
ATOM     28  O   LIG    1       20.967   3.802 -11.002  0.00  0.00    -0.392 OA
ATOM     29  H   LIG    1       20.179   3.247 -11.162  0.00  0.00    +0.210 HD
ENDBRANCH  27  28
ENDBRANCH  26  27
ENDBRANCH  25  26
ENDBRANCH  23  25
ENDBRANCH  18  23
ENDBRANCH  11  15
ENDBRANCH   1   3
BRANCH   1  32
ATOM     30  C   LIG    1        6.929   3.151  -8.178  0.00  0.00    +0.035 A 
ATOM     31  C   LIG    1        7.603   1.943  -8.480  0.00  0.00    +0.046 A 
ATOM     32  C   LIG    1        8.784   1.948  -9.240  0.00  0.00    +0.033 A 
ATOM     33  C   LIG    1        9.238   3.186  -9.732  0.00  0.00    +0.023 A 
ATOM     34  C   LIG    1        8.601   4.383  -9.397  0.00  0.00    +0.004 A 
ATOM     35  C   LIG    1        7.455   4.363  -8.612  0.00  0.00    +0.023 A 
BRANCH  30  37
ATOM     36  C   LIG    1        4.789   4.096  -7.266  0.00  0.00    +0.248 C 
ATOM     37  N   LIG    1        5.734   3.089  -7.432  0.00  0.00    -0.281 N 
ATOM     38  H   LIG    1        5.530   2.170  -7.081  0.00  0.00    +0.155 HD
ATOM     39  O   LIG    1        4.817   5.207  -7.783  0.00  0.00    -0.270 OA
BRANCH  36  44
ATOM     40  C   LIG    1        2.370   2.124  -5.037  0.00  0.00    +0.031 A 
ATOM     41  C   LIG    1        1.335   3.059  -4.940  0.00  0.00    +0.035 A 
ATOM     42  C   LIG    1        1.433   4.342  -5.524  0.00  0.00    +0.057 A 
ATOM     43  C   LIG    1        2.564   4.670  -6.286  0.00  0.00    +0.025 A 
ATOM     44  C   LIG    1        3.601   3.747  -6.425  0.00  0.00    +0.039 A 
ATOM     45  C   LIG    1        3.496   2.515  -5.769  0.00  0.00    +0.036 A 
BRANCH  40  50
ATOM     46  C   LIG    1        3.200  -2.501  -5.443  0.00  0.00    +0.105 C 
ATOM     47  N   LIG    1        2.575  -2.110  -4.180  0.00  0.00    -0.302 NA
ATOM     48  C   LIG    1        1.266  -1.454  -4.400  0.00  0.00    +0.103 C 
ATOM     49  C   LIG    1        1.311  -0.051  -5.066  0.00  0.00    +0.120 C 
ATOM     50  N   LIG    1        2.279   0.866  -4.401  0.00  0.00    -0.327 N 
ATOM     51  C   LIG    1        3.570   0.232  -4.032  0.00  0.00    +0.120 C 
ATOM     52  C   LIG    1        3.415  -1.172  -3.409  0.00  0.00    +0.103 C 
ENDBRANCH  40  50
BRANCH  42  53
ATOM     53  C   LIG    1        0.327   5.337  -5.286  0.00  0.00    +0.417 C 
ATOM     54  F   LIG    1        0.238   5.709  -3.978  0.00  0.00    -0.166 F 
ATOM     55  F   LIG    1       -0.891   4.821  -5.610  0.00  0.00    -0.166 F 
ATOM     56  F   LIG    1        0.449   6.491  -5.994  0.00  0.00    -0.166 F 
ENDBRANCH  42  53
ENDBRANCH  36  44
ENDBRANCH  30  37
ENDBRANCH   1  32
TORSDOF 12
