REMARK  Name = modded_pdb/CHEMBL3904509_nitrogen_modded_with_ethanol_version_1.pdb
REMARK                            x       y       z     vdW  Elec       q    Type
REMARK                         _______ _______ _______ _____ _____    ______ ____
ROOT
ATOM      1  C   LIG    1        2.419  -3.789  -4.612  0.00  0.00    +0.105 A 
ATOM      2  C   LIG    1        1.753  -4.542  -5.565  0.00  0.00    +0.145 A 
ATOM      3  N   LIG    1        0.816  -5.437  -5.294  0.00  0.00    -0.201 NA
ATOM      4  C   LIG    1        0.709  -5.814  -4.014  0.00  0.00    +0.323 A 
ATOM      5  N   LIG    1        1.451  -5.317  -3.014  0.00  0.00    -0.201 NA
ATOM      6  C   LIG    1        2.299  -4.311  -3.339  0.00  0.00    +0.145 A 
ENDROOT
BRANCH   1   8
ATOM      7  C   LIG    1        2.818  -1.943  -5.953  0.00  0.00    +0.288 C 
ATOM      8  N   LIG    1        3.148  -2.602  -4.945  0.00  0.00    -0.196 NA
BRANCH   7   9
ATOM      9  O   LIG    1        1.582  -2.168  -6.404  0.00  0.00    -0.481 OA
ATOM     10  H   LIG    1        0.990  -2.341  -5.658  0.00  0.00    +0.295 HD
ENDBRANCH   7   9
BRANCH   7  11
ATOM     11  N   LIG    1        3.393  -0.917  -6.736  0.00  0.00    -0.253 N 
BRANCH  11  12
ATOM     12  C   LIG    1        4.832  -0.592  -6.854  0.00  0.00    +0.046 A 
ATOM     13  C   LIG    1        6.021  -1.412  -6.650  0.00  0.00    +0.005 A 
ATOM     14  C   LIG    1        7.308  -0.754  -6.736  0.00  0.00    +0.011 A 
ATOM     15  C   LIG    1        7.501   0.594  -7.046  0.00  0.00    +0.013 A 
ATOM     16  C   LIG    1        6.399   1.379  -7.309  0.00  0.00    +0.057 A 
ATOM     17  C   LIG    1        5.126   0.771  -7.226  0.00  0.00    +0.036 A 
BRANCH  13  18
ATOM     18  C   LIG    1        6.198  -2.887  -6.378  0.00  0.00    +0.002 A 
ATOM     19  C   LIG    1        7.169  -3.690  -7.003  0.00  0.00    +0.119 A 
ATOM     20  N   LIG    1        7.488  -4.980  -6.680  0.00  0.00    -0.263 NA
ATOM     21  C   LIG    1        6.803  -5.551  -5.672  0.00  0.00    +0.111 A 
ATOM     22  C   LIG    1        5.871  -4.859  -4.942  0.00  0.00    +0.020 A 
ATOM     23  C   LIG    1        5.651  -3.519  -5.275  0.00  0.00    +0.011 A 
ENDBRANCH  13  18
BRANCH  16  24
ATOM     24  C   LIG    1        6.536   2.848  -7.666  0.00  0.00    +0.417 C 
ATOM     25  F   LIG    1        7.277   3.049  -8.790  0.00  0.00    -0.166 F 
ATOM     26  F   LIG    1        7.135   3.578  -6.685  0.00  0.00    -0.166 F 
ATOM     27  F   LIG    1        5.338   3.456  -7.897  0.00  0.00    -0.166 F 
ENDBRANCH  16  24
ENDBRANCH  11  12
BRANCH  11  28
ATOM     28  C   LIG    1        2.421  -0.046  -7.567  0.00  0.00    +0.143 C 
BRANCH  28  29
ATOM     29  C   LIG    1        0.866  -0.122  -7.350  0.00  0.00    +0.175 C 
BRANCH  29  30
ATOM     30  O   LIG    1        0.168   0.744  -8.246  0.00  0.00    -0.393 OA
ATOM     31  H   LIG    1        0.069   1.606  -7.816  0.00  0.00    +0.209 HD
ENDBRANCH  29  30
ENDBRANCH  28  29
ENDBRANCH  11  28
ENDBRANCH   7  11
ENDBRANCH   1   8
BRANCH   4  32
ATOM     32  O   LIG    1       -0.262  -6.729  -3.663  0.00  0.00    -0.424 OA
BRANCH  32  33
ATOM     33  C   LIG    1       -0.704  -7.643  -4.591  0.00  0.00    +0.132 A 
ATOM     34  C   LIG    1       -0.093  -7.944  -5.811  0.00  0.00    +0.047 A 
ATOM     35  C   LIG    1       -0.628  -8.898  -6.667  0.00  0.00    +0.012 A 
ATOM     36  C   LIG    1       -1.766  -9.615  -6.304  0.00  0.00    -0.013 A 
ATOM     37  C   LIG    1       -2.359  -9.337  -5.065  0.00  0.00    +0.012 A 
ATOM     38  C   LIG    1       -1.836  -8.359  -4.217  0.00  0.00    +0.047 A 
BRANCH  36  39
ATOM     39  C   LIG    1       -2.280 -10.619  -7.218  0.00  0.00    +0.046 A 
ATOM     40  C   LIG    1       -3.367 -11.447  -7.000  0.00  0.00    +0.165 A 
ATOM     41  N   LIG    1       -4.235 -11.591  -5.946  0.00  0.00    -0.213 NA
ATOM     42  C   LIG    1       -5.209 -12.474  -6.031  0.00  0.00    +0.125 A 
ATOM     43  C   LIG    1       -5.372 -13.320  -7.273  0.00  0.00    +0.063 A 
ATOM     44  C   LIG    1       -4.494 -13.153  -8.264  0.00  0.00    +0.118 A 
ATOM     45  N   LIG    1       -3.482 -12.224  -8.150  0.00  0.00    -0.221 N 
ATOM     46  N   LIG    1       -2.522 -11.961  -9.062  0.00  0.00    -0.173 NA
ATOM     47  C   LIG    1       -1.803 -10.997  -8.496  0.00  0.00    +0.145 A 
BRANCH  42  48
ATOM     48  N   LIG    1       -6.071 -12.589  -4.935  0.00  0.00    -0.315 N 
ATOM     49  C   LIG    1       -5.484 -13.269  -3.792  0.00  0.00    +0.108 C 
ATOM     50  C   LIG    1       -6.311 -14.499  -4.166  0.00  0.00    +0.038 C 
ATOM     51  C   LIG    1       -7.165 -13.526  -4.974  0.00  0.00    +0.108 C 
ENDBRANCH  42  48
ENDBRANCH  36  39
ENDBRANCH  32  33
ENDBRANCH   4  32
TORSDOF 13
