REMARK  Name = modded_pdb/CHEMBL2037211_nitrogen_modded_with_ethanol_version_3.pdb
REMARK                            x       y       z     vdW  Elec       q    Type
REMARK                         _______ _______ _______ _____ _____    ______ ____
ROOT
ATOM      1  C   LIG    1        7.353   1.454  -7.393  0.00  0.00    +0.035 A 
ATOM      2  C   LIG    1        7.784   0.974  -8.637  0.00  0.00    +0.046 A 
ATOM      3  C   LIG    1        7.547   1.704  -9.810  0.00  0.00    +0.033 A 
ATOM      4  C   LIG    1        7.002   2.989  -9.690  0.00  0.00    +0.023 A 
ATOM      5  C   LIG    1        6.541   3.454  -8.460  0.00  0.00    +0.004 A 
ATOM      6  C   LIG    1        6.672   2.663  -7.327  0.00  0.00    +0.023 A 
ENDROOT
BRANCH   1   8
ATOM      7  C   LIG    1        7.120   0.893  -4.982  0.00  0.00    +0.248 C 
ATOM      8  N   LIG    1        7.671   0.715  -6.240  0.00  0.00    -0.281 N 
ATOM      9  H   LIG    1        8.443   0.067  -6.335  0.00  0.00    +0.155 HD
ATOM     10  O   LIG    1        6.310   1.743  -4.636  0.00  0.00    -0.270 OA
BRANCH   7  15
ATOM     11  C   LIG    1        8.259  -0.417  -1.618  0.00  0.00    +0.031 A 
ATOM     12  C   LIG    1        8.595  -1.726  -1.999  0.00  0.00    +0.035 A 
ATOM     13  C   LIG    1        8.445  -2.211  -3.314  0.00  0.00    +0.057 A 
ATOM     14  C   LIG    1        7.903  -1.378  -4.288  0.00  0.00    +0.025 A 
ATOM     15  C   LIG    1        7.596  -0.063  -3.959  0.00  0.00    +0.039 A 
ATOM     16  C   LIG    1        7.745   0.395  -2.642  0.00  0.00    +0.036 A 
BRANCH  11  21
ATOM     17  C   LIG    1       10.941   2.041   1.746  0.00  0.00    +0.105 C 
ATOM     18  N   LIG    1       10.867   1.518   0.386  0.00  0.00    -0.302 NA
ATOM     19  C   LIG    1        9.726   2.107  -0.359  0.00  0.00    +0.103 C 
ATOM     20  C   LIG    1        8.345   1.487  -0.034  0.00  0.00    +0.120 C 
ATOM     21  N   LIG    1        8.388   0.029  -0.296  0.00  0.00    -0.327 N 
ATOM     22  C   LIG    1        9.399  -0.597   0.593  0.00  0.00    +0.120 C 
ATOM     23  C   LIG    1       10.800   0.035   0.375  0.00  0.00    +0.103 C 
ENDBRANCH  11  21
BRANCH  13  24
ATOM     24  C   LIG    1        8.927  -3.596  -3.649  0.00  0.00    +0.417 C 
ATOM     25  F   LIG    1        8.300  -4.565  -2.932  0.00  0.00    -0.166 F 
ATOM     26  F   LIG    1       10.258  -3.738  -3.396  0.00  0.00    -0.166 F 
ATOM     27  F   LIG    1        8.763  -3.922  -4.961  0.00  0.00    -0.166 F 
ENDBRANCH  13  24
ENDBRANCH   7  15
ENDBRANCH   1   8
BRANCH   3  28
ATOM     28  N   LIG    1        7.874   1.226 -11.099  0.00  0.00    -0.314 N 
ATOM     29  H   LIG    1        8.619   1.786 -11.506  0.00  0.00    +0.152 HD
BRANCH  28  30
ATOM     30  C   LIG    1        7.837  -0.092 -11.616  0.00  0.00    +0.033 A 
ATOM     31  C   LIG    1        8.327  -0.330 -12.914  0.00  0.00    +0.047 A 
ATOM     32  C   LIG    1        8.260  -1.616 -13.434  0.00  0.00    +0.046 A 
ATOM     33  N   LIG    1        8.691  -2.078 -14.688  0.00  0.00    -0.265 N 
ATOM     34  C   LIG    1        8.490  -3.454 -14.822  0.00  0.00    +0.252 C 
ATOM     35  O   LIG    1        8.804  -4.137 -15.770  0.00  0.00    -0.270 OA
ATOM     36  C   LIG    1        7.843  -3.890 -13.524  0.00  0.00    +0.048 C 
ATOM     37  C   LIG    1        7.456  -5.116 -13.127  0.00  0.00    +0.039 C 
ATOM     38  C   LIG    1        7.706  -2.675 -12.704  0.00  0.00    +0.009 A 
ATOM     39  C   LIG    1        7.153  -2.451 -11.459  0.00  0.00    +0.012 A 
ATOM     40  C   LIG    1        7.191  -1.151 -10.943  0.00  0.00    +0.024 A 
BRANCH  37  41
ATOM     41  C   LIG    1        7.590  -6.332 -13.849  0.00  0.00    +0.040 A 
ATOM     42  N   LIG    1        8.639  -6.533 -14.715  0.00  0.00    -0.361 N 
ATOM     43  H   LIG    1        9.322  -5.830 -14.973  0.00  0.00    +0.165 HD
ATOM     44  C   LIG    1        8.563  -7.781 -15.274  0.00  0.00    +0.083 A 
ATOM     45  C   LIG    1        7.470  -8.416 -14.737  0.00  0.00    +0.019 A 
ATOM     46  C   LIG    1        6.864  -7.510 -13.829  0.00  0.00    +0.027 A 
ENDBRANCH  37  41
BRANCH  33  47
ATOM     47  C   LIG    1        9.300  -1.281 -15.730  0.00  0.00    +0.142 C 
BRANCH  47  48
ATOM     48  C   LIG    1       10.828  -1.201 -15.634  0.00  0.00    +0.175 C 
BRANCH  48  49
ATOM     49  O   LIG    1       11.466  -2.472 -15.715  0.00  0.00    -0.393 OA
ATOM     50  H   LIG    1       10.976  -3.027 -16.350  0.00  0.00    +0.209 HD
ENDBRANCH  48  49
ENDBRANCH  47  48
ENDBRANCH  33  47
ENDBRANCH  28  30
ENDBRANCH   3  28
TORSDOF 10
