REMARK  Name = modded_pdb/CHEMBL2037209_nitrogen_modded_with_ethanol_version_3.pdb
REMARK                            x       y       z     vdW  Elec       q    Type
REMARK                         _______ _______ _______ _____ _____    ______ ____
ROOT
ATOM      1  C   LIG    1        7.533   7.588  -0.494  0.00  0.00    +0.035 A 
ATOM      2  C   LIG    1        7.943   8.017   0.784  0.00  0.00    +0.046 A 
ATOM      3  C   LIG    1        8.099   9.376   1.091  0.00  0.00    +0.033 A 
ATOM      4  C   LIG    1        7.911  10.303   0.061  0.00  0.00    +0.023 A 
ATOM      5  C   LIG    1        7.528   9.890  -1.219  0.00  0.00    +0.004 A 
ATOM      6  C   LIG    1        7.322   8.536  -1.494  0.00  0.00    +0.023 A 
ENDROOT
BRANCH   1   8
ATOM      7  C   LIG    1        6.638   5.552  -1.660  0.00  0.00    +0.248 C 
ATOM      8  N   LIG    1        7.374   6.196  -0.678  0.00  0.00    -0.281 N 
ATOM      9  H   LIG    1        7.725   5.632   0.082  0.00  0.00    +0.155 HD
ATOM     10  O   LIG    1        5.973   6.088  -2.537  0.00  0.00    -0.270 OA
BRANCH   7  15
ATOM     11  C   LIG    1        7.680   1.930  -0.977  0.00  0.00    +0.049 A 
ATOM     12  C   LIG    1        6.552   1.248  -1.455  0.00  0.00    +0.038 A 
ATOM     13  C   LIG    1        5.461   1.948  -1.998  0.00  0.00    +0.057 A 
ATOM     14  C   LIG    1        5.513   3.351  -2.062  0.00  0.00    +0.025 A 
ATOM     15  C   LIG    1        6.623   4.051  -1.565  0.00  0.00    +0.040 A 
ATOM     16  C   LIG    1        7.701   3.334  -1.022  0.00  0.00    +0.039 A 
BRANCH  11  21
ATOM     17  C   LIG    1       12.068   0.628   1.071  0.00  0.00    +0.067 C 
ATOM     18  C   LIG    1       10.732   0.646   0.438  0.00  0.00    +0.056 A 
ATOM     19  N   LIG    1       10.040  -0.517   0.249  0.00  0.00    -0.241 NA
ATOM     20  C   LIG    1        8.898  -0.158  -0.291  0.00  0.00    +0.204 A 
ATOM     21  N   LIG    1        8.795   1.206  -0.461  0.00  0.00    -0.306 N 
ATOM     22  C   LIG    1        9.997   1.718  -0.021  0.00  0.00    +0.115 A 
ENDBRANCH  11  21
BRANCH  13  23
ATOM     23  C   LIG    1        4.263   1.175  -2.501  0.00  0.00    +0.418 C 
ATOM     24  F   LIG    1        3.684   0.434  -1.515  0.00  0.00    -0.166 F 
ATOM     25  F   LIG    1        4.594   0.291  -3.482  0.00  0.00    -0.166 F 
ATOM     26  F   LIG    1        3.277   1.958  -3.011  0.00  0.00    -0.166 F 
ENDBRANCH  13  23
ENDBRANCH   7  15
ENDBRANCH   1   8
BRANCH   3  27
ATOM     27  N   LIG    1        8.449   9.844   2.374  0.00  0.00    -0.314 N 
ATOM     28  H   LIG    1        8.204  10.815   2.540  0.00  0.00    +0.152 HD
BRANCH  27  29
ATOM     29  C   LIG    1        9.157   9.256   3.436  0.00  0.00    +0.033 A 
ATOM     30  C   LIG    1       10.150   8.303   3.217  0.00  0.00    +0.047 A 
ATOM     31  C   LIG    1       10.788   7.745   4.310  0.00  0.00    +0.046 A 
ATOM     32  N   LIG    1       11.798   6.778   4.297  0.00  0.00    -0.265 N 
ATOM     33  C   LIG    1       12.134   6.409   5.585  0.00  0.00    +0.252 C 
ATOM     34  O   LIG    1       12.951   5.564   5.864  0.00  0.00    -0.270 OA
ATOM     35  C   LIG    1       11.326   7.282   6.516  0.00  0.00    +0.048 C 
ATOM     36  C   LIG    1       11.373   7.343   7.863  0.00  0.00    +0.039 C 
ATOM     37  C   LIG    1       10.466   8.096   5.633  0.00  0.00    +0.009 A 
ATOM     38  C   LIG    1        9.477   9.031   5.874  0.00  0.00    +0.012 A 
ATOM     39  C   LIG    1        8.826   9.604   4.768  0.00  0.00    +0.024 A 
BRANCH  36  40
ATOM     40  C   LIG    1       12.190   6.571   8.751  0.00  0.00    +0.040 A 
ATOM     41  N   LIG    1       13.055   5.606   8.298  0.00  0.00    -0.361 N 
ATOM     42  H   LIG    1       13.205   5.357   7.330  0.00  0.00    +0.165 HD
ATOM     43  C   LIG    1       13.734   5.006   9.314  0.00  0.00    +0.083 A 
ATOM     44  C   LIG    1       13.299   5.577  10.480  0.00  0.00    +0.019 A 
ATOM     45  C   LIG    1       12.331   6.561  10.132  0.00  0.00    +0.027 A 
ENDBRANCH  36  40
BRANCH  32  46
ATOM     46  C   LIG    1       12.341   6.102   3.135  0.00  0.00    +0.142 C 
BRANCH  46  47
ATOM     47  C   LIG    1       13.857   6.293   2.946  0.00  0.00    +0.175 C 
BRANCH  47  48
ATOM     48  O   LIG    1       14.669   5.681   3.939  0.00  0.00    -0.393 OA
ATOM     49  H   LIG    1       14.349   5.968   4.817  0.00  0.00    +0.209 HD
ENDBRANCH  47  48
ENDBRANCH  46  47
ENDBRANCH  32  46
ENDBRANCH  27  29
ENDBRANCH   3  27
TORSDOF 10
