REMARK  Name = modded_pdb/CHEMBL2037213_nitrogen_modded_with_ethanol_version_1.pdb
REMARK                            x       y       z     vdW  Elec       q    Type
REMARK                         _______ _______ _______ _____ _____    ______ ____
ROOT
ATOM      1  C   LIG    1        7.531   2.608  -8.066  0.00  0.00    +0.038 A 
ATOM      2  C   LIG    1        6.597   3.476  -8.679  0.00  0.00    +0.046 A 
ATOM      3  C   LIG    1        6.916   4.828  -8.935  0.00  0.00    +0.033 A 
ATOM      4  C   LIG    1        8.225   5.235  -8.658  0.00  0.00    +0.023 A 
ATOM      5  C   LIG    1        9.166   4.386  -8.084  0.00  0.00    +0.004 A 
ATOM      6  C   LIG    1        8.822   3.072  -7.787  0.00  0.00    +0.023 A 
ENDROOT
BRANCH   1   8
ATOM      7  C   LIG    1        6.545   0.795  -6.692  0.00  0.00    +0.251 C 
ATOM      8  N   LIG    1        7.220   1.206  -7.898  0.00  0.00    -0.265 N 
ATOM      9  O   LIG    1        6.393   1.598  -5.759  0.00  0.00    -0.270 OA
BRANCH   7  14
ATOM     10  C   LIG    1        4.502  -2.539  -7.301  0.00  0.00    +0.031 A 
ATOM     11  C   LIG    1        4.415  -3.004  -6.026  0.00  0.00    +0.035 A 
ATOM     12  C   LIG    1        5.040  -2.307  -4.948  0.00  0.00    +0.057 A 
ATOM     13  C   LIG    1        5.752  -1.083  -5.127  0.00  0.00    +0.025 A 
ATOM     14  C   LIG    1        5.905  -0.581  -6.408  0.00  0.00    +0.040 A 
ATOM     15  C   LIG    1        5.307  -1.411  -7.375  0.00  0.00    +0.036 A 
BRANCH  10  19
ATOM     16  C   LIG    1        1.848  -3.912  -9.824  0.00  0.00    +0.118 C 
ATOM     17  C   LIG    1        2.437  -2.503  -9.938  0.00  0.00    +0.050 C 
ATOM     18  C   LIG    1        3.946  -2.503  -9.739  0.00  0.00    +0.107 C 
ATOM     19  N   LIG    1        4.252  -3.212  -8.482  0.00  0.00    -0.330 N 
ATOM     20  C   LIG    1        3.916  -4.623  -8.548  0.00  0.00    +0.107 C 
ATOM     21  C   LIG    1        2.404  -4.730  -8.654  0.00  0.00    +0.050 C 
BRANCH  16  22
ATOM     22  O   LIG    1        2.081  -4.606 -11.051  0.00  0.00    -0.392 OA
ATOM     23  H   LIG    1        1.376  -5.273 -11.140  0.00  0.00    +0.210 HD
ENDBRANCH  16  22
ENDBRANCH  10  19
BRANCH  12  24
ATOM     24  C   LIG    1        4.869  -2.948  -3.609  0.00  0.00    +0.417 C 
ATOM     25  F   LIG    1        5.459  -4.174  -3.549  0.00  0.00    -0.166 F 
ATOM     26  F   LIG    1        3.552  -3.154  -3.332  0.00  0.00    -0.166 F 
ATOM     27  F   LIG    1        5.374  -2.229  -2.574  0.00  0.00    -0.166 F 
ENDBRANCH  12  24
ENDBRANCH   7  14
BRANCH   8  28
ATOM     28  C   LIG    1        7.729   0.447  -9.073  0.00  0.00    +0.141 C 
BRANCH  28  29
ATOM     29  C   LIG    1        7.368  -0.975  -9.065  0.00  0.00    +0.175 C 
BRANCH  29  30
ATOM     30  O   LIG    1        7.714  -1.835 -10.109  0.00  0.00    -0.393 OA
ATOM     31  H   LIG    1        6.976  -1.778 -10.745  0.00  0.00    +0.209 HD
ENDBRANCH  29  30
ENDBRANCH  28  29
ENDBRANCH   8  28
ENDBRANCH   1   8
BRANCH   3  32
ATOM     32  N   LIG    1        5.934   5.752  -9.375  0.00  0.00    -0.314 N 
ATOM     33  H   LIG    1        5.174   5.322  -9.891  0.00  0.00    +0.152 HD
BRANCH  32  34
ATOM     34  C   LIG    1        5.965   7.170  -9.459  0.00  0.00    +0.033 A 
ATOM     35  C   LIG    1        5.149   7.826 -10.391  0.00  0.00    +0.047 A 
ATOM     36  C   LIG    1        5.269   9.203 -10.515  0.00  0.00    +0.043 A 
ATOM     37  N   LIG    1        4.532  10.013 -11.370  0.00  0.00    -0.281 N 
ATOM     38  H   LIG    1        3.818   9.707 -12.011  0.00  0.00    +0.155 HD
ATOM     39  C   LIG    1        4.882  11.362 -11.247  0.00  0.00    +0.249 C 
ATOM     40  O   LIG    1        4.421  12.262 -11.857  0.00  0.00    -0.270 OA
ATOM     41  C   LIG    1        6.011  11.364 -10.220  0.00  0.00    +0.048 C 
ATOM     42  C   LIG    1        6.758  12.387  -9.771  0.00  0.00    +0.039 C 
ATOM     43  C   LIG    1        6.172   9.969  -9.778  0.00  0.00    +0.008 A 
ATOM     44  C   LIG    1        6.962   9.358  -8.835  0.00  0.00    +0.012 A 
ATOM     45  C   LIG    1        6.826   7.972  -8.665  0.00  0.00    +0.024 A 
BRANCH  42  46
ATOM     46  C   LIG    1        6.632  13.760 -10.109  0.00  0.00    +0.040 A 
ATOM     47  N   LIG    1        6.160  14.169 -11.335  0.00  0.00    -0.361 N 
ATOM     48  H   LIG    1        5.813  13.554 -12.063  0.00  0.00    +0.165 HD
ATOM     49  C   LIG    1        6.089  15.538 -11.381  0.00  0.00    +0.083 A 
ATOM     50  C   LIG    1        6.572  16.026 -10.191  0.00  0.00    +0.019 A 
ATOM     51  C   LIG    1        6.942  14.909  -9.402  0.00  0.00    +0.027 A 
ENDBRANCH  42  46
ENDBRANCH  32  34
ENDBRANCH   3  32
TORSDOF 11
