REMARK  Name = modded_pdb/CHEMBL1983268_nitrogen_modded_with_ethanol_version_2.pdb
REMARK                            x       y       z     vdW  Elec       q    Type
REMARK                         _______ _______ _______ _____ _____    ______ ____
ROOT
ATOM      1  C   LIG    1        2.745  -1.344  -5.586  0.00  0.00    +0.032 A 
ATOM      2  C   LIG    1        3.749  -0.826  -4.738  0.00  0.00    +0.047 A 
ATOM      3  C   LIG    1        4.823   0.050  -5.136  0.00  0.00    +0.044 A 
ATOM      4  C   LIG    1        4.659   0.680  -6.399  0.00  0.00    +0.058 A 
ATOM      5  C   LIG    1        3.583   0.273  -7.206  0.00  0.00    +0.017 A 
ATOM      6  C   LIG    1        2.669  -0.714  -6.822  0.00  0.00    +0.024 A 
ENDROOT
BRANCH   1  11
ATOM      7  C   LIG    1        2.010  -5.893  -6.138  0.00  0.00    +0.105 C 
ATOM      8  N   LIG    1        0.991  -5.298  -5.271  0.00  0.00    -0.302 NA
ATOM      9  C   LIG    1        0.238  -4.231  -5.952  0.00  0.00    +0.103 C 
ATOM     10  C   LIG    1        1.063  -2.983  -6.334  0.00  0.00    +0.120 C 
ATOM     11  N   LIG    1        1.885  -2.420  -5.226  0.00  0.00    -0.327 N 
ATOM     12  C   LIG    1        2.474  -3.442  -4.310  0.00  0.00    +0.120 C 
ATOM     13  C   LIG    1        1.585  -4.691  -4.067  0.00  0.00    +0.103 C 
ENDBRANCH   1  11
BRANCH   4  14
ATOM     14  C   LIG    1        5.569   1.678  -7.070  0.00  0.00    +0.251 C 
ATOM     15  N   LIG    1        4.934   2.640  -7.861  0.00  0.00    -0.264 N 
ATOM     16  H   LIG    1        3.932   2.636  -7.930  0.00  0.00    +0.157 HD
ATOM     17  O   LIG    1        6.805   1.545  -6.940  0.00  0.00    -0.270 OA
BRANCH  15  18
ATOM     18  C   LIG    1        5.564   3.532  -8.712  0.00  0.00    +0.155 A 
ATOM     19  C   LIG    1        4.906   4.394  -9.681  0.00  0.00    +0.042 A 
ATOM     20  C   LIG    1        3.580   4.691 -10.102  0.00  0.00    +0.017 A 
ATOM     21  C   LIG    1        3.366   5.545 -11.216  0.00  0.00    -0.042 A 
ATOM     22  C   LIG    1        4.479   6.111 -11.861  0.00  0.00    +0.006 A 
ATOM     23  C   LIG    1        5.784   5.859 -11.451  0.00  0.00    +0.028 A 
ATOM     24  C   LIG    1        5.954   5.004 -10.366  0.00  0.00    +0.068 A 
ATOM     25  N   LIG    1        7.094   4.552  -9.770  0.00  0.00    -0.275 N 
ATOM     26  H   LIG    1        8.049   4.775 -10.021  0.00  0.00    +0.189 HD
ATOM     27  N   LIG    1        6.887   3.688  -8.777  0.00  0.00    -0.157 NA
BRANCH  21  28
ATOM     28  C   LIG    1        1.958   5.867 -11.709  0.00  0.00    +0.070 C 
BRANCH  28  29
ATOM     29  C   LIG    1        1.878   6.137 -13.204  0.00  0.00    -0.038 A 
ATOM     30  C   LIG    1        1.942   7.448 -13.710  0.00  0.00    +0.042 A 
ATOM     31  C   LIG    1        2.037   7.665 -15.085  0.00  0.00    +0.126 A 
ATOM     32  F   LIG    1        2.151   8.917 -15.546  0.00  0.00    -0.205 F 
ATOM     33  C   LIG    1        2.052   6.605 -15.980  0.00  0.00    +0.076 A 
ATOM     34  C   LIG    1        1.972   5.313 -15.482  0.00  0.00    +0.126 A 
ATOM     35  F   LIG    1        2.004   4.277 -16.331  0.00  0.00    -0.205 F 
ATOM     36  C   LIG    1        1.889   5.068 -14.112  0.00  0.00    +0.042 A 
ENDBRANCH  28  29
ENDBRANCH  21  28
ENDBRANCH  15  18
ENDBRANCH   4  14
BRANCH   3  37
ATOM     37  N   LIG    1        5.915   0.139  -4.263  0.00  0.00    -0.324 N 
BRANCH  37  38
ATOM     38  C   LIG    1        6.716  -1.083  -3.852  0.00  0.00    +0.078 C 
ATOM     39  C   LIG    1        8.126  -1.136  -4.475  0.00  0.00    +0.050 C 
ATOM     40  C   LIG    1        8.216  -1.866  -5.806  0.00  0.00    +0.161 C 
ATOM     41  O   LIG    1        7.602  -3.149  -5.757  0.00  0.00    -0.380 OA
ATOM     42  C   LIG    1        6.242  -3.114  -5.346  0.00  0.00    +0.161 C 
ATOM     43  C   LIG    1        6.081  -2.475  -3.976  0.00  0.00    +0.050 C 
ENDBRANCH  37  38
BRANCH  37  44
ATOM     44  C   LIG    1        6.557   1.444  -3.925  0.00  0.00    +0.133 C 
BRANCH  44  45
ATOM     45  C   LIG    1        5.808   2.308  -2.904  0.00  0.00    +0.174 C 
BRANCH  45  46
ATOM     46  O   LIG    1        5.796   1.717  -1.605  0.00  0.00    -0.393 OA
ATOM     47  H   LIG    1        5.579   2.428  -0.977  0.00  0.00    +0.209 HD
ENDBRANCH  45  46
ENDBRANCH  44  45
ENDBRANCH  37  44
ENDBRANCH   3  37
TORSDOF 10
