REMARK  Name = modded_pdb/CHEMBL2037226_nitrogen_modded_with_ethanol_version_2.pdb
REMARK                            x       y       z     vdW  Elec       q    Type
REMARK                         _______ _______ _______ _____ _____    ______ ____
ROOT
ATOM      1  C   LIG    1        0.535   0.288  -0.048  0.00  0.00    +0.045 C 
ATOM      2  C   LIG    1        2.017   0.168  -0.278  0.00  0.00    -0.029 A 
ATOM      3  C   LIG    1        2.786  -0.945   0.114  0.00  0.00    +0.036 A 
ATOM      4  C   LIG    1        4.193  -0.869  -0.005  0.00  0.00    +0.046 A 
ATOM      5  C   LIG    1        4.833   0.257  -0.550  0.00  0.00    +0.037 A 
ATOM      6  C   LIG    1        4.037   1.282  -1.048  0.00  0.00    +0.024 A 
ATOM      7  C   LIG    1        2.651   1.242  -0.913  0.00  0.00    +0.007 A 
ENDROOT
BRANCH   5   8
ATOM      8  N   LIG    1        6.252   0.298  -0.565  0.00  0.00    -0.269 N 
ATOM      9  H   LIG    1        6.706  -0.547  -0.259  0.00  0.00    +0.156 HD
ATOM     10  C   LIG    1        7.053   1.343  -1.006  0.00  0.00    +0.311 C 
ATOM     11  N   LIG    1        8.443   1.163  -0.868  0.00  0.00    -0.250 N 
ATOM     12  O   LIG    1        6.605   2.417  -1.412  0.00  0.00    -0.252 OA
BRANCH  11  13
ATOM     13  C   LIG    1        9.302   2.178  -1.419  0.00  0.00    +0.073 A 
ATOM     14  C   LIG    1        9.201   2.575  -2.761  0.00  0.00    +0.145 A 
ATOM     15  F   LIG    1        8.418   1.898  -3.615  0.00  0.00    -0.204 F 
ATOM     16  C   LIG    1        9.954   3.637  -3.262  0.00  0.00    +0.041 A 
ATOM     17  C   LIG    1       10.807   4.343  -2.415  0.00  0.00    +0.015 A 
ATOM     18  C   LIG    1       10.939   3.963  -1.069  0.00  0.00    +0.057 A 
ATOM     19  C   LIG    1       10.206   2.857  -0.588  0.00  0.00    +0.038 A 
BRANCH  18  20
ATOM     20  C   LIG    1       11.824   4.778  -0.153  0.00  0.00    +0.417 C 
ATOM     21  F   LIG    1       11.442   6.083  -0.085  0.00  0.00    -0.166 F 
ATOM     22  F   LIG    1       13.123   4.790  -0.562  0.00  0.00    -0.166 F 
ATOM     23  F   LIG    1       11.841   4.324   1.130  0.00  0.00    -0.166 F 
ENDBRANCH  18  20
ENDBRANCH  11  13
BRANCH  11  24
ATOM     24  C   LIG    1        9.104  -0.045  -0.345  0.00  0.00    +0.143 C 
BRANCH  24  25
ATOM     25  C   LIG    1        9.381  -1.075  -1.447  0.00  0.00    +0.175 C 
BRANCH  25  26
ATOM     26  O   LIG    1        8.160  -1.546  -2.008  0.00  0.00    -0.393 OA
ATOM     27  H   LIG    1        8.391  -2.156  -2.732  0.00  0.00    +0.209 HD
ENDBRANCH  25  26
ENDBRANCH  24  25
ENDBRANCH  11  24
ENDBRANCH   5   8
BRANCH   3  28
ATOM     28  N   LIG    1        2.163  -2.087   0.656  0.00  0.00    -0.314 N 
ATOM     29  H   LIG    1        1.197  -2.213   0.374  0.00  0.00    +0.152 HD
BRANCH  28  30
ATOM     30  C   LIG    1        2.596  -3.009   1.624  0.00  0.00    +0.033 A 
ATOM     31  C   LIG    1        2.159  -4.336   1.539  0.00  0.00    +0.047 A 
ATOM     32  C   LIG    1        2.572  -5.218   2.519  0.00  0.00    +0.043 A 
ATOM     33  N   LIG    1        2.199  -6.553   2.627  0.00  0.00    -0.281 N 
ATOM     34  H   LIG    1        1.578  -7.046   2.003  0.00  0.00    +0.155 HD
ATOM     35  C   LIG    1        2.727  -7.125   3.760  0.00  0.00    +0.249 C 
ATOM     36  O   LIG    1        2.493  -8.263   4.153  0.00  0.00    -0.270 OA
ATOM     37  C   LIG    1        3.560  -6.039   4.430  0.00  0.00    +0.048 C 
ATOM     38  C   LIG    1        4.293  -6.108   5.547  0.00  0.00    +0.039 C 
ATOM     39  C   LIG    1        3.409  -4.856   3.574  0.00  0.00    +0.008 A 
ATOM     40  C   LIG    1        3.891  -3.558   3.645  0.00  0.00    +0.012 A 
ATOM     41  C   LIG    1        3.481  -2.644   2.662  0.00  0.00    +0.024 A 
BRANCH  38  42
ATOM     42  C   LIG    1        4.474  -7.231   6.400  0.00  0.00    +0.040 A 
ATOM     43  N   LIG    1        3.493  -8.180   6.572  0.00  0.00    -0.361 N 
ATOM     44  H   LIG    1        2.621  -8.218   6.053  0.00  0.00    +0.165 HD
ATOM     45  C   LIG    1        3.906  -9.138   7.460  0.00  0.00    +0.083 A 
ATOM     46  C   LIG    1        5.167  -8.800   7.888  0.00  0.00    +0.019 A 
ATOM     47  C   LIG    1        5.519  -7.593   7.233  0.00  0.00    +0.027 A 
ENDBRANCH  38  42
ENDBRANCH  28  30
ENDBRANCH   3  28
TORSDOF 9
