REMARK  Name = modded_pdb/CHEMBL2037211_nitrogen_modded_with_ethanol_version_1.pdb
REMARK                            x       y       z     vdW  Elec       q    Type
REMARK                         _______ _______ _______ _____ _____    ______ ____
ROOT
ATOM      1  C   LIG    1        7.925   1.872  -7.990  0.00  0.00    +0.038 A 
ATOM      2  C   LIG    1        9.093   1.854  -7.214  0.00  0.00    +0.046 A 
ATOM      3  C   LIG    1       10.000   2.923  -7.246  0.00  0.00    +0.033 A 
ATOM      4  C   LIG    1        9.703   3.998  -8.090  0.00  0.00    +0.023 A 
ATOM      5  C   LIG    1        8.519   4.042  -8.832  0.00  0.00    +0.004 A 
ATOM      6  C   LIG    1        7.640   2.966  -8.805  0.00  0.00    +0.023 A 
ENDROOT
BRANCH   1   8
ATOM      7  C   LIG    1        6.510   0.286  -6.717  0.00  0.00    +0.251 C 
ATOM      8  N   LIG    1        7.004   0.794  -7.931  0.00  0.00    -0.265 N 
ATOM      9  O   LIG    1        6.055  -0.854  -6.615  0.00  0.00    -0.270 OA
BRANCH   7  14
ATOM     10  C   LIG    1        6.379   3.351  -4.371  0.00  0.00    +0.031 A 
ATOM     11  C   LIG    1        6.614   2.666  -3.166  0.00  0.00    +0.035 A 
ATOM     12  C   LIG    1        6.724   1.267  -3.079  0.00  0.00    +0.057 A 
ATOM     13  C   LIG    1        6.692   0.512  -4.252  0.00  0.00    +0.025 A 
ATOM     14  C   LIG    1        6.503   1.145  -5.483  0.00  0.00    +0.040 A 
ATOM     15  C   LIG    1        6.292   2.540  -5.518  0.00  0.00    +0.036 A 
BRANCH  10  20
ATOM     16  C   LIG    1        3.520   7.353  -3.762  0.00  0.00    +0.105 C 
ATOM     17  N   LIG    1        3.638   5.901  -3.798  0.00  0.00    -0.302 NA
ATOM     18  C   LIG    1        4.585   5.409  -2.768  0.00  0.00    +0.103 C 
ATOM     19  C   LIG    1        6.079   5.501  -3.161  0.00  0.00    +0.120 C 
ATOM     20  N   LIG    1        6.304   4.754  -4.423  0.00  0.00    -0.327 N 
ATOM     21  C   LIG    1        5.520   5.404  -5.501  0.00  0.00    +0.120 C 
ATOM     22  C   LIG    1        4.008   5.403  -5.149  0.00  0.00    +0.103 C 
ENDBRANCH  10  20
BRANCH  12  23
ATOM     23  C   LIG    1        6.828   0.630  -1.718  0.00  0.00    +0.417 C 
ATOM     24  F   LIG    1        5.666   0.738  -1.014  0.00  0.00    -0.166 F 
ATOM     25  F   LIG    1        7.785   1.211  -0.941  0.00  0.00    -0.166 F 
ATOM     26  F   LIG    1        7.127  -0.696  -1.751  0.00  0.00    -0.166 F 
ENDBRANCH  12  23
ENDBRANCH   7  14
BRANCH   8  27
ATOM     27  C   LIG    1        6.974  -0.077  -9.123  0.00  0.00    +0.141 C 
BRANCH  27  28
ATOM     28  C   LIG    1        8.233  -0.946  -9.281  0.00  0.00    +0.175 C 
BRANCH  28  29
ATOM     29  O   LIG    1        8.146  -1.769 -10.444  0.00  0.00    -0.393 OA
ATOM     30  H   LIG    1        8.583  -1.298 -11.174  0.00  0.00    +0.209 HD
ENDBRANCH  28  29
ENDBRANCH  27  28
ENDBRANCH   8  27
ENDBRANCH   1   8
BRANCH   3  31
ATOM     31  N   LIG    1       11.210   2.796  -6.539  0.00  0.00    -0.314 N 
ATOM     32  H   LIG    1       11.210   2.020  -5.882  0.00  0.00    +0.152 HD
BRANCH  31  33
ATOM     33  C   LIG    1       12.243   3.707  -6.244  0.00  0.00    +0.033 A 
ATOM     34  C   LIG    1       13.534   3.187  -6.065  0.00  0.00    +0.047 A 
ATOM     35  C   LIG    1       14.556   4.074  -5.781  0.00  0.00    +0.043 A 
ATOM     36  N   LIG    1       15.895   3.751  -5.609  0.00  0.00    -0.281 N 
ATOM     37  H   LIG    1       16.301   2.831  -5.689  0.00  0.00    +0.155 HD
ATOM     38  C   LIG    1       16.656   4.873  -5.355  0.00  0.00    +0.249 C 
ATOM     39  O   LIG    1       17.859   4.880  -5.202  0.00  0.00    -0.270 OA
ATOM     40  C   LIG    1       15.678   6.030  -5.322  0.00  0.00    +0.048 C 
ATOM     41  C   LIG    1       15.868   7.328  -5.031  0.00  0.00    +0.039 C 
ATOM     42  C   LIG    1       14.361   5.447  -5.648  0.00  0.00    +0.008 A 
ATOM     43  C   LIG    1       13.101   5.980  -5.841  0.00  0.00    +0.012 A 
ATOM     44  C   LIG    1       12.050   5.099  -6.143  0.00  0.00    +0.024 A 
BRANCH  41  45
ATOM     45  C   LIG    1       17.077   7.991  -4.680  0.00  0.00    +0.040 A 
ATOM     46  N   LIG    1       18.282   7.337  -4.609  0.00  0.00    -0.361 N 
ATOM     47  H   LIG    1       18.430   6.346  -4.796  0.00  0.00    +0.165 HD
ATOM     48  C   LIG    1       19.283   8.192  -4.253  0.00  0.00    +0.083 A 
ATOM     49  C   LIG    1       18.730   9.434  -4.082  0.00  0.00    +0.019 A 
ATOM     50  C   LIG    1       17.341   9.311  -4.352  0.00  0.00    +0.027 A 
ENDBRANCH  41  45
ENDBRANCH  31  33
ENDBRANCH   3  31
TORSDOF 10
