REMARK  Name = modded_pdb/CHEMBL1983268_nitrogen_modded_with_ethanol_version_1.pdb
REMARK                            x       y       z     vdW  Elec       q    Type
REMARK                         _______ _______ _______ _____ _____    ______ ____
ROOT
ATOM      1  C   LIG    1        4.076  -2.112  -6.675  0.00  0.00    +0.250 C 
ATOM      2  N   LIG    1        3.600  -2.969  -7.729  0.00  0.00    -0.267 N 
ATOM      3  O   LIG    1        5.203  -1.662  -6.690  0.00  0.00    -0.270 OA
ENDROOT
BRANCH   2   4
ATOM      4  C   LIG    1        2.421  -3.726  -7.590  0.00  0.00    +0.193 C 
ATOM      5  C   LIG    1        2.295  -5.140  -7.454  0.00  0.00    +0.020 A 
ATOM      6  C   LIG    1        3.149  -6.252  -7.488  0.00  0.00    +0.013 A 
ATOM      7  C   LIG    1        2.601  -7.544  -7.404  0.00  0.00    -0.043 A 
ATOM      8  C   LIG    1        1.239  -7.701  -7.099  0.00  0.00    +0.006 A 
ATOM      9  C   LIG    1        0.386  -6.607  -6.952  0.00  0.00    +0.025 A 
ATOM     10  C   LIG    1        0.944  -5.359  -7.197  0.00  0.00    +0.050 A 
ATOM     11  N   LIG    1        0.377  -4.125  -7.252  0.00  0.00    -0.260 N 
ATOM     12  H   LIG    1       -0.575  -3.857  -7.023  0.00  0.00    +0.168 HD
ATOM     13  N   LIG    1        1.195  -3.218  -7.795  0.00  0.00    -0.110 NA
BRANCH   7  14
ATOM     14  C   LIG    1        3.482  -8.755  -7.610  0.00  0.00    +0.070 C 
BRANCH  14  15
ATOM     15  C   LIG    1        4.171  -8.845  -8.959  0.00  0.00    -0.038 A 
ATOM     16  C   LIG    1        3.588  -9.520 -10.043  0.00  0.00    +0.042 A 
ATOM     17  C   LIG    1        4.286  -9.647 -11.249  0.00  0.00    +0.126 A 
ATOM     18  F   LIG    1        3.733 -10.331 -12.259  0.00  0.00    -0.205 F 
ATOM     19  C   LIG    1        5.548  -9.096 -11.416  0.00  0.00    +0.076 A 
ATOM     20  C   LIG    1        6.111  -8.404 -10.356  0.00  0.00    +0.126 A 
ATOM     21  F   LIG    1        7.329  -7.864 -10.492  0.00  0.00    -0.205 F 
ATOM     22  C   LIG    1        5.442  -8.276  -9.140  0.00  0.00    +0.042 A 
ENDBRANCH  14  15
ENDBRANCH   7  14
ENDBRANCH   2   4
BRANCH   1  26
ATOM     23  C   LIG    1        1.533   0.150  -3.991  0.00  0.00    +0.032 A 
ATOM     24  C   LIG    1        2.880  -0.140  -3.787  0.00  0.00    +0.046 A 
ATOM     25  C   LIG    1        3.678  -1.172  -4.298  0.00  0.00    +0.041 A 
ATOM     26  C   LIG    1        3.163  -1.672  -5.506  0.00  0.00    +0.058 A 
ATOM     27  C   LIG    1        1.820  -1.410  -5.723  0.00  0.00    +0.017 A 
ATOM     28  C   LIG    1        0.964  -0.660  -4.917  0.00  0.00    +0.024 A 
BRANCH  23  33
ATOM     29  C   LIG    1       -0.696   4.208  -4.380  0.00  0.00    +0.105 C 
ATOM     30  N   LIG    1       -0.635   3.734  -2.997  0.00  0.00    -0.302 NA
ATOM     31  C   LIG    1        0.760   3.586  -2.542  0.00  0.00    +0.103 C 
ATOM     32  C   LIG    1        1.571   2.459  -3.225  0.00  0.00    +0.120 C 
ATOM     33  N   LIG    1        0.855   1.154  -3.275  0.00  0.00    -0.327 N 
ATOM     34  C   LIG    1       -0.592   1.257  -3.558  0.00  0.00    +0.120 C 
ATOM     35  C   LIG    1       -1.289   2.422  -2.833  0.00  0.00    +0.103 C 
ENDBRANCH  23  33
BRANCH  25  36
ATOM     36  N   LIG    1        4.876  -1.525  -3.666  0.00  0.00    -0.340 N 
ATOM     37  H   LIG    1        5.218  -2.403  -4.060  0.00  0.00    +0.146 HD
BRANCH  36  38
ATOM     38  C   LIG    1        5.178  -1.491  -2.181  0.00  0.00    +0.075 C 
ATOM     39  C   LIG    1        4.149  -2.125  -1.243  0.00  0.00    +0.050 C 
ATOM     40  C   LIG    1        3.033  -1.161  -0.881  0.00  0.00    +0.161 C 
ATOM     41  O   LIG    1        3.533   0.076  -0.361  0.00  0.00    -0.380 OA
ATOM     42  C   LIG    1        4.508   0.754  -1.148  0.00  0.00    +0.161 C 
ATOM     43  C   LIG    1        5.638  -0.143  -1.611  0.00  0.00    +0.050 C 
ENDBRANCH  36  38
ENDBRANCH  25  36
ENDBRANCH   1  26
BRANCH   2  44
ATOM     44  C   LIG    1        4.480  -3.333  -8.872  0.00  0.00    +0.138 C 
BRANCH  44  45
ATOM     45  C   LIG    1        5.904  -2.778  -8.994  0.00  0.00    +0.175 C 
BRANCH  45  46
ATOM     46  O   LIG    1        6.503  -3.246 -10.210  0.00  0.00    -0.393 OA
ATOM     47  H   LIG    1        7.362  -2.793 -10.284  0.00  0.00    +0.209 HD
ENDBRANCH  45  46
ENDBRANCH  44  45
ENDBRANCH   2  44
TORSDOF 10
