REMARK  Name = modded_pdb/CHEMBL2037222_nitrogen_modded_with_ethanol_version_3.pdb
REMARK                            x       y       z     vdW  Elec       q    Type
REMARK                         _______ _______ _______ _____ _____    ______ ____
ROOT
ATOM      1  N   LIG    1        9.432   1.437 -11.385  0.00  0.00    -0.314 N 
ATOM      2  H   LIG    1        8.891   0.616 -11.638  0.00  0.00    +0.152 HD
ENDROOT
BRANCH   1   3
ATOM      3  C   LIG    1       10.504   1.671 -12.275  0.00  0.00    +0.033 A 
ATOM      4  C   LIG    1       11.784   1.960 -11.804  0.00  0.00    +0.047 A 
ATOM      5  C   LIG    1       12.805   2.151 -12.721  0.00  0.00    +0.046 A 
ATOM      6  N   LIG    1       14.152   2.404 -12.442  0.00  0.00    -0.265 N 
ATOM      7  C   LIG    1       14.901   2.469 -13.604  0.00  0.00    +0.252 C 
ATOM      8  O   LIG    1       16.114   2.569 -13.663  0.00  0.00    -0.270 OA
ATOM      9  C   LIG    1       13.910   2.314 -14.746  0.00  0.00    +0.048 C 
ATOM     10  C   LIG    1       14.116   2.400 -16.077  0.00  0.00    +0.039 C 
ATOM     11  C   LIG    1       12.602   2.081 -14.105  0.00  0.00    +0.009 A 
ATOM     12  C   LIG    1       11.339   1.816 -14.597  0.00  0.00    +0.012 A 
ATOM     13  C   LIG    1       10.294   1.617 -13.675  0.00  0.00    +0.024 A 
BRANCH  10  14
ATOM     14  C   LIG    1       15.358   2.682 -16.721  0.00  0.00    +0.044 A 
ATOM     15  C   LIG    1       15.718   3.244 -17.940  0.00  0.00    -0.012 A 
ATOM     16  C   LIG    1       14.819   3.740 -19.024  0.00  0.00    +0.047 C 
ATOM     17  C   LIG    1       17.165   3.330 -17.975  0.00  0.00    +0.082 A 
ATOM     18  C   LIG    1       17.623   2.773 -16.788  0.00  0.00    +0.028 A 
ATOM     19  C   LIG    1       18.967   2.550 -16.191  0.00  0.00    +0.064 C 
ATOM     20  N   LIG    1       16.527   2.313 -16.114  0.00  0.00    -0.358 N 
ATOM     21  H   LIG    1       16.586   1.881 -15.200  0.00  0.00    +0.166 HD
BRANCH  17  22
ATOM     22  C   LIG    1       17.974   3.885 -19.058  0.00  0.00    +0.339 C 
ATOM     23  O   LIG    1       17.627   3.876 -20.237  0.00  0.00    -0.245 OA
BRANCH  22  24
ATOM     24  O   LIG    1       19.136   4.461 -18.669  0.00  0.00    -0.477 OA
ATOM     25  H   LIG    1       19.168   4.535 -17.699  0.00  0.00    +0.295 HD
ENDBRANCH  22  24
ENDBRANCH  17  22
ENDBRANCH  10  14
BRANCH   6  26
ATOM     26  C   LIG    1       14.723   2.527 -11.116  0.00  0.00    +0.142 C 
BRANCH  26  27
ATOM     27  C   LIG    1       14.810   3.982 -10.651  0.00  0.00    +0.175 C 
BRANCH  27  28
ATOM     28  O   LIG    1       13.516   4.573 -10.555  0.00  0.00    -0.393 OA
ATOM     29  H   LIG    1       13.129   4.541 -11.449  0.00  0.00    +0.209 HD
ENDBRANCH  27  28
ENDBRANCH  26  27
ENDBRANCH   6  26
ENDBRANCH   1   3
BRANCH   1  32
ATOM     30  C   LIG    1        8.107   1.675  -7.877  0.00  0.00    +0.035 A 
ATOM     31  C   LIG    1        8.455   1.164  -9.149  0.00  0.00    +0.046 A 
ATOM     32  C   LIG    1        9.189   1.931 -10.078  0.00  0.00    +0.033 A 
ATOM     33  C   LIG    1        9.622   3.201  -9.673  0.00  0.00    +0.023 A 
ATOM     34  C   LIG    1        9.310   3.703  -8.404  0.00  0.00    +0.004 A 
ATOM     35  C   LIG    1        8.570   2.936  -7.506  0.00  0.00    +0.023 A 
BRANCH  30  37
ATOM     36  C   LIG    1        6.503   1.390  -5.977  0.00  0.00    +0.248 C 
ATOM     37  N   LIG    1        7.265   0.899  -7.040  0.00  0.00    -0.281 N 
ATOM     38  H   LIG    1        7.052  -0.032  -7.372  0.00  0.00    +0.155 HD
ATOM     39  O   LIG    1        6.442   2.557  -5.611  0.00  0.00    -0.270 OA
BRANCH  36  44
ATOM     40  C   LIG    1        3.437  -0.115  -4.309  0.00  0.00    +0.031 A 
ATOM     41  C   LIG    1        3.829  -1.458  -4.320  0.00  0.00    +0.035 A 
ATOM     42  C   LIG    1        5.096  -1.884  -4.746  0.00  0.00    +0.057 A 
ATOM     43  C   LIG    1        6.004  -0.941  -5.217  0.00  0.00    +0.025 A 
ATOM     44  C   LIG    1        5.618   0.395  -5.315  0.00  0.00    +0.039 A 
ATOM     45  C   LIG    1        4.363   0.810  -4.824  0.00  0.00    +0.036 A 
BRANCH  40  50
ATOM     46  C   LIG    1       -0.301  -0.336  -1.053  0.00  0.00    +0.105 C 
ATOM     47  N   LIG    1        0.964  -0.967  -1.403  0.00  0.00    -0.302 NA
ATOM     48  C   LIG    1        2.102  -0.015  -1.370  0.00  0.00    +0.103 C 
ATOM     49  C   LIG    1        2.195   0.998  -2.543  0.00  0.00    +0.120 C 
ATOM     50  N   LIG    1        2.178   0.302  -3.851  0.00  0.00    -0.327 N 
ATOM     51  C   LIG    1        1.030  -0.635  -3.950  0.00  0.00    +0.120 C 
ATOM     52  C   LIG    1        0.892  -1.594  -2.737  0.00  0.00    +0.103 C 
ENDBRANCH  40  50
BRANCH  42  53
ATOM     53  C   LIG    1        5.409  -3.354  -4.731  0.00  0.00    +0.417 C 
ATOM     54  F   LIG    1        4.533  -4.065  -5.493  0.00  0.00    -0.166 F 
ATOM     55  F   LIG    1        5.329  -3.889  -3.482  0.00  0.00    -0.166 F 
ATOM     56  F   LIG    1        6.651  -3.649  -5.199  0.00  0.00    -0.166 F 
ENDBRANCH  42  53
ENDBRANCH  36  44
ENDBRANCH  30  37
ENDBRANCH   1  32
TORSDOF 12
