REMARK  Name = modded_pdb/CHEMBL2037226_nitrogen_modded_with_ethanol_version_1.pdb
REMARK                            x       y       z     vdW  Elec       q    Type
REMARK                         _______ _______ _______ _____ _____    ______ ____
ROOT
ATOM      1  C   LIG    1        1.166   0.344   1.863  0.00  0.00    +0.045 C 
ATOM      2  C   LIG    1        2.567   0.115   1.364  0.00  0.00    -0.029 A 
ATOM      3  C   LIG    1        2.961  -1.019   0.629  0.00  0.00    +0.036 A 
ATOM      4  C   LIG    1        4.247  -1.036   0.055  0.00  0.00    +0.047 A 
ATOM      5  C   LIG    1        5.182  -0.001   0.223  0.00  0.00    +0.040 A 
ATOM      6  C   LIG    1        4.810   1.034   1.083  0.00  0.00    +0.024 A 
ATOM      7  C   LIG    1        3.520   1.110   1.619  0.00  0.00    +0.007 A 
ENDROOT
BRANCH   5   8
ATOM      8  N   LIG    1        6.465  -0.032  -0.468  0.00  0.00    -0.253 N 
ATOM      9  C   LIG    1        7.192   1.159  -0.693  0.00  0.00    +0.311 C 
ATOM     10  N   LIG    1        8.377   1.016  -1.396  0.00  0.00    -0.267 N 
ATOM     11  H   LIG    1        8.574   0.154  -1.870  0.00  0.00    +0.156 HD
ATOM     12  O   LIG    1        6.794   2.268  -0.336  0.00  0.00    -0.252 OA
BRANCH  10  13
ATOM     13  C   LIG    1        9.333   2.004  -1.706  0.00  0.00    +0.071 A 
ATOM     14  C   LIG    1       10.479   1.600  -2.404  0.00  0.00    +0.145 A 
ATOM     15  F   LIG    1       10.639   0.306  -2.727  0.00  0.00    -0.204 F 
ATOM     16  C   LIG    1       11.461   2.513  -2.775  0.00  0.00    +0.041 A 
ATOM     17  C   LIG    1       11.306   3.858  -2.441  0.00  0.00    +0.015 A 
ATOM     18  C   LIG    1       10.170   4.286  -1.735  0.00  0.00    +0.057 A 
ATOM     19  C   LIG    1        9.194   3.347  -1.374  0.00  0.00    +0.038 A 
BRANCH  18  20
ATOM     20  C   LIG    1        9.978   5.736  -1.363  0.00  0.00    +0.417 C 
ATOM     21  F   LIG    1        9.952   6.550  -2.453  0.00  0.00    -0.166 F 
ATOM     22  F   LIG    1       10.980   6.201  -0.567  0.00  0.00    -0.166 F 
ATOM     23  F   LIG    1        8.821   5.982  -0.687  0.00  0.00    -0.166 F 
ENDBRANCH  18  20
ENDBRANCH  10  13
BRANCH   8  24
ATOM     24  C   LIG    1        6.963  -1.369  -0.865  0.00  0.00    +0.143 C 
BRANCH  24  25
ATOM     25  C   LIG    1        7.253  -2.277   0.331  0.00  0.00    +0.175 C 
BRANCH  25  26
ATOM     26  O   LIG    1        8.218  -1.681   1.190  0.00  0.00    -0.393 OA
ATOM     27  H   LIG    1        8.332  -2.279   1.948  0.00  0.00    +0.209 HD
ENDBRANCH  25  26
ENDBRANCH  24  25
ENDBRANCH   8  24
ENDBRANCH   5   8
BRANCH   3  28
ATOM     28  N   LIG    1        2.098  -2.125   0.446  0.00  0.00    -0.314 N 
ATOM     29  H   LIG    1        1.196  -1.840   0.078  0.00  0.00    +0.152 HD
BRANCH  28  30
ATOM     30  C   LIG    1        2.399  -3.501   0.286  0.00  0.00    +0.033 A 
ATOM     31  C   LIG    1        3.497  -4.115   0.912  0.00  0.00    +0.047 A 
ATOM     32  C   LIG    1        3.656  -5.486   0.765  0.00  0.00    +0.043 A 
ATOM     33  N   LIG    1        4.651  -6.273   1.340  0.00  0.00    -0.281 N 
ATOM     34  H   LIG    1        5.391  -5.959   1.936  0.00  0.00    +0.155 HD
ATOM     35  C   LIG    1        4.461  -7.615   1.044  0.00  0.00    +0.249 C 
ATOM     36  O   LIG    1        5.153  -8.533   1.458  0.00  0.00    -0.270 OA
ATOM     37  C   LIG    1        3.218  -7.674   0.188  0.00  0.00    +0.048 C 
ATOM     38  C   LIG    1        2.569  -8.740  -0.314  0.00  0.00    +0.039 C 
ATOM     39  C   LIG    1        2.776  -6.277   0.023  0.00  0.00    +0.008 A 
ATOM     40  C   LIG    1        1.719  -5.688  -0.642  0.00  0.00    +0.012 A 
ATOM     41  C   LIG    1        1.542  -4.302  -0.507  0.00  0.00    +0.024 A 
BRANCH  38  42
ATOM     42  C   LIG    1        2.909 -10.110  -0.142  0.00  0.00    +0.040 A 
ATOM     43  N   LIG    1        3.546 -10.554   0.993  0.00  0.00    -0.361 N 
ATOM     44  H   LIG    1        3.900  -9.958   1.733  0.00  0.00    +0.165 HD
ATOM     45  C   LIG    1        3.752 -11.906   0.927  0.00  0.00    +0.083 A 
ATOM     46  C   LIG    1        3.215 -12.356  -0.254  0.00  0.00    +0.019 A 
ATOM     47  C   LIG    1        2.666 -11.230  -0.919  0.00  0.00    +0.027 A 
ENDBRANCH  38  42
ENDBRANCH  28  30
ENDBRANCH   3  28
TORSDOF 9
