REMARK  Name = modded_pdb/CHEMBL2037222_nitrogen_modded_with_ethanol_version_2.pdb
REMARK                            x       y       z     vdW  Elec       q    Type
REMARK                         _______ _______ _______ _____ _____    ______ ____
ROOT
ATOM      1  N   LIG    1        9.686   1.187 -11.175  0.00  0.00    -0.298 N 
ENDROOT
BRANCH   1   2
ATOM      2  C   LIG    1       10.793   1.878 -11.742  0.00  0.00    +0.036 A 
ATOM      3  C   LIG    1       11.650   2.621 -10.918  0.00  0.00    +0.047 A 
ATOM      4  C   LIG    1       12.746   3.248 -11.479  0.00  0.00    +0.043 A 
ATOM      5  N   LIG    1       13.643   4.046 -10.792  0.00  0.00    -0.281 N 
ATOM      6  H   LIG    1       13.603   4.279  -9.812  0.00  0.00    +0.155 HD
ATOM      7  C   LIG    1       14.617   4.538 -11.626  0.00  0.00    +0.249 C 
ATOM      8  O   LIG    1       15.516   5.277 -11.270  0.00  0.00    -0.270 OA
ATOM      9  C   LIG    1       14.324   3.966 -13.004  0.00  0.00    +0.048 C 
ATOM     10  C   LIG    1       15.000   4.112 -14.165  0.00  0.00    +0.039 C 
ATOM     11  C   LIG    1       13.085   3.166 -12.830  0.00  0.00    +0.008 A 
ATOM     12  C   LIG    1       12.252   2.461 -13.675  0.00  0.00    +0.012 A 
ATOM     13  C   LIG    1       11.109   1.835 -13.127  0.00  0.00    +0.024 A 
BRANCH  10  14
ATOM     14  C   LIG    1       16.157   4.920 -14.429  0.00  0.00    +0.044 A 
ATOM     15  C   LIG    1       16.893   5.207 -15.579  0.00  0.00    -0.012 A 
ATOM     16  C   LIG    1       16.677   4.632 -16.945  0.00  0.00    +0.047 C 
ATOM     17  C   LIG    1       17.928   6.170 -15.229  0.00  0.00    +0.082 A 
ATOM     18  C   LIG    1       17.768   6.427 -13.873  0.00  0.00    +0.028 A 
ATOM     19  C   LIG    1       18.410   7.358 -12.905  0.00  0.00    +0.064 C 
ATOM     20  N   LIG    1       16.752   5.632 -13.426  0.00  0.00    -0.358 N 
ATOM     21  H   LIG    1       16.456   5.634 -12.459  0.00  0.00    +0.166 HD
BRANCH  17  22
ATOM     22  C   LIG    1       18.916   6.791 -16.109  0.00  0.00    +0.339 C 
ATOM     23  O   LIG    1       18.748   6.950 -17.326  0.00  0.00    -0.245 OA
BRANCH  22  24
ATOM     24  O   LIG    1       20.072   7.174 -15.515  0.00  0.00    -0.477 OA
ATOM     25  H   LIG    1       20.096   6.891 -14.588  0.00  0.00    +0.295 HD
ENDBRANCH  22  24
ENDBRANCH  17  22
ENDBRANCH  10  14
ENDBRANCH   1   2
BRANCH   1  28
ATOM     26  C   LIG    1        7.508   1.083  -8.100  0.00  0.00    +0.035 A 
ATOM     27  C   LIG    1        8.322   0.673  -9.165  0.00  0.00    +0.046 A 
ATOM     28  C   LIG    1        8.923   1.595 -10.041  0.00  0.00    +0.036 A 
ATOM     29  C   LIG    1        8.741   2.959  -9.734  0.00  0.00    +0.023 A 
ATOM     30  C   LIG    1        7.918   3.377  -8.677  0.00  0.00    +0.004 A 
ATOM     31  C   LIG    1        7.244   2.437  -7.899  0.00  0.00    +0.023 A 
BRANCH  26  33
ATOM     32  C   LIG    1        7.699  -0.744  -6.468  0.00  0.00    +0.248 C 
ATOM     33  N   LIG    1        6.926   0.123  -7.246  0.00  0.00    -0.281 N 
ATOM     34  H   LIG    1        5.965   0.296  -7.001  0.00  0.00    +0.155 HD
ATOM     35  O   LIG    1        8.920  -0.844  -6.546  0.00  0.00    -0.270 OA
BRANCH  32  40
ATOM     36  C   LIG    1        4.881  -2.176  -4.281  0.00  0.00    +0.031 A 
ATOM     37  C   LIG    1        5.611  -3.054  -3.478  0.00  0.00    +0.035 A 
ATOM     38  C   LIG    1        7.002  -3.205  -3.627  0.00  0.00    +0.057 A 
ATOM     39  C   LIG    1        7.684  -2.446  -4.597  0.00  0.00    +0.025 A 
ATOM     40  C   LIG    1        6.973  -1.563  -5.430  0.00  0.00    +0.039 A 
ATOM     41  C   LIG    1        5.589  -1.452  -5.250  0.00  0.00    +0.036 A 
BRANCH  36  46
ATOM     42  C   LIG    1        0.426  -3.790  -3.658  0.00  0.00    +0.105 C 
ATOM     43  N   LIG    1        0.581  -2.353  -3.867  0.00  0.00    -0.302 NA
ATOM     44  C   LIG    1        1.203  -2.060  -5.175  0.00  0.00    +0.103 C 
ATOM     45  C   LIG    1        2.700  -2.443  -5.303  0.00  0.00    +0.120 C 
ATOM     46  N   LIG    1        3.504  -1.938  -4.162  0.00  0.00    -0.327 N 
ATOM     47  C   LIG    1        2.897  -2.130  -2.831  0.00  0.00    +0.120 C 
ATOM     48  C   LIG    1        1.406  -1.726  -2.814  0.00  0.00    +0.103 C 
ENDBRANCH  36  46
BRANCH  38  49
ATOM     49  C   LIG    1        7.690  -4.194  -2.727  0.00  0.00    +0.417 C 
ATOM     50  F   LIG    1        7.206  -5.461  -2.877  0.00  0.00    -0.166 F 
ATOM     51  F   LIG    1        7.532  -3.900  -1.405  0.00  0.00    -0.166 F 
ATOM     52  F   LIG    1        9.033  -4.285  -2.928  0.00  0.00    -0.166 F 
ENDBRANCH  38  49
ENDBRANCH  32  40
ENDBRANCH  26  33
ENDBRANCH   1  28
BRANCH   1  53
ATOM     53  C   LIG    1        9.233  -0.047 -11.867  0.00  0.00    +0.138 C 
BRANCH  53  54
ATOM     54  C   LIG    1       10.302  -1.153 -11.900  0.00  0.00    +0.175 C 
BRANCH  54  55
ATOM     55  O   LIG    1        9.762  -2.356 -12.454  0.00  0.00    -0.393 OA
ATOM     56  H   LIG    1        9.230  -2.774 -11.754  0.00  0.00    +0.209 HD
ENDBRANCH  54  55
ENDBRANCH  53  54
ENDBRANCH   1  53
TORSDOF 12
