REMARK  Name = pdb/CHEMBL94678.pdb
REMARK                            x       y       z     vdW  Elec       q    Type
REMARK                         _______ _______ _______ _____ _____    ______ ____
ROOT
ATOM      1  C   LIG    1        6.255   0.572   1.190  0.00  0.00    +0.214 C 
ATOM      2  C   LIG    1        7.410   1.168   0.319  0.00  0.00    +0.186 C 
ATOM      3  N   LIG    1        8.777   0.899   0.759  0.00  0.00    -0.306 N 
ATOM      4  C   LIG    1        9.529  -0.236   0.613  0.00  0.00    +0.077 A 
ATOM      5  C   LIG    1        9.124  -1.437   0.038  0.00  0.00    +0.077 A 
ATOM      6  N   LIG    1        7.914  -1.675  -0.519  0.00  0.00    -0.311 N 
ATOM      7  C   LIG    1        7.999  -3.048  -0.797  0.00  0.00    +0.052 A 
ATOM      8  C   LIG    1        7.008  -3.895  -1.332  0.00  0.00    +0.026 A 
ATOM      9  C   LIG    1        7.291  -5.249  -1.514  0.00  0.00    +0.002 A 
ATOM     10  C   LIG    1        8.534  -5.766  -1.180  0.00  0.00    +0.001 A 
ATOM     11  C   LIG    1        9.531  -4.942  -0.647  0.00  0.00    +0.010 A 
ATOM     12  C   LIG    1        9.300  -3.564  -0.433  0.00  0.00    +0.008 A 
ATOM     13  C   LIG    1        6.782  -0.805  -0.692  0.00  0.00    +0.226 C 
ATOM     14  C   LIG    1       10.050  -2.488   0.109  0.00  0.00    +0.022 A 
ATOM     15  C   LIG    1       11.349  -2.543   0.651  0.00  0.00    +0.052 A 
ATOM     16  C   LIG    1       12.393  -3.513   0.800  0.00  0.00    +0.245 C 
ATOM     17  O   LIG    1       12.535  -4.676   0.468  0.00  0.00    -0.270 OA
ATOM     18  N   LIG    1       13.388  -2.814   1.488  0.00  0.00    -0.307 N 
ATOM     19  H   LIG    1       14.253  -3.285   1.710  0.00  0.00    +0.149 HD
ATOM     20  C   LIG    1       13.094  -1.431   1.822  0.00  0.00    +0.141 C 
ATOM     21  C   LIG    1       11.760  -1.326   1.235  0.00  0.00    -0.008 A 
ATOM     22  C   LIG    1       10.814  -0.287   1.163  0.00  0.00    +0.015 A 
ATOM     23  C   LIG    1       10.913   0.975   1.788  0.00  0.00    +0.008 A 
ATOM     24  C   LIG    1       11.901   1.604   2.584  0.00  0.00    +0.010 A 
ATOM     25  C   LIG    1       11.680   2.858   3.152  0.00  0.00    +0.001 A 
ATOM     26  C   LIG    1       10.482   3.516   2.939  0.00  0.00    +0.002 A 
ATOM     27  C   LIG    1        9.478   2.948   2.148  0.00  0.00    +0.026 A 
ATOM     28  C   LIG    1        9.665   1.682   1.552  0.00  0.00    +0.053 A 
ATOM     29  C   LIG    1        7.171   2.647  -0.032  0.00  0.00    +0.070 C 
ATOM     30  O   LIG    1        7.268   0.504  -0.963  0.00  0.00    -0.327 OA
ATOM     31  C   LIG    1        5.914  -0.761   0.550  0.00  0.00    +0.106 C 
ENDROOT
BRANCH   1  32
ATOM     32  C   LIG    1        6.504   0.471   2.697  0.00  0.00    +0.344 C 
ATOM     33  O   LIG    1        5.670   0.855   3.515  0.00  0.00    -0.247 OA
BRANCH  32  35
ATOM     34  C   LIG    1        8.179   0.349   4.305  0.00  0.00    +0.280 C 
ATOM     35  O   LIG    1        7.689  -0.079   3.032  0.00  0.00    -0.466 OA
ENDBRANCH  32  35
ENDBRANCH   1  32
BRANCH   1  36
ATOM     36  O   LIG    1        5.044   1.374   1.049  0.00  0.00    -0.374 OA
ATOM     37  H   LIG    1        4.510   1.224   1.859  0.00  0.00    +0.211 HD
ENDBRANCH   1  36
TORSDOF 3
