REMARK  Name = pdb/CHEMBL3678283.pdb
REMARK                            x       y       z     vdW  Elec       q    Type
REMARK                         _______ _______ _______ _____ _____    ______ ____
ROOT
ATOM      1  C   LIG    1        2.476   2.605  -0.293  0.00  0.00    +0.162 A 
ATOM      2  C   LIG    1        3.400   2.724  -1.375  0.00  0.00    +0.162 A 
ATOM      3  C   LIG    1        3.306   3.850  -2.204  0.00  0.00    +0.050 A 
ATOM      4  C   LIG    1        2.601   4.960  -1.863  0.00  0.00    +0.009 A 
ATOM      5  C   LIG    1        1.803   4.941  -0.739  0.00  0.00    -0.024 A 
ATOM      6  C   LIG    1        1.718   3.752   0.016  0.00  0.00    +0.054 A 
ENDROOT
BRANCH   1   8
ATOM      7  C   LIG    1        1.203   1.326   1.377  0.00  0.00    +0.277 C 
ATOM      8  O   LIG    1        2.299   1.431   0.422  0.00  0.00    -0.491 OA
ENDBRANCH   1   8
BRANCH   2   9
ATOM      9  O   LIG    1        4.425   1.832  -1.670  0.00  0.00    -0.484 OA
BRANCH   9  10
ATOM     10  C   LIG    1        5.353   2.280  -2.729  0.00  0.00    +0.264 C 
BRANCH  10  11
ATOM     11  C   LIG    1        4.926   1.801  -4.114  0.00  0.00    -0.010 A 
ATOM     12  C   LIG    1        3.628   1.326  -4.363  0.00  0.00    +0.010 A 
ATOM     13  C   LIG    1        3.280   0.757  -5.591  0.00  0.00    +0.046 A 
ATOM     14  C   LIG    1        4.242   0.620  -6.592  0.00  0.00    +0.130 A 
ATOM     15  C   LIG    1        5.496   1.192  -6.389  0.00  0.00    +0.046 A 
ATOM     16  C   LIG    1        5.828   1.809  -5.180  0.00  0.00    +0.010 A 
BRANCH  14  17
ATOM     17  O   LIG    1        3.867  -0.069  -7.706  0.00  0.00    -0.406 OA
BRANCH  17  18
ATOM     18  C   LIG    1        4.877  -0.614  -8.554  0.00  0.00    +0.575 C 
ATOM     19  F   LIG    1        5.013   0.153  -9.658  0.00  0.00    -0.133 F 
ATOM     20  F   LIG    1        4.491  -1.850  -8.944  0.00  0.00    -0.133 F 
ATOM     21  F   LIG    1        6.089  -0.750  -7.971  0.00  0.00    -0.133 F 
ENDBRANCH  17  18
ENDBRANCH  14  17
ENDBRANCH  10  11
ENDBRANCH   9  10
ENDBRANCH   2   9
BRANCH   5  22
ATOM     22  C   LIG    1        1.070   6.190  -0.345  0.00  0.00    +0.161 C 
BRANCH  22  23
ATOM     23  N   LIG    1        0.683   7.002  -1.498  0.00  0.00    -0.293 N 
ATOM     24  C   LIG    1       -0.461   6.802  -2.217  0.00  0.00    +0.162 A 
ATOM     25  N   LIG    1       -1.436   5.917  -1.979  0.00  0.00    -0.235 NA
ATOM     26  C   LIG    1       -2.440   6.006  -2.893  0.00  0.00    +0.121 A 
ATOM     27  C   LIG    1       -2.517   6.897  -3.974  0.00  0.00    +0.005 A 
ATOM     28  C   LIG    1       -1.447   7.781  -4.164  0.00  0.00    +0.041 A 
ATOM     29  C   LIG    1       -0.380   7.727  -3.255  0.00  0.00    +0.110 A 
ATOM     30  N   LIG    1        0.772   8.448  -3.197  0.00  0.00    -0.213 NA
ATOM     31  C   LIG    1        1.419   7.989  -2.107  0.00  0.00    +0.195 A 
BRANCH  27  32
ATOM     32  C   LIG    1       -3.664   6.917  -4.870  0.00  0.00    +0.021 A 
ATOM     33  C   LIG    1       -4.781   6.115  -4.764  0.00  0.00    +0.116 A 
ATOM     34  N   LIG    1       -5.608   6.459  -5.794  0.00  0.00    -0.274 N 
ATOM     35  C   LIG    1       -6.888   5.867  -6.098  0.00  0.00    +0.172 C 
ATOM     36  N   LIG    1       -5.116   7.436  -6.571  0.00  0.00    -0.179 NA
ATOM     37  C   LIG    1       -3.938   7.718  -6.008  0.00  0.00    +0.143 A 
ENDBRANCH  27  32
BRANCH  31  38
ATOM     38  N   LIG    1        2.616   8.389  -1.741  0.00  0.00    -0.329 N 
ATOM     39  H   LIG    1        2.998   9.200  -2.221  0.00  0.00    +0.145 HD
ATOM     40  H   LIG    1        2.929   8.329  -0.768  0.00  0.00    +0.145 HD
ENDBRANCH  31  38
ENDBRANCH  22  23
ENDBRANCH   5  22
TORSDOF 10
