REMARK  Name = pdb/CHEMBL3930393.pdb
REMARK                            x       y       z     vdW  Elec       q    Type
REMARK                         _______ _______ _______ _____ _____    ______ ____
ROOT
ATOM      1  C   LIG    1        3.688  -0.811  -0.911  0.00  0.00    +0.149 A 
ATOM      2  N   LIG    1        3.463  -1.565  -1.998  0.00  0.00    -0.160 NA
ATOM      3  N   LIG    1        4.076  -0.921  -3.016  0.00  0.00    -0.218 N 
ATOM      4  C   LIG    1        4.532   0.344  -2.629  0.00  0.00    +0.129 A 
ATOM      5  C   LIG    1        4.332   0.400  -1.268  0.00  0.00    +0.078 A 
ENDROOT
BRANCH   3   6
ATOM      6  C   LIG    1        4.204  -1.565  -4.278  0.00  0.00    +0.067 A 
ATOM      7  C   LIG    1        5.282  -1.276  -5.119  0.00  0.00    +0.028 A 
ATOM      8  C   LIG    1        5.410  -1.918  -6.353  0.00  0.00    +0.002 A 
ATOM      9  C   LIG    1        4.480  -2.879  -6.738  0.00  0.00    +0.000 A 
ATOM     10  C   LIG    1        3.418  -3.197  -5.892  0.00  0.00    +0.002 A 
ATOM     11  C   LIG    1        3.281  -2.547  -4.661  0.00  0.00    +0.028 A 
ENDBRANCH   3   6
BRANCH   4  12
ATOM     12  N   LIG    1        5.010   1.371  -3.460  0.00  0.00    -0.266 N 
ATOM     13  H   LIG    1        4.880   1.248  -4.459  0.00  0.00    +0.157 HD
ATOM     14  C   LIG    1        5.654   2.566  -2.983  0.00  0.00    +0.251 C 
ATOM     15  O   LIG    1        5.838   2.739  -1.780  0.00  0.00    -0.270 OA
BRANCH  14  16
ATOM     16  C   LIG    1        6.068   3.604  -3.964  0.00  0.00    +0.056 A 
ATOM     17  C   LIG    1        6.459   3.330  -5.271  0.00  0.00    +0.054 A 
ATOM     18 CL   LIG    1        6.636   1.749  -5.913  0.00  0.00    -0.083 Cl
ATOM     19  C   LIG    1        6.759   4.376  -6.142  0.00  0.00    +0.041 A 
ATOM     20  C   LIG    1        6.705   5.713  -5.721  0.00  0.00    +0.052 A 
ATOM     21 CL   LIG    1        6.872   6.875  -6.991  0.00  0.00    -0.083 Cl
ATOM     22  C   LIG    1        6.434   6.039  -4.379  0.00  0.00    +0.022 A 
ATOM     23  C   LIG    1        6.094   4.948  -3.529  0.00  0.00    +0.026 A 
BRANCH  22  24
ATOM     24  C   LIG    1        6.441   7.415  -3.805  0.00  0.00    +0.107 A 
ATOM     25  C   LIG    1        7.305   8.450  -4.177  0.00  0.00    +0.149 A 
ATOM     26  F   LIG    1        8.291   8.270  -5.066  0.00  0.00    -0.203 F 
ATOM     27  C   LIG    1        7.204   9.701  -3.571  0.00  0.00    +0.042 A 
ATOM     28  C   LIG    1        6.287   9.889  -2.548  0.00  0.00    +0.023 A 
ATOM     29  C   LIG    1        5.505   8.810  -2.179  0.00  0.00    +0.111 A 
ATOM     30  N   LIG    1        5.549   7.598  -2.788  0.00  0.00    -0.252 NA
ENDBRANCH  22  24
ENDBRANCH  14  16
ENDBRANCH   4  12
BRANCH   1  31
ATOM     31  C   LIG    1        3.248  -1.215   0.426  0.00  0.00    +0.236 C 
ATOM     32  N   LIG    1        3.435  -0.438   1.430  0.00  0.00    -0.243 NA
BRANCH  32  33
ATOM     33  C   LIG    1        2.999  -0.785   2.778  0.00  0.00    +0.137 C 
ATOM     34  C   LIG    1        3.455   0.270   3.790  0.00  0.00    +0.186 C 
ATOM     35  O   LIG    1        3.594  -0.395   5.058  0.00  0.00    -0.378 OA
ATOM     36  C   LIG    1        3.546  -1.806   4.830  0.00  0.00    +0.162 C 
ATOM     37  C   LIG    1        3.685  -2.012   3.341  0.00  0.00    +0.057 C 
ENDBRANCH  32  33
BRANCH  31  38
ATOM     38  O   LIG    1        2.650  -2.422   0.481  0.00  0.00    -0.491 OA
ATOM     39  H   LIG    1        2.298  -2.620   1.354  0.00  0.00    +0.294 HD
ENDBRANCH  31  38
ENDBRANCH   1  31
TORSDOF 7
