REMARK  Name = pdb/CHEMBL3676028.pdb
REMARK                            x       y       z     vdW  Elec       q    Type
REMARK                         _______ _______ _______ _____ _____    ______ ____
ROOT
ATOM      1  C   LIG    1       -0.317  -0.510   0.201  0.00  0.00    +0.126 A 
ATOM      2  N   LIG    1        0.279   0.268  -0.677  0.00  0.00    -0.212 NA
ATOM      3  C   LIG    1       -0.226   1.528  -0.876  0.00  0.00    +0.170 A 
ATOM      4  C   LIG    1        0.164   2.563  -1.709  0.00  0.00    +0.100 A 
ATOM      5  C   LIG    1       -0.739   3.606  -1.430  0.00  0.00    +0.150 A 
ATOM      6  N   LIG    1       -1.658   3.273  -0.526  0.00  0.00    -0.173 NA
ATOM      7  N   LIG    1       -1.335   2.005  -0.178  0.00  0.00    -0.221 N 
ATOM      8  C   LIG    1       -1.977   1.200   0.745  0.00  0.00    +0.118 A 
ATOM      9  C   LIG    1       -1.529  -0.036   0.984  0.00  0.00    +0.063 A 
ENDROOT
BRANCH   1  11
ATOM     10  C   LIG    1        1.374  -2.322  -0.285  0.00  0.00    +0.110 C 
ATOM     11  N   LIG    1        0.162  -1.801   0.414  0.00  0.00    -0.308 N 
ATOM     12  C   LIG    1       -0.756  -2.908   0.709  0.00  0.00    +0.107 C 
ATOM     13  C   LIG    1       -0.355  -4.001  -0.263  0.00  0.00    +0.021 C 
ATOM     14  C   LIG    1        1.152  -3.850  -0.319  0.00  0.00    +0.029 C 
BRANCH  10  16
ATOM     15  C   LIG    1        3.910  -1.987  -0.250  0.00  0.00    +0.220 A 
ATOM     16  C   LIG    1        2.678  -1.999   0.423  0.00  0.00    +0.037 A 
ATOM     17  C   LIG    1        2.725  -1.786   1.811  0.00  0.00    +0.050 A 
ATOM     18  C   LIG    1        3.943  -1.575   2.445  0.00  0.00    +0.142 A 
ATOM     19  F   LIG    1        3.992  -1.368   3.766  0.00  0.00    -0.204 F 
ATOM     20  C   LIG    1        5.099  -1.598   1.695  0.00  0.00    +0.153 A 
ATOM     21  N   LIG    1        5.108  -1.806   0.363  0.00  0.00    -0.218 NA
BRANCH  15  23
ATOM     22  C   LIG    1        5.232  -2.056  -2.181  0.00  0.00    +0.279 C 
ATOM     23  O   LIG    1        3.922  -2.200  -1.615  0.00  0.00    -0.479 OA
ENDBRANCH  15  23
ENDBRANCH  10  16
ENDBRANCH   1  11
BRANCH   4  24
ATOM     24  C   LIG    1        1.249   2.592  -2.649  0.00  0.00    +0.249 C 
ATOM     25  N   LIG    1        1.602   1.376  -3.178  0.00  0.00    -0.309 N 
ATOM     26  H   LIG    1        1.149   0.552  -2.792  0.00  0.00    +0.149 HD
ATOM     27  O   LIG    1        1.813   3.646  -2.959  0.00  0.00    -0.270 OA
BRANCH  25  28
ATOM     28  C   LIG    1        2.665   1.232  -4.153  0.00  0.00    +0.135 C 
BRANCH  28  29
ATOM     29  C   LIG    1        4.015   0.943  -3.487  0.00  0.00    +0.128 C 
ATOM     30  C   LIG    1        5.113   0.757  -4.522  0.00  0.00    +0.039 C 
BRANCH  29  31
ATOM     31  O   LIG    1        4.436   1.988  -2.614  0.00  0.00    -0.391 OA
ATOM     32  H   LIG    1        3.639   2.381  -2.217  0.00  0.00    +0.210 HD
ENDBRANCH  29  31
ENDBRANCH  28  29
ENDBRANCH  25  28
ENDBRANCH   4  24
TORSDOF 7
