REMARK  Name = pdb/CHEMBL3676076.pdb
REMARK                            x       y       z     vdW  Elec       q    Type
REMARK                         _______ _______ _______ _____ _____    ______ ____
ROOT
ATOM      1  C   LIG    1        4.085  -4.942  -0.195  0.00  0.00    +0.109 C 
ATOM      2  N   LIG    1        3.104  -3.821  -0.152  0.00  0.00    -0.308 N 
ATOM      3  C   LIG    1        1.790  -4.442   0.088  0.00  0.00    +0.107 C 
ATOM      4  C   LIG    1        1.830  -5.795  -0.607  0.00  0.00    +0.021 C 
ATOM      5  C   LIG    1        3.302  -6.077  -0.872  0.00  0.00    +0.029 C 
ENDROOT
BRANCH   2   6
ATOM      6  C   LIG    1        3.155  -2.835  -1.136  0.00  0.00    +0.126 A 
ATOM      7  N   LIG    1        3.005  -3.135  -2.409  0.00  0.00    -0.212 NA
ATOM      8  C   LIG    1        2.965  -2.094  -3.312  0.00  0.00    +0.170 A 
ATOM      9  C   LIG    1        2.833  -2.052  -4.692  0.00  0.00    +0.100 A 
ATOM     10  C   LIG    1        2.742  -0.674  -4.992  0.00  0.00    +0.150 A 
ATOM     11  N   LIG    1        2.891   0.108  -3.923  0.00  0.00    -0.173 NA
ATOM     12  N   LIG    1        3.061  -0.759  -2.899  0.00  0.00    -0.221 N 
ATOM     13  C   LIG    1        3.277  -0.445  -1.568  0.00  0.00    +0.118 A 
ATOM     14  C   LIG    1        3.340  -1.417  -0.652  0.00  0.00    +0.063 A 
BRANCH   9  15
ATOM     15  C   LIG    1        2.778  -3.135  -5.659  0.00  0.00    +0.249 C 
ATOM     16  N   LIG    1        2.315  -4.336  -5.147  0.00  0.00    -0.308 N 
ATOM     17  H   LIG    1        2.051  -4.355  -4.169  0.00  0.00    +0.149 HD
ATOM     18  O   LIG    1        3.083  -2.970  -6.825  0.00  0.00    -0.270 OA
BRANCH  16  19
ATOM     19  C   LIG    1        2.141  -5.507  -5.950  0.00  0.00    +0.073 C 
ATOM     20  C   LIG    1        1.980  -6.847  -5.279  0.00  0.00    +0.024 C 
ATOM     21  C   LIG    1        3.222  -6.547  -6.062  0.00  0.00    +0.024 C 
ENDBRANCH  16  19
ENDBRANCH   9  15
ENDBRANCH   2   6
BRANCH   1  23
ATOM     22  C   LIG    1        4.794  -6.290   1.969  0.00  0.00    +0.126 A 
ATOM     23  C   LIG    1        4.717  -5.107   1.198  0.00  0.00    +0.017 A 
ATOM     24  C   LIG    1        5.372  -3.957   1.707  0.00  0.00    +0.047 A 
ATOM     25  C   LIG    1        6.072  -3.983   2.908  0.00  0.00    +0.124 A 
ATOM     26  F   LIG    1        6.695  -2.879   3.340  0.00  0.00    -0.205 F 
ATOM     27  C   LIG    1        6.151  -5.142   3.649  0.00  0.00    +0.042 A 
ATOM     28  C   LIG    1        5.513  -6.289   3.182  0.00  0.00    +0.049 A 
BRANCH  22  29
ATOM     29  O   LIG    1        4.149  -7.401   1.505  0.00  0.00    -0.489 OA
BRANCH  29  30
ATOM     30  C   LIG    1        4.307  -8.660   2.172  0.00  0.00    +0.262 C 
BRANCH  30  31
ATOM     31  C   LIG    1        5.554  -9.409   1.680  0.00  0.00    +0.177 C 
BRANCH  31  32
ATOM     32  O   LIG    1        5.484  -9.677   0.267  0.00  0.00    -0.386 OA
ATOM     33  H   LIG    1        4.657 -10.157   0.087  0.00  0.00    +0.210 HD
ENDBRANCH  31  32
BRANCH  31  34
ATOM     34  C   LIG    1        5.716 -10.750   2.401  0.00  0.00    +0.190 C 
BRANCH  34  35
ATOM     35  O   LIG    1        6.909 -11.396   1.959  0.00  0.00    -0.392 OA
ATOM     36  H   LIG    1        6.995 -11.194   1.006  0.00  0.00    +0.210 HD
ENDBRANCH  34  35
ENDBRANCH  31  34
ENDBRANCH  30  31
ENDBRANCH  29  30
ENDBRANCH  22  29
ENDBRANCH   1  23
TORSDOF 10
