REMARK  Name = pdb/CHEMBL3892052.pdb
REMARK                            x       y       z     vdW  Elec       q    Type
REMARK                         _______ _______ _______ _____ _____    ______ ____
ROOT
ATOM      1  C   LIG    1        3.910   0.690   1.355  0.00  0.00    +0.105 A 
ATOM      2  C   LIG    1        4.268   1.986   1.035  0.00  0.00    +0.145 A 
ATOM      3  N   LIG    1        3.485   3.071   1.235  0.00  0.00    -0.201 NA
ATOM      4  C   LIG    1        2.292   2.851   1.824  0.00  0.00    +0.323 A 
ATOM      5  N   LIG    1        1.792   1.638   2.087  0.00  0.00    -0.201 NA
ATOM      6  C   LIG    1        2.613   0.594   1.820  0.00  0.00    +0.145 A 
ENDROOT
BRANCH   1   8
ATOM      7  C   LIG    1        4.878  -1.414   1.899  0.00  0.00    +0.285 C 
ATOM      8  N   LIG    1        4.831  -0.351   1.178  0.00  0.00    -0.196 NA
BRANCH   7   9
ATOM      9  N   LIG    1        4.097  -1.916   2.917  0.00  0.00    -0.268 N 
ATOM     10  H   LIG    1        3.238  -1.436   3.163  0.00  0.00    +0.157 HD
BRANCH   9  12
ATOM     11  C   LIG    1        3.249  -3.889   4.172  0.00  0.00    +0.109 A 
ATOM     12  C   LIG    1        4.304  -3.077   3.702  0.00  0.00    +0.060 A 
ATOM     13  C   LIG    1        5.611  -3.538   3.925  0.00  0.00    +0.037 A 
ATOM     14  C   LIG    1        5.886  -4.795   4.482  0.00  0.00    +0.057 A 
ATOM     15  C   LIG    1        4.820  -5.601   4.880  0.00  0.00    +0.014 A 
ATOM     16  C   LIG    1        3.511  -5.144   4.752  0.00  0.00    +0.029 A 
BRANCH  11  18
ATOM     17  C   LIG    1        0.874  -3.970   2.650  0.00  0.00    +0.200 C 
ATOM     18  S   LIG    1        1.535  -3.390   4.185  0.00  0.00    -0.004 S 
ATOM     19  O   LIG    1        0.862  -4.071   5.270  0.00  0.00    -0.170 OA
ATOM     20  O   LIG    1        1.552  -1.920   4.121  0.00  0.00    -0.170 OA
ENDBRANCH  11  18
BRANCH  14  21
ATOM     21  C   LIG    1        7.318  -5.251   4.592  0.00  0.00    +0.417 C 
ATOM     22  F   LIG    1        8.065  -4.443   5.393  0.00  0.00    -0.166 F 
ATOM     23  F   LIG    1        7.948  -5.270   3.385  0.00  0.00    -0.166 F 
ATOM     24  F   LIG    1        7.445  -6.508   5.099  0.00  0.00    -0.166 F 
ENDBRANCH  14  21
ENDBRANCH   9  12
ENDBRANCH   7   9
BRANCH   7  25
ATOM     25  O   LIG    1        5.906  -2.208   1.544  0.00  0.00    -0.481 OA
ATOM     26  H   LIG    1        6.397  -1.751   0.840  0.00  0.00    +0.295 HD
ENDBRANCH   7  25
ENDBRANCH   1   8
BRANCH   4  27
ATOM     27  O   LIG    1        1.543   3.936   2.288  0.00  0.00    -0.424 OA
BRANCH  27  28
ATOM     28  C   LIG    1        2.242   4.994   2.835  0.00  0.00    +0.132 A 
ATOM     29  C   LIG    1        3.501   4.848   3.414  0.00  0.00    +0.047 A 
ATOM     30  C   LIG    1        4.216   5.949   3.887  0.00  0.00    +0.012 A 
ATOM     31  C   LIG    1        3.674   7.245   3.879  0.00  0.00    -0.014 A 
ATOM     32  C   LIG    1        2.377   7.364   3.340  0.00  0.00    +0.012 A 
ATOM     33  C   LIG    1        1.662   6.260   2.833  0.00  0.00    +0.047 A 
BRANCH  31  34
ATOM     34  C   LIG    1        4.452   8.418   4.382  0.00  0.00    +0.023 A 
ATOM     35  C   LIG    1        3.882   9.588   4.934  0.00  0.00    +0.124 A 
ATOM     36  N   LIG    1        4.594  10.666   5.333  0.00  0.00    -0.239 NA
ATOM     37  C   LIG    1        5.937  10.611   5.217  0.00  0.00    +0.133 A 
ATOM     38  C   LIG    1        6.609   9.517   4.718  0.00  0.00    +0.060 A 
ATOM     39 CL   LIG    1        8.321   9.512   4.605  0.00  0.00    -0.082 Cl
ATOM     40  C   LIG    1        5.862   8.420   4.298  0.00  0.00    +0.033 A 
BRANCH  35  41
ATOM     41  N   LIG    1        2.518   9.756   5.158  0.00  0.00    -0.343 N 
ATOM     42  H   LIG    1        2.178   9.054   5.807  0.00  0.00    +0.144 HD
ATOM     43  H   LIG    1        2.417  10.690   5.550  0.00  0.00    +0.144 HD
ENDBRANCH  35  41
ENDBRANCH  31  34
ENDBRANCH  27  28
ENDBRANCH   4  27
TORSDOF 10
