REMARK  Name = pdb/CHEMBL3661490.pdb
REMARK                            x       y       z     vdW  Elec       q    Type
REMARK                         _______ _______ _______ _____ _____    ______ ____
ROOT
ATOM      1  C   LIG    1        4.395   0.705   4.683  0.00  0.00    +0.042 A 
ATOM      2  C   LIG    1        5.218   0.995   5.775  0.00  0.00    +0.038 A 
ATOM      3  C   LIG    1        6.246   1.932   5.652  0.00  0.00    +0.052 A 
ATOM      4  C   LIG    1        6.396   2.545   4.411  0.00  0.00    +0.134 A 
ATOM      5  N   LIG    1        5.577   2.327   3.350  0.00  0.00    -0.261 NA
ATOM      6  C   LIG    1        4.602   1.405   3.510  0.00  0.00    +0.122 A 
ENDROOT
BRANCH   3   7
ATOM      7  N   LIG    1        7.048   2.174   6.784  0.00  0.00    -0.283 N 
ATOM      8  H   LIG    1        6.797   1.673   7.636  0.00  0.00    +0.155 HD
ATOM      9  C   LIG    1        8.165   2.995   6.844  0.00  0.00    +0.239 C 
ATOM     10  O   LIG    1        8.650   3.593   5.896  0.00  0.00    -0.273 OA
BRANCH   9  11
ATOM     11  C   LIG    1        8.854   3.052   8.193  0.00  0.00    +0.239 C 
BRANCH  11  12
ATOM     12  N   LIG    1        7.951   2.924   9.324  0.00  0.00    -0.259 N 
ATOM     13  C   LIG    1        7.306   3.910  10.025  0.00  0.00    +0.037 A 
ATOM     14  C   LIG    1        7.321   5.353   9.683  0.00  0.00    +0.065 C 
ATOM     15  C   LIG    1        6.679   3.269  11.069  0.00  0.00    +0.056 A 
ATOM     16  C   LIG    1        6.919   1.886  10.882  0.00  0.00    +0.165 A 
ATOM     17  N   LIG    1        7.644   1.681   9.762  0.00  0.00    -0.167 NA
BRANCH  16  18
ATOM     18  C   LIG    1        6.414   0.790  11.786  0.00  0.00    +0.436 C 
ATOM     19  F   LIG    1        5.055   0.798  11.854  0.00  0.00    -0.164 F 
ATOM     20  F   LIG    1        6.862   0.952  13.061  0.00  0.00    -0.164 F 
ATOM     21  F   LIG    1        6.780  -0.457  11.395  0.00  0.00    -0.164 F 
ENDBRANCH  16  18
ENDBRANCH  11  12
ENDBRANCH   9  11
ENDBRANCH   3   7
BRANCH   1  22
ATOM     22  C   LIG    1        3.475  -0.461   4.775  0.00  0.00    +0.197 C 
ATOM     23  O   LIG    1        3.772  -1.371   5.536  0.00  0.00    -0.287 OA
BRANCH  22  31
ATOM     24  N   LIG    1        0.849  -1.474   2.469  0.00  0.00    -0.329 N 
ATOM     25  C   LIG    1        0.500  -0.147   2.581  0.00  0.00    +0.145 A 
ATOM     26  N   LIG    1       -0.518   0.454   1.938  0.00  0.00    -0.218 NA
ATOM     27  C   LIG    1       -0.612   1.757   2.250  0.00  0.00    +0.223 A 
ATOM     28  N   LIG    1        0.160   2.463   3.098  0.00  0.00    -0.243 NA
ATOM     29  C   LIG    1        1.165   1.817   3.722  0.00  0.00    +0.124 A 
ATOM     30  C   LIG    1        1.385   0.458   3.466  0.00  0.00    +0.048 A 
ATOM     31  C   LIG    1        2.313  -0.527   3.902  0.00  0.00    +0.051 A 
ATOM     32  C   LIG    1        1.885  -1.725   3.338  0.00  0.00    +0.100 A 
BRANCH  24  34
ATOM     33  C   LIG    1        0.353  -2.099   0.112  0.00  0.00    +0.030 C 
ATOM     34  C   LIG    1        0.200  -2.457   1.595  0.00  0.00    +0.083 C 
ATOM     35  C   LIG    1        0.716  -3.886   1.819  0.00  0.00    +0.030 C 
ENDBRANCH  24  34
ENDBRANCH  22  31
ENDBRANCH   1  22
TORSDOF 7
