REMARK  Name = pdb/CHEMBL3889897.pdb
REMARK                            x       y       z     vdW  Elec       q    Type
REMARK                         _______ _______ _______ _____ _____    ______ ____
ROOT
ATOM      1  C   LIG    1        7.948  -0.871  -2.249  0.00  0.00    +0.149 A 
ATOM      2  N   LIG    1        8.398  -0.741  -3.505  0.00  0.00    -0.160 NA
ATOM      3  N   LIG    1        9.413   0.176  -3.431  0.00  0.00    -0.218 N 
ATOM      4  C   LIG    1        9.694   0.502  -2.090  0.00  0.00    +0.129 A 
ATOM      5  C   LIG    1        8.705  -0.103  -1.351  0.00  0.00    +0.078 A 
ENDROOT
BRANCH   3   6
ATOM      6  C   LIG    1       10.076   0.563  -4.639  0.00  0.00    +0.067 A 
ATOM      7  C   LIG    1        9.944  -0.259  -5.775  0.00  0.00    +0.028 A 
ATOM      8  C   LIG    1       10.565   0.074  -6.983  0.00  0.00    +0.002 A 
ATOM      9  C   LIG    1       11.308   1.245  -7.081  0.00  0.00    +0.000 A 
ATOM     10  C   LIG    1       11.435   2.076  -5.970  0.00  0.00    +0.002 A 
ATOM     11  C   LIG    1       10.822   1.741  -4.752  0.00  0.00    +0.028 A 
ENDBRANCH   3   6
BRANCH   4  12
ATOM     12  N   LIG    1       10.788   1.187  -1.559  0.00  0.00    -0.266 N 
ATOM     13  H   LIG    1       11.500   1.523  -2.198  0.00  0.00    +0.157 HD
ATOM     14  C   LIG    1       11.031   1.312  -0.125  0.00  0.00    +0.251 C 
ATOM     15  O   LIG    1       10.253   0.863   0.704  0.00  0.00    -0.270 OA
BRANCH  14  16
ATOM     16  C   LIG    1       12.298   1.967   0.288  0.00  0.00    +0.056 A 
ATOM     17  C   LIG    1       12.961   2.949  -0.417  0.00  0.00    +0.054 A 
ATOM     18 CL   LIG    1       12.349   3.636  -1.873  0.00  0.00    -0.083 Cl
ATOM     19  C   LIG    1       14.168   3.458   0.055  0.00  0.00    +0.041 A 
ATOM     20  C   LIG    1       14.712   3.017   1.271  0.00  0.00    +0.052 A 
ATOM     21 CL   LIG    1       16.277   3.668   1.633  0.00  0.00    -0.083 Cl
ATOM     22  C   LIG    1       14.032   2.086   2.088  0.00  0.00    +0.022 A 
ATOM     23  C   LIG    1       12.828   1.559   1.554  0.00  0.00    +0.026 A 
BRANCH  22  24
ATOM     24  C   LIG    1       14.475   1.704   3.458  0.00  0.00    +0.107 A 
ATOM     25  C   LIG    1       14.168   0.493   4.088  0.00  0.00    +0.149 A 
ATOM     26  F   LIG    1       13.480  -0.474   3.462  0.00  0.00    -0.203 F 
ATOM     27  C   LIG    1       14.571   0.266   5.402  0.00  0.00    +0.042 A 
ATOM     28  C   LIG    1       15.302   1.240   6.067  0.00  0.00    +0.023 A 
ATOM     29  C   LIG    1       15.578   2.412   5.391  0.00  0.00    +0.111 A 
ATOM     30  N   LIG    1       15.160   2.665   4.130  0.00  0.00    -0.252 NA
ENDBRANCH  22  24
ENDBRANCH  14  16
ENDBRANCH   4  12
BRANCH   1  32
ATOM     31  N   LIG    1        6.304  -1.757  -0.762  0.00  0.00    -0.246 NA
ATOM     32  C   LIG    1        6.917  -1.838  -1.895  0.00  0.00    +0.236 C 
BRANCH  31  35
ATOM     33  C   LIG    1        5.822  -3.206   1.610  0.00  0.00    +0.119 C 
ATOM     34  C   LIG    1        4.638  -2.509   0.893  0.00  0.00    +0.058 C 
ATOM     35  C   LIG    1        5.350  -2.827  -0.452  0.00  0.00    +0.114 C 
ATOM     36  C   LIG    1        6.034  -3.999   0.297  0.00  0.00    +0.058 C 
BRANCH  33  37
ATOM     37  O   LIG    1        6.904  -2.344   2.022  0.00  0.00    -0.392 OA
ATOM     38  H   LIG    1        6.967  -1.688   1.299  0.00  0.00    +0.210 HD
ENDBRANCH  33  37
ENDBRANCH  31  35
BRANCH  32  39
ATOM     39  O   LIG    1        6.747  -2.834  -2.792  0.00  0.00    -0.491 OA
ATOM     40  H   LIG    1        7.364  -2.689  -3.536  0.00  0.00    +0.294 HD
ENDBRANCH  32  39
ENDBRANCH   1  32
TORSDOF 8
