REMARK  Name = pdb/CHEMBL3976747.pdb
REMARK                            x       y       z     vdW  Elec       q    Type
REMARK                         _______ _______ _______ _____ _____    ______ ____
ROOT
ATOM      1  C   LIG    1        3.865  -1.307  -0.235  0.00  0.00    +0.285 C 
ATOM      2  N   LIG    1        2.591  -1.392  -0.119  0.00  0.00    -0.196 NA
ENDROOT
BRANCH   2   3
ATOM      3  C   LIG    1        1.808  -2.300  -0.847  0.00  0.00    +0.105 A 
ATOM      4  C   LIG    1        0.609  -1.952  -1.424  0.00  0.00    +0.145 A 
ATOM      5  N   LIG    1       -0.120  -2.785  -2.203  0.00  0.00    -0.201 NA
ATOM      6  C   LIG    1        0.415  -3.996  -2.448  0.00  0.00    +0.323 A 
ATOM      7  N   LIG    1        1.496  -4.492  -1.830  0.00  0.00    -0.201 NA
ATOM      8  C   LIG    1        2.134  -3.632  -0.994  0.00  0.00    +0.145 A 
BRANCH   6   9
ATOM      9  O   LIG    1       -0.091  -4.758  -3.503  0.00  0.00    -0.424 OA
BRANCH   9  10
ATOM     10  C   LIG    1       -0.550  -4.085  -4.622  0.00  0.00    +0.132 A 
ATOM     11  C   LIG    1       -0.099  -2.820  -5.016  0.00  0.00    +0.047 A 
ATOM     12  C   LIG    1       -0.635  -2.174  -6.136  0.00  0.00    +0.012 A 
ATOM     13  C   LIG    1       -1.595  -2.807  -6.933  0.00  0.00    -0.014 A 
ATOM     14  C   LIG    1       -2.017  -4.088  -6.554  0.00  0.00    +0.012 A 
ATOM     15  C   LIG    1       -1.496  -4.729  -5.418  0.00  0.00    +0.047 A 
BRANCH  13  16
ATOM     16  C   LIG    1       -2.167  -2.123  -8.088  0.00  0.00    +0.027 A 
ATOM     17  C   LIG    1       -2.632  -2.700  -9.259  0.00  0.00    +0.075 A 
ATOM     18  C   LIG    1       -2.720  -4.024  -9.796  0.00  0.00    +0.028 A 
ATOM     19  C   LIG    1       -3.286  -4.232 -10.998  0.00  0.00    +0.004 A 
ATOM     20  C   LIG    1       -3.788  -3.135 -11.802  0.00  0.00    +0.020 A 
ATOM     21  C   LIG    1       -3.691  -1.887 -11.317  0.00  0.00    +0.113 A 
ATOM     22  N   LIG    1       -3.123  -1.658 -10.060  0.00  0.00    -0.239 N 
ATOM     23  N   LIG    1       -2.969  -0.455  -9.453  0.00  0.00    -0.174 NA
ATOM     24  C   LIG    1       -2.402  -0.741  -8.282  0.00  0.00    +0.143 A 
ENDBRANCH  13  16
ENDBRANCH   9  10
ENDBRANCH   6   9
ENDBRANCH   2   3
BRANCH   1  25
ATOM     25  O   LIG    1        4.557  -1.929  -1.215  0.00  0.00    -0.481 OA
ATOM     26  H   LIG    1        3.960  -2.280  -1.897  0.00  0.00    +0.295 HD
ENDBRANCH   1  25
BRANCH   1  27
ATOM     27  N   LIG    1        4.768  -0.622   0.548  0.00  0.00    -0.269 N 
ATOM     28  H   LIG    1        5.726  -0.837   0.304  0.00  0.00    +0.157 HD
BRANCH  27  29
ATOM     29  C   LIG    1        4.597  -0.212   1.894  0.00  0.00    +0.043 A 
ATOM     30  C   LIG    1        5.598   0.521   2.604  0.00  0.00    +0.005 A 
ATOM     31  C   LIG    1        5.303   0.862   3.953  0.00  0.00    +0.011 A 
ATOM     32  C   LIG    1        4.103   0.522   4.584  0.00  0.00    +0.013 A 
ATOM     33  C   LIG    1        3.116  -0.150   3.878  0.00  0.00    +0.057 A 
ATOM     34  C   LIG    1        3.376  -0.488   2.551  0.00  0.00    +0.036 A 
BRANCH  30  35
ATOM     35  C   LIG    1        6.927   0.938   2.056  0.00  0.00    +0.002 A 
ATOM     36  C   LIG    1        7.136   1.326   0.731  0.00  0.00    +0.119 A 
ATOM     37  N   LIG    1        8.334   1.681   0.188  0.00  0.00    -0.263 NA
ATOM     38  C   LIG    1        9.397   1.714   1.015  0.00  0.00    +0.111 A 
ATOM     39  C   LIG    1        9.315   1.416   2.359  0.00  0.00    +0.020 A 
ATOM     40  C   LIG    1        8.077   1.015   2.870  0.00  0.00    +0.011 A 
ENDBRANCH  30  35
BRANCH  33  41
ATOM     41  C   LIG    1        1.797  -0.506   4.516  0.00  0.00    +0.417 C 
ATOM     42  F   LIG    1        1.125   0.591   4.961  0.00  0.00    -0.166 F 
ATOM     43  F   LIG    1        1.949  -1.319   5.598  0.00  0.00    -0.166 F 
ATOM     44  F   LIG    1        0.937  -1.156   3.683  0.00  0.00    -0.166 F 
ENDBRANCH  33  41
ENDBRANCH  27  29
ENDBRANCH   1  27
TORSDOF 9
