REMARK  Name = pdb/CHEMBL3676051.pdb
REMARK                            x       y       z     vdW  Elec       q    Type
REMARK                         _______ _______ _______ _____ _____    ______ ____
ROOT
ATOM      1  C   LIG    1        0.653  -1.842   3.733  0.00  0.00    +0.126 A 
ATOM      2  N   LIG    1        1.064  -0.726   3.174  0.00  0.00    -0.212 NA
ATOM      3  C   LIG    1        0.954   0.438   3.884  0.00  0.00    +0.170 A 
ATOM      4  C   LIG    1        1.306   1.736   3.566  0.00  0.00    +0.100 A 
ATOM      5  C   LIG    1        0.997   2.467   4.731  0.00  0.00    +0.150 A 
ATOM      6  N   LIG    1        0.455   1.719   5.696  0.00  0.00    -0.173 NA
ATOM      7  N   LIG    1        0.418   0.472   5.169  0.00  0.00    -0.221 N 
ATOM      8  C   LIG    1       -0.067  -0.691   5.751  0.00  0.00    +0.118 A 
ATOM      9  C   LIG    1        0.011  -1.859   5.099  0.00  0.00    +0.063 A 
ENDROOT
BRANCH   1  11
ATOM     10  C   LIG    1        1.615  -4.130   3.672  0.00  0.00    +0.107 C 
ATOM     11  N   LIG    1        0.815  -3.039   3.037  0.00  0.00    -0.308 N 
ATOM     12  C   LIG    1        1.159  -2.987   1.604  0.00  0.00    +0.107 C 
ATOM     13  C   LIG    1        2.594  -3.469   1.553  0.00  0.00    +0.021 C 
ATOM     14  C   LIG    1        2.581  -4.605   2.564  0.00  0.00    +0.029 C 
BRANCH  10  17
ATOM     15  C   LIG    1        2.370  -5.916   6.059  0.00  0.00    +0.066 C 
ATOM     16  C   LIG    1        1.089  -6.069   5.290  0.00  0.00    +0.043 A 
ATOM     17  C   LIG    1        0.735  -5.256   4.196  0.00  0.00    -0.003 A 
ATOM     18  C   LIG    1       -0.487  -5.551   3.562  0.00  0.00    +0.047 A 
ATOM     19  C   LIG    1       -1.290  -6.584   4.023  0.00  0.00    +0.142 A 
ATOM     20  F   LIG    1       -2.451  -6.860   3.418  0.00  0.00    -0.204 F 
ATOM     21  C   LIG    1       -0.868  -7.317   5.107  0.00  0.00    +0.149 A 
ATOM     22  N   LIG    1        0.299  -7.083   5.744  0.00  0.00    -0.257 NA
ENDBRANCH  10  17
ENDBRANCH   1  11
BRANCH   4  23
ATOM     23  C   LIG    1        1.876   2.235   2.323  0.00  0.00    +0.250 C 
ATOM     24  N   LIG    1        2.050   1.266   1.355  0.00  0.00    -0.306 N 
ATOM     25  H   LIG    1        1.782   0.323   1.632  0.00  0.00    +0.150 HD
ATOM     26  O   LIG    1        2.165   3.411   2.176  0.00  0.00    -0.270 OA
BRANCH  24  27
ATOM     27  C   LIG    1        2.600   1.466   0.012  0.00  0.00    +0.026 C 
ATOM     28  C   LIG    1        4.008   2.074   0.080  0.00  0.00    +0.031 C 
ATOM     29  C   LIG    1        1.682   2.360  -0.837  0.00  0.00    +0.031 C 
ATOM     30  C   LIG    1        2.697   0.087  -0.670  0.00  0.00    +0.031 C 
ENDBRANCH  24  27
ENDBRANCH   4  23
TORSDOF 4
