REMARK  Name = pdb/CHEMBL3975127.pdb
REMARK                            x       y       z     vdW  Elec       q    Type
REMARK                         _______ _______ _______ _____ _____    ______ ____
ROOT
ATOM      1  C   LIG    1       -0.471  -4.623  -0.219  0.00  0.00    +0.149 A 
ATOM      2  N   LIG    1       -1.157  -5.756  -0.007  0.00  0.00    -0.160 NA
ATOM      3  N   LIG    1       -0.229  -6.706   0.275  0.00  0.00    -0.218 N 
ATOM      4  C   LIG    1        1.078  -6.200   0.157  0.00  0.00    +0.129 A 
ATOM      5  C   LIG    1        0.922  -4.867  -0.155  0.00  0.00    +0.078 A 
ENDROOT
BRANCH   3   6
ATOM      6  C   LIG    1       -0.672  -8.026   0.597  0.00  0.00    +0.067 A 
ATOM      7  C   LIG    1        0.095  -8.890   1.382  0.00  0.00    +0.028 A 
ATOM      8  C   LIG    1       -0.352 -10.186   1.665  0.00  0.00    +0.002 A 
ATOM      9  C   LIG    1       -1.584 -10.622   1.187  0.00  0.00    +0.000 A 
ATOM     10  C   LIG    1       -2.378  -9.758   0.438  0.00  0.00    +0.002 A 
ATOM     11  C   LIG    1       -1.932  -8.462   0.152  0.00  0.00    +0.028 A 
ENDBRANCH   3   6
BRANCH   4  12
ATOM     12  N   LIG    1        2.295  -6.893   0.245  0.00  0.00    -0.266 N 
ATOM     13  H   LIG    1        2.250  -7.891   0.414  0.00  0.00    +0.157 HD
ATOM     14  C   LIG    1        3.599  -6.301   0.068  0.00  0.00    +0.251 C 
ATOM     15  O   LIG    1        3.725  -5.112  -0.203  0.00  0.00    -0.270 OA
BRANCH  14  16
ATOM     16  C   LIG    1        4.785  -7.196   0.131  0.00  0.00    +0.056 A 
ATOM     17  C   LIG    1        4.842  -8.352   0.915  0.00  0.00    +0.056 A 
ATOM     18 CL   LIG    1        3.647  -8.772   2.078  0.00  0.00    -0.083 Cl
ATOM     19  C   LIG    1        5.948  -9.195   0.843  0.00  0.00    +0.059 A 
ATOM     20  C   LIG    1        7.041  -8.849   0.055  0.00  0.00    +0.134 A 
ATOM     21  F   LIG    1        8.088  -9.685   0.063  0.00  0.00    -0.205 F 
ATOM     22  C   LIG    1        7.078  -7.652  -0.669  0.00  0.00    +0.036 A 
ATOM     23  C   LIG    1        5.917  -6.845  -0.633  0.00  0.00    +0.027 A 
BRANCH  22  24
ATOM     24  C   LIG    1        8.292  -7.202  -1.375  0.00  0.00    +0.074 A 
ATOM     25  N   LIG    1        8.492  -5.859  -1.353  0.00  0.00    -0.255 NA
ATOM     26  C   LIG    1        9.629  -5.379  -1.906  0.00  0.00    +0.111 A 
ATOM     27  C   LIG    1       10.589  -6.173  -2.505  0.00  0.00    +0.020 A 
ATOM     28  C   LIG    1       10.368  -7.542  -2.546  0.00  0.00    +0.004 A 
ATOM     29  C   LIG    1        9.207  -8.065  -1.978  0.00  0.00    +0.028 A 
ENDBRANCH  22  24
ENDBRANCH  14  16
ENDBRANCH   4  12
BRANCH   1  31
ATOM     30  N   LIG    1       -0.375  -2.316  -0.781  0.00  0.00    -0.208 NA
ATOM     31  C   LIG    1       -1.120  -3.337  -0.505  0.00  0.00    +0.241 C 
BRANCH  30  34
ATOM     32  C   LIG    1       -2.729  -1.680  -2.988  0.00  0.00    +0.070 C 
ATOM     33  C   LIG    1       -1.938  -0.786  -2.108  0.00  0.00    +0.085 A 
ATOM     34  C   LIG    1       -0.960  -1.099  -1.130  0.00  0.00    +0.108 A 
ATOM     35  C   LIG    1       -0.495   0.108  -0.678  0.00  0.00    +0.133 A 
ATOM     36  N   LIG    1       -1.207   1.055  -1.354  0.00  0.00    -0.282 N 
ATOM     37  H   LIG    1       -1.109   2.065  -1.312  0.00  0.00    +0.188 HD
ATOM     38  N   LIG    1       -2.126   0.540  -2.188  0.00  0.00    -0.177 NA
ENDBRANCH  30  34
BRANCH  31  39
ATOM     39  O   LIG    1       -2.470  -3.349  -0.429  0.00  0.00    -0.491 OA
ATOM     40  H   LIG    1       -2.835  -2.455  -0.457  0.00  0.00    +0.294 HD
ENDBRANCH  31  39
ENDBRANCH   1  31
TORSDOF 7
