REMARK  Name = pdb/CHEMBL3907673.pdb
REMARK                            x       y       z     vdW  Elec       q    Type
REMARK                         _______ _______ _______ _____ _____    ______ ____
ROOT
ATOM      1  C   LIG    1        1.898  -2.167  -1.827  0.00  0.00    +0.149 A 
ATOM      2  N   LIG    1        2.355  -3.378  -2.183  0.00  0.00    -0.160 NA
ATOM      3  N   LIG    1        3.716  -3.225  -2.289  0.00  0.00    -0.218 N 
ATOM      4  C   LIG    1        4.102  -1.907  -1.994  0.00  0.00    +0.129 A 
ATOM      5  C   LIG    1        2.936  -1.228  -1.748  0.00  0.00    +0.078 A 
ENDROOT
BRANCH   3   6
ATOM      6  C   LIG    1        4.518  -4.349  -2.660  0.00  0.00    +0.067 A 
ATOM      7  C   LIG    1        5.880  -4.437  -2.341  0.00  0.00    +0.028 A 
ATOM      8  C   LIG    1        6.629  -5.555  -2.729  0.00  0.00    +0.002 A 
ATOM      9  C   LIG    1        6.026  -6.602  -3.420  0.00  0.00    +0.000 A 
ATOM     10  C   LIG    1        4.672  -6.533  -3.732  0.00  0.00    +0.002 A 
ATOM     11  C   LIG    1        3.918  -5.417  -3.352  0.00  0.00    +0.028 A 
ENDBRANCH   3   6
BRANCH   4  12
ATOM     12  N   LIG    1        5.378  -1.336  -1.990  0.00  0.00    -0.266 N 
ATOM     13  H   LIG    1        6.158  -1.893  -2.309  0.00  0.00    +0.157 HD
ATOM     14  C   LIG    1        5.638   0.020  -1.574  0.00  0.00    +0.251 C 
ATOM     15  O   LIG    1        4.739   0.792  -1.312  0.00  0.00    -0.270 OA
BRANCH  14  16
ATOM     16  C   LIG    1        7.045   0.437  -1.398  0.00  0.00    +0.056 A 
ATOM     17  C   LIG    1        8.116  -0.089  -2.109  0.00  0.00    +0.054 A 
ATOM     18 CL   LIG    1        7.946  -1.266  -3.359  0.00  0.00    -0.083 Cl
ATOM     19  C   LIG    1        9.406   0.355  -1.825  0.00  0.00    +0.041 A 
ATOM     20  C   LIG    1        9.641   1.328  -0.838  0.00  0.00    +0.052 A 
ATOM     21 CL   LIG    1       11.312   1.669  -0.549  0.00  0.00    -0.083 Cl
ATOM     22  C   LIG    1        8.580   1.917  -0.123  0.00  0.00    +0.019 A 
ATOM     23  C   LIG    1        7.284   1.436  -0.432  0.00  0.00    +0.026 A 
BRANCH  22  24
ATOM     24  C   LIG    1        8.702   2.966   0.925  0.00  0.00    +0.072 A 
ATOM     25  N   LIG    1        7.730   2.932   1.878  0.00  0.00    -0.255 NA
ATOM     26  C   LIG    1        7.743   3.879   2.847  0.00  0.00    +0.111 A 
ATOM     27  C   LIG    1        8.696   4.873   2.937  0.00  0.00    +0.020 A 
ATOM     28  C   LIG    1        9.683   4.910   1.965  0.00  0.00    +0.004 A 
ATOM     29  C   LIG    1        9.674   3.964   0.941  0.00  0.00    +0.028 A 
ENDBRANCH  22  24
ENDBRANCH  14  16
ENDBRANCH   4  12
BRANCH   1  30
ATOM     30  C   LIG    1        0.488  -1.900  -1.575  0.00  0.00    +0.236 C 
ATOM     31  N   LIG    1        0.102  -0.702  -1.325  0.00  0.00    -0.244 NA
BRANCH  30  32
ATOM     32  O   LIG    1       -0.323  -2.977  -1.618  0.00  0.00    -0.491 OA
ATOM     33  H   LIG    1        0.214  -3.764  -1.832  0.00  0.00    +0.294 HD
ENDBRANCH  30  32
BRANCH  31  34
ATOM     34  C   LIG    1       -1.328  -0.481  -1.113  0.00  0.00    +0.182 C 
BRANCH  34  35
ATOM     35  C   LIG    1       -1.772   0.891  -1.560  0.00  0.00    -0.005 A 
ATOM     36  C   LIG    1       -3.113   1.246  -1.493  0.00  0.00    +0.140 A 
ATOM     37  N   LIG    1       -3.586   2.443  -1.908  0.00  0.00    -0.157 NA
ATOM     38  N   LIG    1       -2.724   3.360  -2.419  0.00  0.00    -0.158 NA
ATOM     39  C   LIG    1       -1.413   3.061  -2.492  0.00  0.00    +0.135 A 
ATOM     40  C   LIG    1       -0.899   1.848  -2.074  0.00  0.00    +0.028 A 
ENDBRANCH  34  35
ENDBRANCH  31  34
ENDBRANCH   1  30
TORSDOF 8
