REMARK  Name = pdb/CHEMBL3954365.pdb
REMARK                            x       y       z     vdW  Elec       q    Type
REMARK                         _______ _______ _______ _____ _____    ______ ____
ROOT
ATOM      1  C   LIG    1       -0.273  -3.908   0.235  0.00  0.00    +0.149 A 
ATOM      2  N   LIG    1       -1.165  -4.765  -0.293  0.00  0.00    -0.160 NA
ATOM      3  N   LIG    1       -0.652  -6.010  -0.082  0.00  0.00    -0.218 N 
ATOM      4  C   LIG    1        0.517  -5.952   0.696  0.00  0.00    +0.129 A 
ATOM      5  C   LIG    1        0.776  -4.620   0.868  0.00  0.00    +0.078 A 
ENDROOT
BRANCH   3   6
ATOM      6  C   LIG    1       -1.316  -7.161  -0.613  0.00  0.00    +0.067 A 
ATOM      7  C   LIG    1       -0.615  -8.347  -0.876  0.00  0.00    +0.028 A 
ATOM      8  C   LIG    1       -1.284  -9.474  -1.367  0.00  0.00    +0.002 A 
ATOM      9  C   LIG    1       -2.650  -9.422  -1.626  0.00  0.00    +0.000 A 
ATOM     10  C   LIG    1       -3.351  -8.238  -1.405  0.00  0.00    +0.002 A 
ATOM     11  C   LIG    1       -2.688  -7.106  -0.909  0.00  0.00    +0.028 A 
ENDBRANCH   3   6
BRANCH   4  12
ATOM     12  N   LIG    1        1.233  -7.025   1.258  0.00  0.00    -0.266 N 
ATOM     13  H   LIG    1        0.851  -7.954   1.138  0.00  0.00    +0.157 HD
ATOM     14  C   LIG    1        2.404  -6.879   2.091  0.00  0.00    +0.251 C 
ATOM     15  O   LIG    1        2.884  -5.792   2.324  0.00  0.00    -0.270 OA
BRANCH  14  16
ATOM     16  C   LIG    1        3.035  -8.126   2.617  0.00  0.00    +0.056 A 
ATOM     17  C   LIG    1        2.333  -9.297   2.898  0.00  0.00    +0.056 A 
ATOM     18 CL   LIG    1        0.632  -9.478   2.664  0.00  0.00    -0.083 Cl
ATOM     19  C   LIG    1        3.008 -10.403   3.404  0.00  0.00    +0.059 A 
ATOM     20  C   LIG    1        4.383 -10.353   3.626  0.00  0.00    +0.134 A 
ATOM     21  F   LIG    1        4.937 -11.474   4.104  0.00  0.00    -0.205 F 
ATOM     22  C   LIG    1        5.147  -9.206   3.365  0.00  0.00    +0.036 A 
ATOM     23  C   LIG    1        4.429  -8.089   2.864  0.00  0.00    +0.027 A 
BRANCH  22  24
ATOM     24  C   LIG    1        6.616  -9.131   3.593  0.00  0.00    +0.074 A 
ATOM     25  N   LIG    1        7.186  -7.932   3.304  0.00  0.00    -0.255 NA
ATOM     26  C   LIG    1        8.518  -7.785   3.508  0.00  0.00    +0.111 A 
ATOM     27  C   LIG    1        9.340  -8.784   3.993  0.00  0.00    +0.020 A 
ATOM     28  C   LIG    1        8.764 -10.010   4.276  0.00  0.00    +0.004 A 
ATOM     29  C   LIG    1        7.396 -10.186   4.072  0.00  0.00    +0.028 A 
ENDBRANCH  22  24
ENDBRANCH  14  16
ENDBRANCH   4  12
BRANCH   1  31
ATOM     30  N   LIG    1       -1.384  -1.862  -0.410  0.00  0.00    -0.208 NA
ATOM     31  C   LIG    1       -0.390  -2.437   0.180  0.00  0.00    +0.241 C 
BRANCH  30  34
ATOM     32  C   LIG    1       -2.209  -0.217  -2.962  0.00  0.00    +0.070 C 
ATOM     33  C   LIG    1       -1.943   0.259  -1.583  0.00  0.00    +0.085 A 
ATOM     34  C   LIG    1       -1.513  -0.467  -0.438  0.00  0.00    +0.111 A 
ATOM     35  C   LIG    1       -1.456   0.462   0.582  0.00  0.00    +0.059 A 
ATOM     36  C   LIG    1       -1.098   0.429   2.019  0.00  0.00    +0.067 C 
ATOM     37  N   LIG    1       -1.898   1.632   0.017  0.00  0.00    -0.279 N 
ATOM     38  H   LIG    1       -2.067   2.521   0.476  0.00  0.00    +0.189 HD
ATOM     39  N   LIG    1       -2.143   1.551  -1.294  0.00  0.00    -0.177 NA
ENDBRANCH  30  34
BRANCH  31  40
ATOM     40  O   LIG    1        0.647  -1.804   0.780  0.00  0.00    -0.491 OA
ATOM     41  H   LIG    1        0.595  -0.851   0.623  0.00  0.00    +0.294 HD
ENDBRANCH  31  40
ENDBRANCH   1  31
TORSDOF 7
