REMARK  Name = pdb/CHEMBL3899684.pdb
REMARK                            x       y       z     vdW  Elec       q    Type
REMARK                         _______ _______ _______ _____ _____    ______ ____
ROOT
ATOM      1  C   LIG    1        9.479   6.766   0.344  0.00  0.00    +0.149 A 
ATOM      2  N   LIG    1        9.589   7.659   1.344  0.00  0.00    -0.160 NA
ATOM      3  N   LIG    1        8.380   8.321   1.382  0.00  0.00    -0.218 N 
ATOM      4  C   LIG    1        7.538   7.853   0.368  0.00  0.00    +0.129 A 
ATOM      5  C   LIG    1        8.218   6.852  -0.283  0.00  0.00    +0.078 A 
ENDROOT
BRANCH   3   6
ATOM      6  C   LIG    1        8.111   9.236   2.450  0.00  0.00    +0.067 A 
ATOM      7  C   LIG    1        9.120   9.531   3.380  0.00  0.00    +0.028 A 
ATOM      8  C   LIG    1        8.884  10.436   4.423  0.00  0.00    +0.002 A 
ATOM      9  C   LIG    1        7.652  11.074   4.537  0.00  0.00    +0.000 A 
ATOM     10  C   LIG    1        6.640  10.780   3.633  0.00  0.00    +0.002 A 
ATOM     11  C   LIG    1        6.860   9.841   2.622  0.00  0.00    +0.028 A 
ENDBRANCH   3   6
BRANCH   4  12
ATOM     12  N   LIG    1        6.223   8.162   0.031  0.00  0.00    -0.266 N 
ATOM     13  H   LIG    1        5.596   7.376  -0.126  0.00  0.00    +0.157 HD
ATOM     14  C   LIG    1        5.818   9.472  -0.378  0.00  0.00    +0.251 C 
ATOM     15  O   LIG    1        6.656  10.368  -0.444  0.00  0.00    -0.270 OA
BRANCH  14  16
ATOM     16  C   LIG    1        4.370   9.710  -0.616  0.00  0.00    +0.056 A 
ATOM     17  C   LIG    1        3.488   8.726  -1.064  0.00  0.00    +0.054 A 
ATOM     18 CL   LIG    1        3.967   7.107  -1.428  0.00  0.00    -0.083 Cl
ATOM     19  C   LIG    1        2.147   9.044  -1.279  0.00  0.00    +0.041 A 
ATOM     20  C   LIG    1        1.661  10.342  -1.057  0.00  0.00    +0.052 A 
ATOM     21 CL   LIG    1        0.020  10.594  -1.544  0.00  0.00    -0.083 Cl
ATOM     22  C   LIG    1        2.501  11.358  -0.560  0.00  0.00    +0.022 A 
ATOM     23  C   LIG    1        3.865  11.004  -0.363  0.00  0.00    +0.026 A 
BRANCH  22  24
ATOM     24  C   LIG    1        2.086  12.761  -0.289  0.00  0.00    +0.107 A 
ATOM     25  C   LIG    1        0.862  13.154   0.258  0.00  0.00    +0.149 A 
ATOM     26  F   LIG    1       -0.046  12.264   0.679  0.00  0.00    -0.203 F 
ATOM     27  C   LIG    1        0.577  14.506   0.436  0.00  0.00    +0.042 A 
ATOM     28  C   LIG    1        1.544  15.451   0.123  0.00  0.00    +0.023 A 
ATOM     29  C   LIG    1        2.758  14.997  -0.361  0.00  0.00    +0.111 A 
ATOM     30  N   LIG    1        3.044  13.690  -0.578  0.00  0.00    -0.252 NA
ENDBRANCH  22  24
ENDBRANCH  14  16
ENDBRANCH   4  12
BRANCH   1  32
ATOM     31  N   LIG    1       10.440   5.018  -0.966  0.00  0.00    -0.249 NA
ATOM     32  C   LIG    1       10.571   5.849   0.006  0.00  0.00    +0.236 C 
BRANCH  32  33
ATOM     33  O   LIG    1       11.682   5.947   0.772  0.00  0.00    -0.491 OA
ATOM     34  H   LIG    1       11.541   6.621   1.463  0.00  0.00    +0.294 HD
ENDBRANCH  32  33
BRANCH  31  35
ATOM     35  C   LIG    1       11.598   4.164  -1.253  0.00  0.00    +0.147 C 
BRANCH  35  36
ATOM     36  C   LIG    1       11.262   3.222  -2.411  0.00  0.00    +0.051 C 
BRANCH  36  37
ATOM     37  C   LIG    1       10.935   3.968  -3.698  0.00  0.00    +0.157 C 
BRANCH  37  38
ATOM     38  O   LIG    1       10.673   3.024  -4.731  0.00  0.00    -0.395 OA
ATOM     39  H   LIG    1       10.539   3.530  -5.551  0.00  0.00    +0.209 HD
ENDBRANCH  37  38
ENDBRANCH  36  37
ENDBRANCH  35  36
ENDBRANCH  31  35
ENDBRANCH   1  32
TORSDOF 10
