REMARK  Name = pdb/CHEMBL176857.pdb
REMARK                            x       y       z     vdW  Elec       q    Type
REMARK                         _______ _______ _______ _____ _____    ______ ____
ROOT
ATOM      1  C   LIG    1        1.551  -2.200   1.345  0.00  0.00    +0.029 A 
ATOM      2  C   LIG    1        1.092  -1.062   2.049  0.00  0.00    +0.139 A 
ATOM      3  C   LIG    1       -0.097  -1.088   2.803  0.00  0.00    +0.060 A 
ATOM      4 BR   LIG    1       -0.690   0.460   3.732  0.00  0.00    -0.046 Br
ATOM      5  C   LIG    1       -0.879  -2.237   2.867  0.00  0.00    +0.027 A 
ATOM      6  C   LIG    1       -0.465  -3.378   2.186  0.00  0.00    -0.022 A 
ATOM      7  C   LIG    1        0.740  -3.355   1.459  0.00  0.00    +0.020 A 
ENDROOT
BRANCH   6   8
ATOM      8  C   LIG    1       -1.312  -4.577   2.170  0.00  0.00    +0.021 C 
ATOM      9  C   LIG    1       -1.290  -5.579   3.062  0.00  0.00    +0.048 C 
ATOM     10  C   LIG    1       -2.125  -6.782   3.014  0.00  0.00    +0.028 A 
ATOM     11  C   LIG    1       -3.096  -7.254   2.150  0.00  0.00    +0.028 A 
ATOM     12  C   LIG    1       -3.667  -8.492   2.449  0.00  0.00    +0.037 A 
ATOM     13 BR   LIG    1       -4.991  -9.225   1.321  0.00  0.00    -0.049 Br
ATOM     14  C   LIG    1       -3.245  -9.188   3.587  0.00  0.00    +0.128 A 
ATOM     15  N   LIG    1       -2.294  -8.740   4.447  0.00  0.00    -0.238 NA
ATOM     16  C   LIG    1       -1.770  -7.552   4.121  0.00  0.00    +0.133 A 
ATOM     17  N   LIG    1       -0.779  -6.917   4.850  0.00  0.00    -0.266 N 
ATOM     18  H   LIG    1       -0.374  -7.302   5.688  0.00  0.00    +0.157 HD
ATOM     19  C   LIG    1       -0.417  -5.706   4.286  0.00  0.00    +0.250 C 
ATOM     20  O   LIG    1        0.414  -4.928   4.701  0.00  0.00    -0.270 OA
ENDBRANCH   6   8
BRANCH   1  22
ATOM     21  C   LIG    1        2.977  -2.951  -0.682  0.00  0.00    +0.128 A 
ATOM     22  C   LIG    1        2.818  -2.216   0.525  0.00  0.00    +0.027 A 
ATOM     23  C   LIG    1        3.941  -1.463   0.944  0.00  0.00    +0.012 A 
ATOM     24  C   LIG    1        5.135  -1.412   0.216  0.00  0.00    +0.001 A 
ATOM     25  C   LIG    1        5.264  -2.148  -0.949  0.00  0.00    +0.004 A 
ATOM     26  C   LIG    1        4.195  -2.923  -1.389  0.00  0.00    +0.046 A 
BRANCH  21  28
ATOM     27  C   LIG    1        1.790  -3.928  -2.505  0.00  0.00    +0.277 C 
ATOM     28  O   LIG    1        1.930  -3.737  -1.103  0.00  0.00    -0.495 OA
ENDBRANCH  21  28
ENDBRANCH   1  22
BRANCH   2  29
ATOM     29  O   LIG    1        1.802   0.116   1.991  0.00  0.00    -0.505 OA
ATOM     30  H   LIG    1        1.383   0.744   2.607  0.00  0.00    +0.292 HD
ENDBRANCH   2  29
TORSDOF 4
