REMARK  Name = pdb/CHEMBL3671460.pdb
REMARK                            x       y       z     vdW  Elec       q    Type
REMARK                         _______ _______ _______ _____ _____    ______ ____
ROOT
ATOM      1  C   LIG    1        4.896  -2.576  -5.037  0.00  0.00    +0.042 A 
ATOM      2  C   LIG    1        6.124  -1.935  -5.277  0.00  0.00    +0.038 A 
ATOM      3  C   LIG    1        6.249  -0.975  -6.295  0.00  0.00    +0.054 A 
ATOM      4  C   LIG    1        5.135  -0.748  -7.103  0.00  0.00    +0.134 A 
ATOM      5  N   LIG    1        3.935  -1.335  -6.890  0.00  0.00    -0.261 NA
ATOM      6  C   LIG    1        3.836  -2.186  -5.840  0.00  0.00    +0.122 A 
ENDROOT
BRANCH   3   7
ATOM      7  N   LIG    1        7.478  -0.278  -6.430  0.00  0.00    -0.268 N 
ATOM      8  H   LIG    1        8.160  -0.512  -5.699  0.00  0.00    +0.156 HD
ATOM      9  C   LIG    1        7.776   0.691  -7.346  0.00  0.00    +0.309 C 
ATOM     10  N   LIG    1        9.148   1.089  -7.149  0.00  0.00    -0.254 N 
ATOM     11  H   LIG    1        9.710   0.575  -6.475  0.00  0.00    +0.158 HD
ATOM     12  O   LIG    1        7.081   1.164  -8.232  0.00  0.00    -0.252 OA
BRANCH  10  13
ATOM     13  C   LIG    1        9.819   2.033  -7.934  0.00  0.00    +0.130 A 
ATOM     14  N   LIG    1       11.190   2.329  -7.943  0.00  0.00    -0.215 N 
ATOM     15  N   LIG    1       11.517   3.117  -9.006  0.00  0.00    -0.169 NA
ATOM     16  C   LIG    1       10.344   3.462  -9.537  0.00  0.00    +0.068 A 
ATOM     17  C   LIG    1        9.263   2.813  -8.921  0.00  0.00    +0.069 A 
BRANCH  14  18
ATOM     18  C   LIG    1       12.170   1.847  -7.033  0.00  0.00    +0.105 A 
ATOM     19  C   LIG    1       13.526   1.715  -7.254  0.00  0.00    +0.135 A 
ATOM     20  N   LIG    1       14.043   1.179  -6.106  0.00  0.00    -0.272 N 
ATOM     21  C   LIG    1       15.415   0.794  -5.868  0.00  0.00    +0.172 C 
ATOM     22  N   LIG    1       13.114   0.995  -5.146  0.00  0.00    -0.178 NA
ATOM     23  C   LIG    1       11.986   1.440  -5.700  0.00  0.00    +0.162 A 
ENDBRANCH  14  18
BRANCH  16  24
ATOM     24  C   LIG    1       10.209   4.415 -10.718  0.00  0.00    +0.040 C 
ATOM     25  C   LIG    1        9.047   5.395 -10.751  0.00  0.00    +0.010 C 
ATOM     26  C   LIG    1        9.040   4.225 -11.672  0.00  0.00    +0.010 C 
ENDBRANCH  16  24
ENDBRANCH  10  13
ENDBRANCH   3   7
BRANCH   1  27
ATOM     27  C   LIG    1        4.747  -3.568  -3.918  0.00  0.00    +0.197 C 
ATOM     28  O   LIG    1        5.476  -3.421  -2.939  0.00  0.00    -0.287 OA
BRANCH  27  36
ATOM     29  N   LIG    1        2.305  -6.162  -4.875  0.00  0.00    -0.329 N 
ATOM     30  C   LIG    1        2.679  -6.668  -3.660  0.00  0.00    +0.145 A 
ATOM     31  N   LIG    1        2.252  -7.837  -3.153  0.00  0.00    -0.218 NA
ATOM     32  C   LIG    1        2.764  -8.077  -1.939  0.00  0.00    +0.223 A 
ATOM     33  N   LIG    1        3.581  -7.281  -1.224  0.00  0.00    -0.243 NA
ATOM     34  C   LIG    1        3.984  -6.108  -1.780  0.00  0.00    +0.124 A 
ATOM     35  C   LIG    1        3.560  -5.764  -3.067  0.00  0.00    +0.048 A 
ATOM     36  C   LIG    1        3.811  -4.705  -4.022  0.00  0.00    +0.051 A 
ATOM     37  C   LIG    1        3.028  -5.025  -5.121  0.00  0.00    +0.100 A 
BRANCH  29  39
ATOM     38  C   LIG    1       -0.066  -6.217  -5.610  0.00  0.00    +0.030 C 
ATOM     39  C   LIG    1        1.347  -6.777  -5.794  0.00  0.00    +0.083 C 
ATOM     40  C   LIG    1        1.781  -6.663  -7.259  0.00  0.00    +0.030 C 
ENDBRANCH  29  39
ENDBRANCH  27  36
ENDBRANCH   1  27
TORSDOF 7
