REMARK  Name = pdb/CHEMBL3962859.pdb
REMARK                            x       y       z     vdW  Elec       q    Type
REMARK                         _______ _______ _______ _____ _____    ______ ____
ROOT
ATOM      1  N   LIG    1        5.305  -1.396  -1.445  0.00  0.00    -0.266 N 
ATOM      2  H   LIG    1        5.828  -1.266  -2.296  0.00  0.00    +0.157 HD
ATOM      3  C   LIG    1        5.469  -0.418  -0.387  0.00  0.00    +0.251 C 
ATOM      4  O   LIG    1        4.736  -0.400   0.579  0.00  0.00    -0.270 OA
ENDROOT
BRANCH   3   5
ATOM      5  C   LIG    1        6.502   0.638  -0.599  0.00  0.00    +0.056 A 
ATOM      6  C   LIG    1        7.662   0.425  -1.327  0.00  0.00    +0.054 A 
ATOM      7 CL   LIG    1        8.147  -1.118  -1.929  0.00  0.00    -0.083 Cl
ATOM      8  C   LIG    1        8.512   1.493  -1.597  0.00  0.00    +0.041 A 
ATOM      9  C   LIG    1        8.251   2.778  -1.095  0.00  0.00    +0.052 A 
ATOM     10 CL   LIG    1        9.296   4.005  -1.727  0.00  0.00    -0.083 Cl
ATOM     11  C   LIG    1        7.162   3.019  -0.233  0.00  0.00    +0.022 A 
ATOM     12  C   LIG    1        6.278   1.918  -0.030  0.00  0.00    +0.026 A 
BRANCH  11  13
ATOM     13  C   LIG    1        6.864   4.322   0.436  0.00  0.00    +0.107 A 
ATOM     14  C   LIG    1        7.820   5.252   0.859  0.00  0.00    +0.149 A 
ATOM     15  F   LIG    1        9.135   5.018   0.772  0.00  0.00    -0.203 F 
ATOM     16  C   LIG    1        7.427   6.447   1.457  0.00  0.00    +0.042 A 
ATOM     17  C   LIG    1        6.081   6.676   1.693  0.00  0.00    +0.023 A 
ATOM     18  C   LIG    1        5.184   5.696   1.306  0.00  0.00    +0.111 A 
ATOM     19  N   LIG    1        5.539   4.544   0.680  0.00  0.00    -0.252 NA
ENDBRANCH  11  13
ENDBRANCH   3   5
BRANCH   1  23
ATOM     20  C   LIG    1        2.802  -3.847  -0.658  0.00  0.00    +0.149 A 
ATOM     21  N   LIG    1        2.837  -4.005  -1.989  0.00  0.00    -0.160 NA
ATOM     22  N   LIG    1        3.857  -3.226  -2.431  0.00  0.00    -0.218 N 
ATOM     23  C   LIG    1        4.388  -2.453  -1.385  0.00  0.00    +0.129 A 
ATOM     24  C   LIG    1        3.770  -2.907  -0.243  0.00  0.00    +0.078 A 
BRANCH  22  25
ATOM     25  C   LIG    1        4.155  -3.214  -3.829  0.00  0.00    +0.067 A 
ATOM     26  C   LIG    1        5.395  -2.806  -4.329  0.00  0.00    +0.028 A 
ATOM     27  C   LIG    1        5.614  -2.751  -5.712  0.00  0.00    +0.002 A 
ATOM     28  C   LIG    1        4.607  -3.117  -6.603  0.00  0.00    +0.000 A 
ATOM     29  C   LIG    1        3.387  -3.573  -6.115  0.00  0.00    +0.002 A 
ATOM     30  C   LIG    1        3.165  -3.636  -4.737  0.00  0.00    +0.028 A 
ENDBRANCH  22  25
BRANCH  20  31
ATOM     31  C   LIG    1        1.863  -4.565   0.203  0.00  0.00    +0.236 C 
ATOM     32  N   LIG    1        1.918  -4.394   1.483  0.00  0.00    -0.246 NA
BRANCH  32  33
ATOM     33  C   LIG    1        1.107  -5.136   2.391  0.00  0.00    +0.109 C 
ATOM     34  C   LIG    1        0.971  -4.613   3.796  0.00  0.00    +0.029 C 
ATOM     35  C   LIG    1        1.896  -5.754   3.517  0.00  0.00    +0.029 C 
ENDBRANCH  32  33
BRANCH  31  36
ATOM     36  O   LIG    1        1.015  -5.394  -0.440  0.00  0.00    -0.491 OA
ATOM     37  H   LIG    1        0.352  -5.763   0.151  0.00  0.00    +0.294 HD
ENDBRANCH  31  36
ENDBRANCH  20  31
ENDBRANCH   1  23
TORSDOF 7
