REMARK  Name = pdb/CHEMBL3972751.pdb
REMARK                            x       y       z     vdW  Elec       q    Type
REMARK                         _______ _______ _______ _____ _____    ______ ____
ROOT
ATOM      1  C   LIG    1        4.500  -0.849  -0.475  0.00  0.00    +0.099 A 
ATOM      2  C   LIG    1        5.358   0.249  -0.521  0.00  0.00    +0.179 A 
ATOM      3  N   LIG    1        5.186   1.627  -0.479  0.00  0.00    -0.211 NA
ATOM      4  C   LIG    1        6.263   2.386  -0.406  0.00  0.00    +0.126 A 
ATOM      5  C   LIG    1        7.660   1.815  -0.449  0.00  0.00    +0.063 A 
ATOM      6  C   LIG    1        7.773   0.488  -0.526  0.00  0.00    +0.118 A 
ATOM      7  N   LIG    1        6.644  -0.311  -0.556  0.00  0.00    -0.220 N 
ATOM      8  N   LIG    1        6.630  -1.662  -0.601  0.00  0.00    -0.171 NA
ATOM      9  C   LIG    1        5.338  -1.978  -0.538  0.00  0.00    +0.160 A 
ENDROOT
BRANCH   4  10
ATOM     10  N   LIG    1        6.190   3.772  -0.302  0.00  0.00    -0.308 N 
ATOM     11  C   LIG    1        5.095   4.561  -0.893  0.00  0.00    +0.108 C 
ATOM     12  C   LIG    1        4.851   5.713   0.107  0.00  0.00    +0.029 C 
ATOM     13  C   LIG    1        5.577   5.291   1.376  0.00  0.00    +0.021 C 
ATOM     14  C   LIG    1        6.752   4.489   0.845  0.00  0.00    +0.107 C 
BRANCH  11  15
ATOM     15  C   LIG    1        5.511   5.096  -2.255  0.00  0.00    +0.011 A 
ATOM     16  C   LIG    1        4.542   5.385  -3.223  0.00  0.00    +0.129 A 
ATOM     17  F   LIG    1        3.245   5.184  -2.949  0.00  0.00    -0.205 F 
ATOM     18  C   LIG    1        4.887   5.894  -4.479  0.00  0.00    +0.041 A 
ATOM     19  C   LIG    1        6.225   6.136  -4.788  0.00  0.00    +0.041 A 
ATOM     20  C   LIG    1        7.197   5.866  -3.835  0.00  0.00    +0.124 A 
ATOM     21  F   LIG    1        8.485   6.100  -4.118  0.00  0.00    -0.205 F 
ATOM     22  C   LIG    1        6.855   5.358  -2.585  0.00  0.00    +0.046 A 
ENDBRANCH  11  15
ENDBRANCH   4  10
BRANCH   1  23
ATOM     23  N   LIG    1        3.144  -0.844  -0.391  0.00  0.00    -0.265 N 
ATOM     24  H   LIG    1        2.649   0.042  -0.445  0.00  0.00    +0.157 HD
BRANCH  23  25
ATOM     25  C   LIG    1        2.401  -1.831   0.209  0.00  0.00    +0.285 C 
ATOM     26  N   LIG    1        2.716  -3.047   0.556  0.00  0.00    -0.199 NA
BRANCH  26  27
ATOM     27  C   LIG    1        1.806  -3.927   1.183  0.00  0.00    +0.069 A 
ATOM     28  C   LIG    1        0.583  -4.290   0.616  0.00  0.00    +0.028 A 
ATOM     29  C   LIG    1       -0.304  -5.142   1.285  0.00  0.00    +0.002 A 
ATOM     30  C   LIG    1        0.051  -5.696   2.513  0.00  0.00    +0.000 A 
ATOM     31  C   LIG    1        1.294  -5.394   3.067  0.00  0.00    +0.002 A 
ATOM     32  C   LIG    1        2.165  -4.517   2.406  0.00  0.00    +0.028 A 
ENDBRANCH  26  27
BRANCH  25  33
ATOM     33  O   LIG    1        1.176  -1.326   0.450  0.00  0.00    -0.481 OA
ATOM     34  H   LIG    1        0.663  -1.929   1.004  0.00  0.00    +0.295 HD
ENDBRANCH  25  33
ENDBRANCH  23  25
ENDBRANCH   1  23
TORSDOF 6
