REMARK  Name = pdb/CHEMBL3956535.pdb
REMARK                            x       y       z     vdW  Elec       q    Type
REMARK                         _______ _______ _______ _____ _____    ______ ____
ROOT
ATOM      1  C   LIG    1        7.587   4.151  -1.335  0.00  0.00    +0.149 A 
ATOM      2  N   LIG    1        8.534   4.778  -2.046  0.00  0.00    -0.160 NA
ATOM      3  N   LIG    1        8.244   6.097  -1.959  0.00  0.00    -0.218 N 
ATOM      4  C   LIG    1        7.033   6.312  -1.281  0.00  0.00    +0.129 A 
ATOM      5  C   LIG    1        6.641   5.071  -0.836  0.00  0.00    +0.078 A 
ENDROOT
BRANCH   3   6
ATOM      6  C   LIG    1        9.140   7.037  -2.545  0.00  0.00    +0.067 A 
ATOM      7  C   LIG    1        9.217   8.350  -2.080  0.00  0.00    +0.028 A 
ATOM      8  C   LIG    1       10.070   9.272  -2.694  0.00  0.00    +0.002 A 
ATOM      9  C   LIG    1       10.872   8.879  -3.762  0.00  0.00    +0.000 A 
ATOM     10  C   LIG    1       10.850   7.556  -4.196  0.00  0.00    +0.002 A 
ATOM     11  C   LIG    1        9.997   6.631  -3.583  0.00  0.00    +0.028 A 
ENDBRANCH   3   6
BRANCH   4  12
ATOM     12  N   LIG    1        6.308   7.508  -1.142  0.00  0.00    -0.266 N 
ATOM     13  H   LIG    1        6.661   8.329  -1.612  0.00  0.00    +0.157 HD
ATOM     14  C   LIG    1        5.067   7.603  -0.405  0.00  0.00    +0.251 C 
ATOM     15  O   LIG    1        4.575   6.640   0.148  0.00  0.00    -0.270 OA
BRANCH  14  16
ATOM     16  C   LIG    1        4.366   8.911  -0.392  0.00  0.00    +0.056 A 
ATOM     17  C   LIG    1        5.013  10.139  -0.451  0.00  0.00    +0.056 A 
ATOM     18 CL   LIG    1        6.721  10.326  -0.399  0.00  0.00    -0.083 Cl
ATOM     19  C   LIG    1        4.267  11.311  -0.509  0.00  0.00    +0.059 A 
ATOM     20  C   LIG    1        2.879  11.261  -0.419  0.00  0.00    +0.134 A 
ATOM     21  F   LIG    1        2.224  12.423  -0.542  0.00  0.00    -0.205 F 
ATOM     22  C   LIG    1        2.185  10.061  -0.223  0.00  0.00    +0.039 A 
ATOM     23  C   LIG    1        2.957   8.878  -0.248  0.00  0.00    +0.027 A 
BRANCH  22  24
ATOM     24  C   LIG    1        0.725  10.016   0.006  0.00  0.00    +0.109 A 
ATOM     25  C   LIG    1        0.016  11.022   0.672  0.00  0.00    +0.149 A 
ATOM     26  F   LIG    1        0.631  12.093   1.193  0.00  0.00    -0.203 F 
ATOM     27  C   LIG    1       -1.356  10.904   0.853  0.00  0.00    +0.042 A 
ATOM     28  C   LIG    1       -2.004   9.768   0.390  0.00  0.00    +0.023 A 
ATOM     29  C   LIG    1       -1.241   8.793  -0.233  0.00  0.00    +0.111 A 
ATOM     30  N   LIG    1        0.098   8.889  -0.435  0.00  0.00    -0.252 NA
ENDBRANCH  22  24
ENDBRANCH  14  16
ENDBRANCH   4  12
BRANCH   1  32
ATOM     31  N   LIG    1        6.453   2.085  -1.031  0.00  0.00    -0.249 NA
ATOM     32  C   LIG    1        7.569   2.700  -1.180  0.00  0.00    +0.236 C 
BRANCH  32  33
ATOM     33  O   LIG    1        8.787   2.123  -1.201  0.00  0.00    -0.491 OA
ATOM     34  H   LIG    1        8.741   1.163  -1.127  0.00  0.00    +0.294 HD
ENDBRANCH  32  33
BRANCH  31  35
ATOM     35  C   LIG    1        6.383   0.628  -0.935  0.00  0.00    +0.147 C 
BRANCH  35  36
ATOM     36  C   LIG    1        6.412   0.211   0.534  0.00  0.00    +0.051 C 
BRANCH  36  37
ATOM     37  C   LIG    1        6.227  -1.289   0.721  0.00  0.00    +0.157 C 
BRANCH  37  38
ATOM     38  O   LIG    1        7.277  -1.990   0.069  0.00  0.00    -0.395 OA
ATOM     39  H   LIG    1        7.082  -2.941   0.163  0.00  0.00    +0.209 HD
ENDBRANCH  37  38
ENDBRANCH  36  37
ENDBRANCH  35  36
ENDBRANCH  31  35
ENDBRANCH   1  32
TORSDOF 10
