REMARK  Name = pdb/CHEMBL3970836.pdb
REMARK                            x       y       z     vdW  Elec       q    Type
REMARK                         _______ _______ _______ _____ _____    ______ ____
ROOT
ATOM      1  C   LIG    1        4.631  -1.317  -4.431  0.00  0.00    +0.131 C 
ATOM      2  N   LIG    1        5.450  -1.063  -5.470  0.00  0.00    -0.141 NA
ATOM      3  N   LIG    1        4.713  -0.269  -6.301  0.00  0.00    -0.201 N 
ATOM      4  C   LIG    1        3.563   0.219  -5.667  0.00  0.00    +0.185 C 
ATOM      5  C   LIG    1        3.447  -0.534  -4.515  0.00  0.00    +0.056 C 
ENDROOT
BRANCH   3   6
ATOM      6  C   LIG    1        5.160  -0.003  -7.626  0.00  0.00    +0.052 A 
ATOM      7  C   LIG    1        6.524  -0.082  -7.937  0.00  0.00    +0.025 A 
ATOM      8  C   LIG    1        6.962   0.188  -9.238  0.00  0.00    +0.002 A 
ATOM      9  C   LIG    1        6.044   0.512 -10.237  0.00  0.00    +0.000 A 
ATOM     10  C   LIG    1        4.685   0.564  -9.939  0.00  0.00    +0.002 A 
ATOM     11  C   LIG    1        4.242   0.298  -8.641  0.00  0.00    +0.025 A 
ENDBRANCH   3   6
BRANCH   4  12
ATOM     12  N   LIG    1        2.765   1.308  -6.079  0.00  0.00    -0.282 N 
ATOM     13  H   LIG    1        3.145   1.899  -6.813  0.00  0.00    +0.152 HD
ATOM     14  C   LIG    1        1.482   1.652  -5.517  0.00  0.00    +0.247 C 
ATOM     15  O   LIG    1        0.992   0.947  -4.633  0.00  0.00    -0.270 OA
BRANCH  14  16
ATOM     16  C   LIG    1        0.771   2.878  -5.992  0.00  0.00    +0.056 A 
ATOM     17  C   LIG    1        0.889   3.406  -7.273  0.00  0.00    +0.054 A 
ATOM     18 CL   LIG    1        1.739   2.636  -8.551  0.00  0.00    -0.083 Cl
ATOM     19  C   LIG    1        0.278   4.621  -7.587  0.00  0.00    +0.041 A 
ATOM     20  C   LIG    1       -0.521   5.302  -6.658  0.00  0.00    +0.052 A 
ATOM     21 CL   LIG    1       -0.911   6.923  -7.122  0.00  0.00    -0.083 Cl
ATOM     22  C   LIG    1       -0.840   4.719  -5.417  0.00  0.00    +0.022 A 
ATOM     23  C   LIG    1       -0.111   3.530  -5.097  0.00  0.00    +0.026 A 
BRANCH  22  24
ATOM     24  C   LIG    1       -1.853   5.232  -4.436  0.00  0.00    +0.107 A 
ATOM     25  C   LIG    1       -2.915   6.103  -4.707  0.00  0.00    +0.149 A 
ATOM     26  F   LIG    1       -3.233   6.494  -5.947  0.00  0.00    -0.203 F 
ATOM     27  C   LIG    1       -3.766   6.524  -3.688  0.00  0.00    +0.042 A 
ATOM     28  C   LIG    1       -3.633   5.977  -2.423  0.00  0.00    +0.023 A 
ATOM     29  C   LIG    1       -2.637   5.039  -2.235  0.00  0.00    +0.111 A 
ATOM     30  N   LIG    1       -1.737   4.689  -3.188  0.00  0.00    -0.252 NA
ENDBRANCH  22  24
ENDBRANCH  14  16
ENDBRANCH   4  12
BRANCH   1  32
ATOM     31  N   LIG    1        4.202  -2.786  -2.563  0.00  0.00    -0.238 NA
ATOM     32  C   LIG    1        5.054  -2.207  -3.345  0.00  0.00    +0.233 C 
BRANCH  31  34
ATOM     33  C   LIG    1        5.449  -4.906  -2.000  0.00  0.00    +0.041 C 
ATOM     34  C   LIG    1        4.777  -3.638  -1.490  0.00  0.00    +0.109 C 
ATOM     35  C   LIG    1        5.533  -2.825  -0.418  0.00  0.00    +0.192 C 
ATOM     36  O   LIG    1        4.514  -3.065   0.579  0.00  0.00    -0.375 OA
ATOM     37  C   LIG    1        3.749  -3.866  -0.353  0.00  0.00    +0.192 C 
ENDBRANCH  31  34
BRANCH  32  38
ATOM     38  O   LIG    1        6.394  -2.356  -3.208  0.00  0.00    -0.491 OA
ATOM     39  H   LIG    1        6.859  -1.893  -3.927  0.00  0.00    +0.294 HD
ENDBRANCH  32  38
ENDBRANCH   1  32
TORSDOF 7
