REMARK  Name = pdb/CHEMBL3903947.pdb
REMARK                            x       y       z     vdW  Elec       q    Type
REMARK                         _______ _______ _______ _____ _____    ______ ____
ROOT
ATOM      1  C   LIG    1        6.742   5.320   0.398  0.00  0.00    +0.149 A 
ATOM      2  N   LIG    1        7.334   6.418  -0.103  0.00  0.00    -0.160 NA
ATOM      3  N   LIG    1        6.459   7.428   0.121  0.00  0.00    -0.218 N 
ATOM      4  C   LIG    1        5.212   6.949   0.539  0.00  0.00    +0.129 A 
ATOM      5  C   LIG    1        5.414   5.614   0.801  0.00  0.00    +0.078 A 
ENDROOT
BRANCH   3   6
ATOM      6  C   LIG    1        6.863   8.772  -0.105  0.00  0.00    +0.067 A 
ATOM      7  C   LIG    1        6.299   9.825   0.628  0.00  0.00    +0.028 A 
ATOM      8  C   LIG    1        6.709  11.140   0.396  0.00  0.00    +0.002 A 
ATOM      9  C   LIG    1        7.693  11.409  -0.553  0.00  0.00    +0.000 A 
ATOM     10  C   LIG    1        8.282  10.364  -1.261  0.00  0.00    +0.002 A 
ATOM     11  C   LIG    1        7.880   9.046  -1.031  0.00  0.00    +0.028 A 
ENDBRANCH   3   6
BRANCH   4  12
ATOM     12  N   LIG    1        4.003   7.656   0.595  0.00  0.00    -0.266 N 
ATOM     13  H   LIG    1        4.020   8.623   0.290  0.00  0.00    +0.157 HD
ATOM     14  C   LIG    1        2.739   7.073   0.972  0.00  0.00    +0.251 C 
ATOM     15  O   LIG    1        2.659   5.894   1.299  0.00  0.00    -0.270 OA
BRANCH  14  16
ATOM     16  C   LIG    1        1.519   7.913   0.867  0.00  0.00    +0.056 A 
ATOM     17  C   LIG    1        1.509   9.288   1.078  0.00  0.00    +0.054 A 
ATOM     18 CL   LIG    1        2.872  10.176   1.637  0.00  0.00    -0.083 Cl
ATOM     19  C   LIG    1        0.330  10.009   0.900  0.00  0.00    +0.041 A 
ATOM     20  C   LIG    1       -0.874   9.366   0.575  0.00  0.00    +0.052 A 
ATOM     21 CL   LIG    1       -2.233  10.423   0.415  0.00  0.00    -0.083 Cl
ATOM     22  C   LIG    1       -0.935   7.964   0.453  0.00  0.00    +0.019 A 
ATOM     23  C   LIG    1        0.297   7.267   0.579  0.00  0.00    +0.026 A 
BRANCH  22  24
ATOM     24  C   LIG    1       -2.189   7.176   0.319  0.00  0.00    +0.072 A 
ATOM     25  N   LIG    1       -2.194   6.019   1.034  0.00  0.00    -0.255 NA
ATOM     26  C   LIG    1       -3.326   5.278   1.052  0.00  0.00    +0.111 A 
ATOM     27  C   LIG    1       -4.484   5.627   0.384  0.00  0.00    +0.020 A 
ATOM     28  C   LIG    1       -4.467   6.789  -0.371  0.00  0.00    +0.004 A 
ATOM     29  C   LIG    1       -3.305   7.559  -0.423  0.00  0.00    +0.028 A 
ENDBRANCH  22  24
ENDBRANCH  14  16
ENDBRANCH   4  12
BRANCH   1  31
ATOM     30  N   LIG    1        6.732   2.996   0.872  0.00  0.00    -0.243 NA
ATOM     31  C   LIG    1        7.399   4.011   0.456  0.00  0.00    +0.236 C 
BRANCH  31  32
ATOM     32  O   LIG    1        8.688   3.993   0.059  0.00  0.00    -0.491 OA
ATOM     33  H   LIG    1        9.143   3.179   0.320  0.00  0.00    +0.294 HD
ENDBRANCH  31  32
BRANCH  30  34
ATOM     34  C   LIG    1        7.333   1.668   0.897  0.00  0.00    +0.204 C 
BRANCH  34  39
ATOM     35  C   LIG    1        8.701   0.555   5.585  0.00  0.00    +0.174 C 
ATOM     36  N   LIG    1        8.631   0.943   4.200  0.00  0.00    -0.254 N 
ATOM     37  N   LIG    1        9.706   1.462   3.585  0.00  0.00    -0.066 NA
ATOM     38  N   LIG    1        9.348   1.766   2.342  0.00  0.00    -0.133 NA
ATOM     39  C   LIG    1        8.028   1.428   2.186  0.00  0.00    +0.104 A 
ATOM     40  C   LIG    1        7.557   0.892   3.365  0.00  0.00    +0.135 A 
ENDBRANCH  34  39
ENDBRANCH  30  34
ENDBRANCH   1  31
TORSDOF 8
