REMARK  Name = pdb/CHEMBL3676081.pdb
REMARK                            x       y       z     vdW  Elec       q    Type
REMARK                         _______ _______ _______ _____ _____    ______ ____
ROOT
ATOM      1  C   LIG    1        3.414  -4.458   0.460  0.00  0.00    +0.100 A 
ATOM      2  C   LIG    1        4.499  -4.766  -0.341  0.00  0.00    +0.170 A 
ATOM      3  N   LIG    1        5.499  -3.992  -0.875  0.00  0.00    -0.212 NA
ATOM      4  C   LIG    1        6.402  -4.580  -1.637  0.00  0.00    +0.126 A 
ATOM      5  C   LIG    1        6.348  -6.063  -1.929  0.00  0.00    +0.063 A 
ATOM      6  C   LIG    1        5.355  -6.768  -1.379  0.00  0.00    +0.118 A 
ATOM      7  N   LIG    1        4.416  -6.139  -0.583  0.00  0.00    -0.221 N 
ATOM      8  N   LIG    1        3.345  -6.704   0.017  0.00  0.00    -0.173 NA
ATOM      9  C   LIG    1        2.739  -5.686   0.623  0.00  0.00    +0.150 A 
ENDROOT
BRANCH   4  10
ATOM     10  N   LIG    1        7.418  -3.802  -2.188  0.00  0.00    -0.305 N 
ATOM     11  C   LIG    1        8.764  -4.334  -2.462  0.00  0.00    +0.108 C 
ATOM     12  C   LIG    1        9.720  -3.139  -2.327  0.00  0.00    +0.060 C 
ATOM     13  C   LIG    1        8.841  -1.908  -2.467  0.00  0.00    +0.134 C 
ATOM     14  C   LIG    1        7.488  -2.360  -1.910  0.00  0.00    +0.138 C 
BRANCH  11  15
ATOM     15  C   LIG    1        8.863  -5.040  -3.803  0.00  0.00    -0.024 A 
ATOM     16  C   LIG    1        8.064  -4.696  -4.903  0.00  0.00    +0.043 A 
ATOM     17  C   LIG    1        8.181  -5.392  -6.104  0.00  0.00    +0.124 A 
ATOM     18  F   LIG    1        7.408  -5.045  -7.141  0.00  0.00    -0.205 F 
ATOM     19  C   LIG    1        9.074  -6.446  -6.240  0.00  0.00    +0.038 A 
ATOM     20  C   LIG    1        9.868  -6.811  -5.156  0.00  0.00    +0.003 A 
ATOM     21  C   LIG    1        9.769  -6.110  -3.950  0.00  0.00    +0.005 A 
ENDBRANCH  11  15
BRANCH  13  22
ATOM     22  O   LIG    1        8.777  -1.490  -3.827  0.00  0.00    -0.390 OA
ATOM     23  H   LIG    1        8.051  -1.964  -4.266  0.00  0.00    +0.210 HD
ENDBRANCH  13  22
ENDBRANCH   4  10
BRANCH   1  26
ATOM     24  N   LIG    1        3.806  -2.111   0.673  0.00  0.00    -0.300 N 
ATOM     25  H   LIG    1        4.640  -2.308   0.119  0.00  0.00    +0.150 HD
ATOM     26  C   LIG    1        3.011  -3.179   1.002  0.00  0.00    +0.250 C 
ATOM     27  O   LIG    1        2.002  -3.053   1.698  0.00  0.00    -0.270 OA
BRANCH  24  29
ATOM     28  C   LIG    1        4.096   0.261   0.178  0.00  0.00    +0.037 C 
ATOM     29  C   LIG    1        3.512  -0.755   1.155  0.00  0.00    +0.174 C 
BRANCH  29  30
ATOM     30  C   LIG    1        3.930  -0.446   2.618  0.00  0.00    +0.407 C 
ATOM     31  F   LIG    1        4.638  -1.450   3.182  0.00  0.00    -0.169 F 
ATOM     32  F   LIG    1        2.848  -0.218   3.398  0.00  0.00    -0.169 F 
ATOM     33  F   LIG    1        4.704   0.666   2.692  0.00  0.00    -0.169 F 
ENDBRANCH  29  30
ENDBRANCH  24  29
ENDBRANCH   1  26
TORSDOF 6
