REMARK  Name = pdb/CHEMBL3675960.pdb
REMARK                            x       y       z     vdW  Elec       q    Type
REMARK                         _______ _______ _______ _____ _____    ______ ____
ROOT
ATOM      1  C   LIG    1        4.556  -3.297   0.872  0.00  0.00    +0.105 C 
ATOM      2  N   LIG    1        3.894  -3.965  -0.271  0.00  0.00    -0.308 N 
ATOM      3  C   LIG    1        4.671  -5.139  -0.662  0.00  0.00    +0.107 C 
ATOM      4  C   LIG    1        6.094  -4.769  -0.297  0.00  0.00    +0.021 C 
ATOM      5  C   LIG    1        5.940  -3.982   0.993  0.00  0.00    +0.029 C 
ENDROOT
BRANCH   2   6
ATOM      6  C   LIG    1        2.994  -3.375  -1.159  0.00  0.00    +0.126 A 
ATOM      7  N   LIG    1        2.893  -3.876  -2.383  0.00  0.00    -0.212 NA
ATOM      8  C   LIG    1        2.032  -3.294  -3.279  0.00  0.00    +0.170 A 
ATOM      9  C   LIG    1        1.706  -3.567  -4.607  0.00  0.00    +0.100 A 
ATOM     10  C   LIG    1        0.710  -2.608  -4.911  0.00  0.00    +0.150 A 
ATOM     11  N   LIG    1        0.460  -1.758  -3.918  0.00  0.00    -0.173 NA
ATOM     12  N   LIG    1        1.254  -2.185  -2.911  0.00  0.00    -0.221 N 
ATOM     13  C   LIG    1        1.329  -1.661  -1.630  0.00  0.00    +0.118 A 
ATOM     14  C   LIG    1        2.150  -2.202  -0.723  0.00  0.00    +0.063 A 
BRANCH   9  15
ATOM     15  C   LIG    1        2.213  -4.571  -5.535  0.00  0.00    +0.249 C 
ATOM     16  N   LIG    1        3.264  -5.349  -5.107  0.00  0.00    -0.308 N 
ATOM     17  H   LIG    1        3.508  -5.277  -4.116  0.00  0.00    +0.149 HD
ATOM     18  O   LIG    1        1.714  -4.692  -6.672  0.00  0.00    -0.270 OA
BRANCH  16  19
ATOM     19  C   LIG    1        3.885  -6.375  -5.899  0.00  0.00    +0.073 C 
ATOM     20  C   LIG    1        5.302  -6.801  -5.580  0.00  0.00    +0.024 C 
ATOM     21  C   LIG    1        5.001  -6.123  -6.877  0.00  0.00    +0.024 C 
ENDBRANCH  16  19
ENDBRANCH   9  15
ENDBRANCH   2   6
BRANCH   1  25
ATOM     22  F   LIG    1        2.265  -6.014   4.250  0.00  0.00    -0.205 F 
ATOM     23  C   LIG    1        2.593  -4.802   3.784  0.00  0.00    +0.127 A 
ATOM     24  C   LIG    1        3.379  -4.696   2.645  0.00  0.00    +0.044 A 
ATOM     25  C   LIG    1        3.736  -3.436   2.144  0.00  0.00    -0.021 A 
ATOM     26  C   LIG    1        3.300  -2.296   2.845  0.00  0.00    +0.051 A 
ATOM     27  C   LIG    1        2.502  -2.411   3.990  0.00  0.00    +0.124 A 
ATOM     28  C   LIG    1        2.134  -3.674   4.447  0.00  0.00    +0.084 A 
BRANCH  27  29
ATOM     29  O   LIG    1        2.112  -1.226   4.559  0.00  0.00    -0.491 OA
BRANCH  29  30
ATOM     30  C   LIG    1        1.789  -1.309   5.952  0.00  0.00    +0.244 C 
BRANCH  30  31
ATOM     31  C   LIG    1        1.326   0.065   6.450  0.00  0.00    +0.125 C 
BRANCH  31  32
ATOM     32  N   LIG    1        1.078   0.110   7.906  0.00  0.00    -0.295 NA
ATOM     33  C   LIG    1        0.051  -0.855   8.362  0.00  0.00    +0.112 C 
ATOM     34  C   LIG    1       -1.364  -0.509   7.874  0.00  0.00    +0.175 C 
ATOM     35  O   LIG    1       -1.749   0.803   8.300  0.00  0.00    -0.377 OA
ATOM     36  C   LIG    1       -0.808   1.792   7.860  0.00  0.00    +0.175 C 
ATOM     37  C   LIG    1        0.625   1.460   8.318  0.00  0.00    +0.112 C 
ENDBRANCH  31  32
ENDBRANCH  30  31
ENDBRANCH  29  30
ENDBRANCH  27  29
ENDBRANCH   1  25
TORSDOF 8
