REMARK  Name = pdb/CHEMBL2037226.pdb
REMARK                            x       y       z     vdW  Elec       q    Type
REMARK                         _______ _______ _______ _____ _____    ______ ____
ROOT
ATOM      1  C   LIG    1        1.179   0.471   1.634  0.00  0.00    +0.045 C 
ATOM      2  C   LIG    1        2.597   0.340   1.151  0.00  0.00    -0.029 A 
ATOM      3  C   LIG    1        3.034  -0.759   0.384  0.00  0.00    +0.036 A 
ATOM      4  C   LIG    1        4.370  -0.781  -0.063  0.00  0.00    +0.046 A 
ATOM      5  C   LIG    1        5.264   0.261   0.219  0.00  0.00    +0.037 A 
ATOM      6  C   LIG    1        4.815   1.329   0.991  0.00  0.00    +0.024 A 
ATOM      7  C   LIG    1        3.497   1.374   1.445  0.00  0.00    +0.007 A 
ENDROOT
BRANCH   5   8
ATOM      8  N   LIG    1        6.571   0.167  -0.315  0.00  0.00    -0.269 N 
ATOM      9  H   LIG    1        6.758  -0.640  -0.890  0.00  0.00    +0.156 HD
ATOM     10  C   LIG    1        7.595   1.089  -0.168  0.00  0.00    +0.308 C 
ATOM     11  N   LIG    1        8.743   0.680  -0.827  0.00  0.00    -0.267 N 
ATOM     12  H   LIG    1        8.729  -0.211  -1.304  0.00  0.00    +0.156 HD
ATOM     13  O   LIG    1        7.504   2.133   0.463  0.00  0.00    -0.252 OA
BRANCH  11  14
ATOM     14  C   LIG    1        9.978   1.371  -0.887  0.00  0.00    +0.071 A 
ATOM     15  C   LIG    1       11.023   0.774  -1.601  0.00  0.00    +0.145 A 
ATOM     16  F   LIG    1       10.819  -0.406  -2.208  0.00  0.00    -0.204 F 
ATOM     17  C   LIG    1       12.276   1.373  -1.698  0.00  0.00    +0.041 A 
ATOM     18  C   LIG    1       12.504   2.599  -1.071  0.00  0.00    +0.015 A 
ATOM     19  C   LIG    1       11.475   3.228  -0.355  0.00  0.00    +0.057 A 
ATOM     20  C   LIG    1       10.217   2.605  -0.274  0.00  0.00    +0.038 A 
BRANCH  19  21
ATOM     21  C   LIG    1       11.715   4.557   0.323  0.00  0.00    +0.417 C 
ATOM     22  F   LIG    1       12.088   5.526  -0.559  0.00  0.00    -0.166 F 
ATOM     23  F   LIG    1       12.712   4.491   1.248  0.00  0.00    -0.166 F 
ATOM     24  F   LIG    1       10.629   5.049   0.980  0.00  0.00    -0.166 F 
ENDBRANCH  19  21
ENDBRANCH  11  14
ENDBRANCH   5   8
BRANCH   3  25
ATOM     25  N   LIG    1        2.157  -1.832   0.116  0.00  0.00    -0.314 N 
ATOM     26  H   LIG    1        1.187  -1.557   0.016  0.00  0.00    +0.152 HD
BRANCH  25  27
ATOM     27  C   LIG    1        2.396  -3.209  -0.064  0.00  0.00    +0.033 A 
ATOM     28  C   LIG    1        3.506  -3.855   0.494  0.00  0.00    +0.047 A 
ATOM     29  C   LIG    1        3.696  -5.194   0.208  0.00  0.00    +0.043 A 
ATOM     30  N   LIG    1        4.733  -5.995   0.667  0.00  0.00    -0.281 N 
ATOM     31  H   LIG    1        5.484  -5.699   1.276  0.00  0.00    +0.155 HD
ATOM     32  C   LIG    1        4.616  -7.295   0.210  0.00  0.00    +0.249 C 
ATOM     33  O   LIG    1        5.359  -8.214   0.493  0.00  0.00    -0.270 OA
ATOM     34  C   LIG    1        3.361  -7.308  -0.637  0.00  0.00    +0.048 C 
ATOM     35  C   LIG    1        2.797  -8.327  -1.306  0.00  0.00    +0.039 C 
ATOM     36  C   LIG    1        2.829  -5.935  -0.602  0.00  0.00    +0.008 A 
ATOM     37  C   LIG    1        1.728  -5.314  -1.163  0.00  0.00    +0.012 A 
ATOM     38  C   LIG    1        1.520  -3.950  -0.891  0.00  0.00    +0.024 A 
BRANCH  35  39
ATOM     39  C   LIG    1        3.247  -9.674  -1.363  0.00  0.00    +0.040 A 
ATOM     40  N   LIG    1        3.904 -10.263  -0.306  0.00  0.00    -0.361 N 
ATOM     41  H   LIG    1        4.212  -9.781   0.531  0.00  0.00    +0.165 HD
ATOM     42  C   LIG    1        4.182 -11.575  -0.589  0.00  0.00    +0.083 A 
ATOM     43  C   LIG    1        3.703 -11.845  -1.848  0.00  0.00    +0.019 A 
ATOM     44  C   LIG    1        3.102 -10.655  -2.330  0.00  0.00    +0.027 A 
ENDBRANCH  35  39
ENDBRANCH  25  27
ENDBRANCH   3  25
TORSDOF 6
