REMARK  Name = pdb/CHEMBL3914679.pdb
REMARK                            x       y       z     vdW  Elec       q    Type
REMARK                         _______ _______ _______ _____ _____    ______ ____
ROOT
ATOM      1  C   LIG    1        3.876  -2.223  -1.081  0.00  0.00    +0.105 A 
ATOM      2  C   LIG    1        4.356  -3.087  -2.025  0.00  0.00    +0.145 A 
ATOM      3  N   LIG    1        5.349  -3.962  -1.793  0.00  0.00    -0.201 NA
ATOM      4  C   LIG    1        5.853  -4.036  -0.553  0.00  0.00    +0.323 A 
ATOM      5  N   LIG    1        5.492  -3.222   0.446  0.00  0.00    -0.201 NA
ATOM      6  C   LIG    1        4.493  -2.353   0.154  0.00  0.00    +0.145 A 
ENDROOT
BRANCH   1   8
ATOM      7  C   LIG    1        2.636  -0.245  -0.884  0.00  0.00    +0.285 C 
ATOM      8  N   LIG    1        2.784  -1.399  -1.390  0.00  0.00    -0.196 NA
BRANCH   7   9
ATOM      9  N   LIG    1        3.472   0.511  -0.102  0.00  0.00    -0.269 N 
ATOM     10  H   LIG    1        4.458   0.407  -0.293  0.00  0.00    +0.157 HD
BRANCH   9  12
ATOM     11  C   LIG    1        4.011   2.335   1.492  0.00  0.00    +0.021 A 
ATOM     12  C   LIG    1        3.151   1.299   1.027  0.00  0.00    +0.045 A 
ATOM     13  C   LIG    1        1.886   1.115   1.643  0.00  0.00    +0.036 A 
ATOM     14  C   LIG    1        1.415   1.950   2.659  0.00  0.00    +0.057 A 
ATOM     15  C   LIG    1        2.234   2.993   3.074  0.00  0.00    +0.013 A 
ATOM     16  C   LIG    1        3.499   3.176   2.499  0.00  0.00    +0.012 A 
BRANCH  11  19
ATOM     17  C   LIG    1        6.603   3.554   2.990  0.00  0.00    +0.173 C 
ATOM     18  N   LIG    1        6.467   3.148   1.608  0.00  0.00    -0.267 N 
ATOM     19  C   LIG    1        5.375   2.600   0.933  0.00  0.00    +0.070 A 
ATOM     20  C   LIG    1        5.872   2.404  -0.354  0.00  0.00    +0.049 A 
ATOM     21  C   LIG    1        7.207   2.833  -0.347  0.00  0.00    +0.135 A 
ATOM     22  N   LIG    1        7.566   3.300   0.840  0.00  0.00    -0.179 NA
ENDBRANCH  11  19
BRANCH  14  23
ATOM     23  C   LIG    1        0.047   1.719   3.251  0.00  0.00    +0.417 C 
ATOM     24  F   LIG    1       -0.069   0.489   3.821  0.00  0.00    -0.166 F 
ATOM     25  F   LIG    1       -0.938   1.794   2.314  0.00  0.00    -0.166 F 
ATOM     26  F   LIG    1       -0.286   2.617   4.218  0.00  0.00    -0.166 F 
ENDBRANCH  14  23
ENDBRANCH   9  12
ENDBRANCH   7   9
BRANCH   7  27
ATOM     27  O   LIG    1        1.505   0.413  -1.218  0.00  0.00    -0.481 OA
ATOM     28  H   LIG    1        1.497   1.304  -0.846  0.00  0.00    +0.295 HD
ENDBRANCH   7  27
ENDBRANCH   1   8
BRANCH   4  29
ATOM     29  O   LIG    1        6.786  -5.021  -0.227  0.00  0.00    -0.424 OA
BRANCH  29  30
ATOM     30  C   LIG    1        6.777  -6.217  -0.912  0.00  0.00    +0.132 A 
ATOM     31  C   LIG    1        6.417  -6.373  -2.245  0.00  0.00    +0.047 A 
ATOM     32  C   LIG    1        6.381  -7.621  -2.848  0.00  0.00    +0.012 A 
ATOM     33  C   LIG    1        6.857  -8.764  -2.206  0.00  0.00    -0.014 A 
ATOM     34  C   LIG    1        7.274  -8.598  -0.869  0.00  0.00    +0.012 A 
ATOM     35  C   LIG    1        7.208  -7.350  -0.221  0.00  0.00    +0.047 A 
BRANCH  33  36
ATOM     36  C   LIG    1        6.920 -10.064  -2.925  0.00  0.00    +0.023 A 
ATOM     37  C   LIG    1        7.102 -10.184  -4.327  0.00  0.00    +0.124 A 
ATOM     38  N   LIG    1        7.131 -11.362  -4.984  0.00  0.00    -0.239 NA
ATOM     39  C   LIG    1        7.011 -12.487  -4.250  0.00  0.00    +0.133 A 
ATOM     40  C   LIG    1        6.851 -12.492  -2.879  0.00  0.00    +0.060 A 
ATOM     41 CL   LIG    1        6.733 -13.966  -2.010  0.00  0.00    -0.082 Cl
ATOM     42  C   LIG    1        6.793 -11.272  -2.216  0.00  0.00    +0.033 A 
BRANCH  37  43
ATOM     43  N   LIG    1        7.256  -9.092  -5.178  0.00  0.00    -0.343 N 
ATOM     44  H   LIG    1        8.005  -8.481  -4.869  0.00  0.00    +0.144 HD
ATOM     45  H   LIG    1        7.408  -9.449  -6.116  0.00  0.00    +0.144 HD
ENDBRANCH  37  43
ENDBRANCH  33  36
ENDBRANCH  29  30
ENDBRANCH   4  29
TORSDOF 10
