REMARK  Name = pdb/CHEMBL3906935.pdb
REMARK                            x       y       z     vdW  Elec       q    Type
REMARK                         _______ _______ _______ _____ _____    ______ ____
ROOT
ATOM      1  C   LIG    1        0.445  -4.152   0.697  0.00  0.00    +0.149 A 
ATOM      2  N   LIG    1       -0.642  -4.638   0.079  0.00  0.00    -0.160 NA
ATOM      3  N   LIG    1       -0.487  -5.982   0.068  0.00  0.00    -0.218 N 
ATOM      4  C   LIG    1        0.789  -6.357   0.507  0.00  0.00    +0.129 A 
ATOM      5  C   LIG    1        1.364  -5.196   0.973  0.00  0.00    +0.078 A 
ENDROOT
BRANCH   3   6
ATOM      6  C   LIG    1       -1.556  -6.800  -0.390  0.00  0.00    +0.067 A 
ATOM      7  C   LIG    1       -1.750  -8.092   0.108  0.00  0.00    +0.028 A 
ATOM      8  C   LIG    1       -2.818  -8.870  -0.353  0.00  0.00    +0.002 A 
ATOM      9  C   LIG    1       -3.703  -8.356  -1.299  0.00  0.00    +0.000 A 
ATOM     10  C   LIG    1       -3.533  -7.058  -1.777  0.00  0.00    +0.002 A 
ATOM     11  C   LIG    1       -2.471  -6.276  -1.316  0.00  0.00    +0.028 A 
ENDBRANCH   3   6
BRANCH   4  12
ATOM     12  N   LIG    1        1.388  -7.623   0.412  0.00  0.00    -0.266 N 
ATOM     13  H   LIG    1        0.848  -8.353  -0.041  0.00  0.00    +0.157 HD
ATOM     14  C   LIG    1        2.731  -7.926   0.847  0.00  0.00    +0.251 C 
ATOM     15  O   LIG    1        3.439  -7.073   1.345  0.00  0.00    -0.270 OA
BRANCH  14  16
ATOM     16  C   LIG    1        3.247  -9.303   0.619  0.00  0.00    +0.056 A 
ATOM     17  C   LIG    1        2.449 -10.448   0.614  0.00  0.00    +0.056 A 
ATOM     18 CL   LIG    1        0.763 -10.441   0.955  0.00  0.00    -0.083 Cl
ATOM     19  C   LIG    1        3.012 -11.696   0.363  0.00  0.00    +0.059 A 
ATOM     20  C   LIG    1        4.380 -11.818   0.146  0.00  0.00    +0.134 A 
ATOM     21  F   LIG    1        4.834 -13.045  -0.143  0.00  0.00    -0.205 F 
ATOM     22  C   LIG    1        5.244 -10.717   0.195  0.00  0.00    +0.039 A 
ATOM     23  C   LIG    1        4.645  -9.454   0.422  0.00  0.00    +0.027 A 
BRANCH  22  24
ATOM     24  C   LIG    1        6.704 -10.853  -0.005  0.00  0.00    +0.109 A 
ATOM     25  C   LIG    1        7.444 -11.981   0.367  0.00  0.00    +0.149 A 
ATOM     26  F   LIG    1        6.882 -13.022   0.996  0.00  0.00    -0.203 F 
ATOM     27  C   LIG    1        8.811 -12.031   0.121  0.00  0.00    +0.042 A 
ATOM     28  C   LIG    1        9.430 -10.945  -0.479  0.00  0.00    +0.023 A 
ATOM     29  C   LIG    1        8.647  -9.850  -0.806  0.00  0.00    +0.111 A 
ATOM     30  N   LIG    1        7.310  -9.777  -0.583  0.00  0.00    -0.252 NA
ENDBRANCH  22  24
ENDBRANCH  14  16
ENDBRANCH   4  12
BRANCH   1  32
ATOM     31  N   LIG    1       -0.316  -1.881   0.705  0.00  0.00    -0.208 NA
ATOM     32  C   LIG    1        0.627  -2.722   0.974  0.00  0.00    +0.241 C 
BRANCH  31  35
ATOM     33  C   LIG    1        0.364  -0.488   3.582  0.00  0.00    +0.070 C 
ATOM     34  C   LIG    1        0.095   0.105   2.249  0.00  0.00    +0.085 A 
ATOM     35  C   LIG    1       -0.153  -0.533   1.009  0.00  0.00    +0.108 A 
ATOM     36  C   LIG    1       -0.430   0.474   0.123  0.00  0.00    +0.133 A 
ATOM     37  N   LIG    1       -0.344   1.628   0.842  0.00  0.00    -0.282 N 
ATOM     38  H   LIG    1       -0.556   2.574   0.540  0.00  0.00    +0.188 HD
ATOM     39  N   LIG    1        0.046   1.439   2.116  0.00  0.00    -0.177 NA
ENDBRANCH  31  35
BRANCH  32  40
ATOM     40  O   LIG    1        1.840  -2.420   1.496  0.00  0.00    -0.491 OA
ATOM     41  H   LIG    1        1.968  -1.462   1.546  0.00  0.00    +0.294 HD
ENDBRANCH  32  40
ENDBRANCH   1  32
TORSDOF 7
