REMARK  Name = pdb/CHEMBL3671402.pdb
REMARK                            x       y       z     vdW  Elec       q    Type
REMARK                         _______ _______ _______ _____ _____    ______ ____
ROOT
ATOM      1  C   LIG    1        6.798   0.366  -4.536  0.00  0.00    +0.042 A 
ATOM      2  C   LIG    1        8.188   0.524  -4.552  0.00  0.00    +0.038 A 
ATOM      3  C   LIG    1        8.788   1.574  -5.250  0.00  0.00    +0.052 A 
ATOM      4  C   LIG    1        7.947   2.501  -5.851  0.00  0.00    +0.134 A 
ATOM      5  N   LIG    1        6.593   2.406  -5.830  0.00  0.00    -0.261 NA
ATOM      6  C   LIG    1        6.053   1.341  -5.187  0.00  0.00    +0.122 A 
ENDROOT
BRANCH   3   7
ATOM      7  N   LIG    1       10.198   1.592  -5.293  0.00  0.00    -0.284 N 
ATOM      8  H   LIG    1       10.679   0.830  -4.828  0.00  0.00    +0.155 HD
ATOM      9  C   LIG    1       10.989   2.525  -5.945  0.00  0.00    +0.222 C 
ATOM     10  O   LIG    1       10.559   3.493  -6.583  0.00  0.00    -0.275 OA
BRANCH   9  11
ATOM     11  C   LIG    1       12.471   2.210  -5.795  0.00  0.00    +0.131 C 
BRANCH  11  12
ATOM     12  C   LIG    1       13.379   3.201  -6.477  0.00  0.00    -0.039 A 
ATOM     13  C   LIG    1       13.829   4.338  -5.793  0.00  0.00    +0.004 A 
ATOM     14  C   LIG    1       14.668   5.256  -6.427  0.00  0.00    +0.012 A 
ATOM     15  C   LIG    1       15.068   5.059  -7.757  0.00  0.00    +0.055 A 
ATOM     16  C   LIG    1       14.594   3.934  -8.446  0.00  0.00    +0.012 A 
ATOM     17  C   LIG    1       13.753   3.017  -7.814  0.00  0.00    +0.004 A 
BRANCH  15  18
ATOM     18  C   LIG    1       16.000   6.044  -8.416  0.00  0.00    +0.417 C 
ATOM     19  F   LIG    1       17.190   6.148  -7.759  0.00  0.00    -0.166 F 
ATOM     20  F   LIG    1       15.489   7.306  -8.460  0.00  0.00    -0.166 F 
ATOM     21  F   LIG    1       16.316   5.723  -9.702  0.00  0.00    -0.166 F 
ENDBRANCH  15  18
ENDBRANCH  11  12
ENDBRANCH   9  11
ENDBRANCH   3   7
BRANCH   1  22
ATOM     22  C   LIG    1        6.091  -0.750  -3.841  0.00  0.00    +0.197 C 
ATOM     23  O   LIG    1        4.969  -0.521  -3.391  0.00  0.00    -0.287 OA
BRANCH  22  31
ATOM     24  N   LIG    1        8.163  -3.797  -3.730  0.00  0.00    -0.323 N 
ATOM     25  C   LIG    1        7.025  -4.287  -3.138  0.00  0.00    +0.145 A 
ATOM     26  N   LIG    1        6.834  -5.535  -2.675  0.00  0.00    -0.218 NA
ATOM     27  C   LIG    1        5.598  -5.731  -2.202  0.00  0.00    +0.223 A 
ATOM     28  N   LIG    1        4.614  -4.825  -2.103  0.00  0.00    -0.243 NA
ATOM     29  C   LIG    1        4.859  -3.565  -2.538  0.00  0.00    +0.124 A 
ATOM     30  C   LIG    1        6.097  -3.250  -3.102  0.00  0.00    +0.048 A 
ATOM     31  C   LIG    1        6.697  -2.083  -3.699  0.00  0.00    +0.051 A 
ATOM     32  C   LIG    1        7.930  -2.515  -4.158  0.00  0.00    +0.100 A 
BRANCH  24  33
ATOM     33  C   LIG    1        9.465  -4.474  -3.902  0.00  0.00    +0.070 C 
ATOM     34  C   LIG    1       10.361  -4.099  -5.097  0.00  0.00    +0.033 C 
ATOM     35  C   LIG    1       10.748  -3.634  -3.741  0.00  0.00    +0.033 C 
BRANCH  33  36
ATOM     36  C   LIG    1        9.572  -5.900  -3.397  0.00  0.00    +0.184 C 
BRANCH  36  37
ATOM     37  O   LIG    1        9.821  -5.881  -1.996  0.00  0.00    -0.393 OA
ATOM     38  H   LIG    1        9.031  -5.484  -1.585  0.00  0.00    +0.209 HD
ENDBRANCH  36  37
ENDBRANCH  33  36
ENDBRANCH  24  33
ENDBRANCH  22  31
ENDBRANCH   1  22
TORSDOF 9
