REMARK  Name = pdb/CHEMBL3912891.pdb
REMARK                            x       y       z     vdW  Elec       q    Type
REMARK                         _______ _______ _______ _____ _____    ______ ____
ROOT
ATOM      1  C   LIG    1        6.965  -0.857  -3.455  0.00  0.00    +0.131 C 
ATOM      2  N   LIG    1        7.937  -1.441  -4.179  0.00  0.00    -0.141 NA
ATOM      3  N   LIG    1        9.077  -0.949  -3.663  0.00  0.00    -0.201 N 
ATOM      4  C   LIG    1        8.850   0.187  -2.901  0.00  0.00    +0.185 C 
ATOM      5  C   LIG    1        7.502   0.178  -2.633  0.00  0.00    +0.056 C 
ENDROOT
BRANCH   3   6
ATOM      6  C   LIG    1       10.309  -1.614  -3.855  0.00  0.00    +0.052 A 
ATOM      7  C   LIG    1       11.267  -1.615  -2.829  0.00  0.00    +0.025 A 
ATOM      8  C   LIG    1       12.438  -2.355  -2.983  0.00  0.00    +0.002 A 
ATOM      9  C   LIG    1       12.669  -3.056  -4.167  0.00  0.00    +0.000 A 
ATOM     10  C   LIG    1       11.726  -3.031  -5.196  0.00  0.00    +0.002 A 
ATOM     11  C   LIG    1       10.532  -2.330  -5.034  0.00  0.00    +0.025 A 
ENDBRANCH   3   6
BRANCH   4  12
ATOM     12  N   LIG    1        9.819   1.133  -2.560  0.00  0.00    -0.282 N 
ATOM     13  H   LIG    1       10.661   1.120  -3.127  0.00  0.00    +0.152 HD
ATOM     14  C   LIG    1        9.665   2.107  -1.521  0.00  0.00    +0.247 C 
ATOM     15  O   LIG    1        8.642   2.124  -0.845  0.00  0.00    -0.270 OA
BRANCH  14  16
ATOM     16  C   LIG    1       10.819   3.013  -1.291  0.00  0.00    +0.056 A 
ATOM     17  C   LIG    1       10.651   4.312  -0.812  0.00  0.00    +0.054 A 
ATOM     18 CL   LIG    1        9.117   5.013  -0.452  0.00  0.00    -0.083 Cl
ATOM     19  C   LIG    1       11.765   5.138  -0.667  0.00  0.00    +0.041 A 
ATOM     20  C   LIG    1       13.054   4.695  -1.008  0.00  0.00    +0.052 A 
ATOM     21 CL   LIG    1       14.260   5.936  -1.011  0.00  0.00    -0.083 Cl
ATOM     22  C   LIG    1       13.282   3.366  -1.417  0.00  0.00    +0.022 A 
ATOM     23  C   LIG    1       12.127   2.547  -1.548  0.00  0.00    +0.026 A 
BRANCH  22  24
ATOM     24  C   LIG    1       14.606   2.771  -1.760  0.00  0.00    +0.107 A 
ATOM     25  C   LIG    1       15.824   3.112  -1.167  0.00  0.00    +0.149 A 
ATOM     26  F   LIG    1       15.901   3.952  -0.128  0.00  0.00    -0.203 F 
ATOM     27  C   LIG    1       17.006   2.521  -1.604  0.00  0.00    +0.042 A 
ATOM     28  C   LIG    1       16.954   1.535  -2.576  0.00  0.00    +0.023 A 
ATOM     29  C   LIG    1       15.712   1.186  -3.076  0.00  0.00    +0.111 A 
ATOM     30  N   LIG    1       14.549   1.781  -2.704  0.00  0.00    -0.252 NA
ENDBRANCH  22  24
ENDBRANCH  14  16
ENDBRANCH   4  12
BRANCH   1  32
ATOM     31  N   LIG    1        5.257  -2.441  -3.938  0.00  0.00    -0.246 NA
ATOM     32  C   LIG    1        5.563  -1.248  -3.599  0.00  0.00    +0.233 C 
BRANCH  31  37
ATOM     33  C   LIG    1        3.164  -6.690  -3.330  0.00  0.00    +0.041 C 
ATOM     34  C   LIG    1        4.448  -5.853  -3.254  0.00  0.00    +0.063 C 
ATOM     35  C   LIG    1        4.322  -4.718  -2.224  0.00  0.00    +0.036 C 
ATOM     36  C   LIG    1        3.451  -3.551  -2.702  0.00  0.00    +0.029 C 
ATOM     37  C   LIG    1        3.912  -2.987  -4.053  0.00  0.00    +0.109 C 
ATOM     38  C   LIG    1        3.936  -4.137  -5.077  0.00  0.00    +0.029 C 
ATOM     39  C   LIG    1        4.835  -5.297  -4.635  0.00  0.00    +0.036 C 
BRANCH  34  40
ATOM     40  O   LIG    1        5.487  -6.729  -2.800  0.00  0.00    -0.389 OA
ATOM     41  H   LIG    1        5.630  -7.406  -3.484  0.00  0.00    +0.210 HD
ENDBRANCH  34  40
ENDBRANCH  31  37
BRANCH  32  42
ATOM     42  O   LIG    1        4.687  -0.254  -3.347  0.00  0.00    -0.491 OA
ATOM     43  H   LIG    1        3.792  -0.502  -3.610  0.00  0.00    +0.294 HD
ENDBRANCH  32  42
ENDBRANCH   1  32
TORSDOF 8
