REMARK  Name = pdb/CHEMBL3954486.pdb
REMARK                            x       y       z     vdW  Elec       q    Type
REMARK                         _______ _______ _______ _____ _____    ______ ____
ROOT
ATOM      1  C   LIG    1        3.013  -2.197  -6.810  0.00  0.00    +0.149 A 
ATOM      2  N   LIG    1        3.518  -2.551  -8.002  0.00  0.00    -0.160 NA
ATOM      3  N   LIG    1        2.688  -3.520  -8.469  0.00  0.00    -0.218 N 
ATOM      4  C   LIG    1        1.766  -3.928  -7.496  0.00  0.00    +0.129 A 
ATOM      5  C   LIG    1        1.957  -3.063  -6.443  0.00  0.00    +0.078 A 
ENDROOT
BRANCH   3   6
ATOM      6  C   LIG    1        2.857  -4.006  -9.798  0.00  0.00    +0.067 A 
ATOM      7  C   LIG    1        1.773  -4.485 -10.540  0.00  0.00    +0.028 A 
ATOM      8  C   LIG    1        1.974  -4.977 -11.834  0.00  0.00    +0.002 A 
ATOM      9  C   LIG    1        3.250  -4.974 -12.395  0.00  0.00    +0.000 A 
ATOM     10  C   LIG    1        4.323  -4.456 -11.676  0.00  0.00    +0.002 A 
ATOM     11  C   LIG    1        4.128  -3.958 -10.385  0.00  0.00    +0.028 A 
ENDBRANCH   3   6
BRANCH   4  12
ATOM     12  N   LIG    1        0.873  -5.011  -7.542  0.00  0.00    -0.266 N 
ATOM     13  H   LIG    1        0.854  -5.573  -8.385  0.00  0.00    +0.157 HD
ATOM     14  C   LIG    1        0.027  -5.386  -6.442  0.00  0.00    +0.251 C 
ATOM     15  O   LIG    1        0.091  -4.807  -5.368  0.00  0.00    -0.270 OA
BRANCH  14  16
ATOM     16  C   LIG    1       -0.915  -6.519  -6.596  0.00  0.00    +0.056 A 
ATOM     17  C   LIG    1       -1.578  -6.831  -7.777  0.00  0.00    +0.054 A 
ATOM     18 CL   LIG    1       -1.300  -6.031  -9.273  0.00  0.00    -0.083 Cl
ATOM     19  C   LIG    1       -2.564  -7.815  -7.770  0.00  0.00    +0.041 A 
ATOM     20  C   LIG    1       -2.894  -8.506  -6.593  0.00  0.00    +0.052 A 
ATOM     21 CL   LIG    1       -4.253  -9.572  -6.739  0.00  0.00    -0.083 Cl
ATOM     22  C   LIG    1       -2.197  -8.274  -5.384  0.00  0.00    +0.022 A 
ATOM     23  C   LIG    1       -1.217  -7.255  -5.425  0.00  0.00    +0.026 A 
BRANCH  22  24
ATOM     24  C   LIG    1       -2.426  -9.051  -4.136  0.00  0.00    +0.107 A 
ATOM     25  C   LIG    1       -2.213  -8.559  -2.845  0.00  0.00    +0.149 A 
ATOM     26  F   LIG    1       -1.810  -7.298  -2.627  0.00  0.00    -0.203 F 
ATOM     27  C   LIG    1       -2.415  -9.381  -1.739  0.00  0.00    +0.042 A 
ATOM     28  C   LIG    1       -2.858 -10.682  -1.932  0.00  0.00    +0.023 A 
ATOM     29  C   LIG    1       -3.053 -11.110  -3.231  0.00  0.00    +0.111 A 
ATOM     30  N   LIG    1       -2.815 -10.340  -4.317  0.00  0.00    -0.252 NA
ENDBRANCH  22  24
ENDBRANCH  14  16
ENDBRANCH   4  12
BRANCH   1  32
ATOM     31  N   LIG    1        2.992  -0.855  -4.863  0.00  0.00    -0.246 NA
ATOM     32  C   LIG    1        3.514  -1.075  -6.010  0.00  0.00    +0.236 C 
BRANCH  31  36
ATOM     33  C   LIG    1        3.322   0.800  -1.029  0.00  0.00    +0.115 C 
ATOM     34  C   LIG    1        2.398   1.536  -1.993  0.00  0.00    +0.033 C 
ATOM     35  C   LIG    1        2.121   0.699  -3.240  0.00  0.00    +0.029 C 
ATOM     36  C   LIG    1        3.398   0.187  -3.931  0.00  0.00    +0.109 C 
ATOM     37  C   LIG    1        4.390  -0.431  -2.934  0.00  0.00    +0.029 C 
ATOM     38  C   LIG    1        4.637   0.458  -1.720  0.00  0.00    +0.033 C 
BRANCH  33  39
ATOM     39  O   LIG    1        3.567   1.601   0.119  0.00  0.00    -0.392 OA
ATOM     40  H   LIG    1        4.049   2.399  -0.155  0.00  0.00    +0.210 HD
ENDBRANCH  33  39
ENDBRANCH  31  36
BRANCH  32  41
ATOM     41  O   LIG    1        4.491  -0.340  -6.573  0.00  0.00    -0.491 OA
ATOM     42  H   LIG    1        4.710   0.434  -6.044  0.00  0.00    +0.294 HD
ENDBRANCH  32  41
ENDBRANCH   1  32
TORSDOF 8
