REMARK  Name = pdb/CHEMBL3951249.pdb
REMARK                            x       y       z     vdW  Elec       q    Type
REMARK                         _______ _______ _______ _____ _____    ______ ____
ROOT
ATOM      1  C   LIG    1        2.563  -1.831  -1.758  0.00  0.00    +0.131 A 
ATOM      2  C   LIG    1        2.589  -3.202  -1.848  0.00  0.00    +0.183 A 
ATOM      3  N   LIG    1        3.128  -4.156  -1.031  0.00  0.00    -0.211 NA
ATOM      4  C   LIG    1        3.062  -5.417  -1.404  0.00  0.00    +0.126 A 
ATOM      5  C   LIG    1        2.345  -5.819  -2.675  0.00  0.00    +0.063 A 
ATOM      6  C   LIG    1        1.791  -4.846  -3.410  0.00  0.00    +0.118 A 
ATOM      7  N   LIG    1        1.902  -3.521  -3.016  0.00  0.00    -0.220 N 
ATOM      8  N   LIG    1        1.413  -2.418  -3.638  0.00  0.00    -0.171 NA
ATOM      9  C   LIG    1        1.845  -1.401  -2.884  0.00  0.00    +0.164 A 
ENDROOT
BRANCH   4  10
ATOM     10  N   LIG    1        3.649  -6.376  -0.585  0.00  0.00    -0.308 N 
ATOM     11  C   LIG    1        4.194  -7.644  -1.107  0.00  0.00    +0.108 C 
ATOM     12  C   LIG    1        5.435  -7.939  -0.242  0.00  0.00    +0.029 C 
ATOM     13  C   LIG    1        5.753  -6.612   0.424  0.00  0.00    +0.021 C 
ATOM     14  C   LIG    1        4.377  -6.010   0.636  0.00  0.00    +0.107 C 
BRANCH  11  15
ATOM     15  C   LIG    1        3.184  -8.768  -1.028  0.00  0.00    +0.011 A 
ATOM     16  C   LIG    1        3.277  -9.838  -1.925  0.00  0.00    +0.129 A 
ATOM     17  F   LIG    1        4.246  -9.846  -2.850  0.00  0.00    -0.205 F 
ATOM     18  C   LIG    1        2.379 -10.905  -1.887  0.00  0.00    +0.041 A 
ATOM     19  C   LIG    1        1.368 -10.921  -0.930  0.00  0.00    +0.041 A 
ATOM     20  C   LIG    1        1.271  -9.872  -0.023  0.00  0.00    +0.124 A 
ATOM     21  F   LIG    1        0.305  -9.888   0.903  0.00  0.00    -0.205 F 
ATOM     22  C   LIG    1        2.165  -8.805  -0.062  0.00  0.00    +0.046 A 
ENDBRANCH  11  15
ENDBRANCH   4  10
BRANCH   1  24
ATOM     23  C   LIG    1        3.332  -1.316   0.381  0.00  0.00    +0.203 C 
ATOM     24  N   LIG    1        3.201  -0.973  -0.853  0.00  0.00    -0.211 NA
BRANCH  23  25
ATOM     25  C   LIG    1        4.060  -0.416   1.302  0.00  0.00    +0.141 C 
ATOM     26  C   LIG    1        3.375  -0.007   2.611  0.00  0.00    +0.026 C 
ATOM     27  C   LIG    1        3.502   0.994   1.511  0.00  0.00    +0.026 C 
BRANCH  25  28
ATOM     28  C   LIG    1        5.547  -0.613   1.305  0.00  0.00    +0.404 C 
ATOM     29  F   LIG    1        5.993  -0.959   2.540  0.00  0.00    -0.170 F 
ATOM     30  F   LIG    1        6.196   0.526   0.955  0.00  0.00    -0.170 F 
ATOM     31  F   LIG    1        5.954  -1.585   0.454  0.00  0.00    -0.170 F 
ENDBRANCH  25  28
ENDBRANCH  23  25
BRANCH  23  32
ATOM     32  O   LIG    1        2.883  -2.423   1.009  0.00  0.00    -0.495 OA
ATOM     33  H   LIG    1        2.626  -3.109   0.365  0.00  0.00    +0.293 HD
ENDBRANCH  23  32
ENDBRANCH   1  24
TORSDOF 6
