REMARK  Name = pdb/CHEMBL3678297.pdb
REMARK                            x       y       z     vdW  Elec       q    Type
REMARK                         _______ _______ _______ _____ _____    ______ ____
ROOT
ATOM      1  C   LIG    1        8.265  -1.982  -3.366  0.00  0.00    +0.162 A 
ATOM      2  C   LIG    1        8.354  -3.000  -4.332  0.00  0.00    +0.162 A 
ATOM      3  C   LIG    1        7.267  -3.201  -5.195  0.00  0.00    +0.050 A 
ATOM      4  C   LIG    1        6.119  -2.402  -5.120  0.00  0.00    +0.009 A 
ATOM      5  C   LIG    1        6.003  -1.410  -4.145  0.00  0.00    -0.021 A 
ATOM      6  C   LIG    1        7.088  -1.216  -3.280  0.00  0.00    +0.055 A 
ENDROOT
BRANCH   1   8
ATOM      7  C   LIG    1        9.221  -0.695  -1.598  0.00  0.00    +0.277 C 
ATOM      8  O   LIG    1        9.327  -1.765  -2.527  0.00  0.00    -0.491 OA
ENDBRANCH   1   8
BRANCH   5   9
ATOM      9  C   LIG    1        4.741  -0.571  -3.962  0.00  0.00    +0.119 C 
ATOM     10  C   LIG    1        3.750  -1.243  -2.989  0.00  0.00    +0.036 C 
BRANCH   9  11
ATOM     11  N   LIG    1        4.164  -0.170  -5.229  0.00  0.00    -0.290 N 
ATOM     12  C   LIG    1        3.090  -0.756  -5.870  0.00  0.00    +0.162 A 
ATOM     13  N   LIG    1        2.424  -1.869  -5.514  0.00  0.00    -0.235 NA
ATOM     14  C   LIG    1        1.401  -2.152  -6.355  0.00  0.00    +0.121 A 
ATOM     15  C   LIG    1        1.031  -1.424  -7.490  0.00  0.00    +0.005 A 
ATOM     16  C   LIG    1        1.774  -0.280  -7.805  0.00  0.00    +0.041 A 
ATOM     17  C   LIG    1        2.840   0.055  -6.967  0.00  0.00    +0.110 A 
ATOM     18  N   LIG    1        3.742   1.087  -7.026  0.00  0.00    -0.213 NA
ATOM     19  C   LIG    1        4.534   0.914  -6.007  0.00  0.00    +0.196 A 
BRANCH  15  20
ATOM     20  C   LIG    1       -0.085  -1.836  -8.315  0.00  0.00    +0.021 A 
ATOM     21  C   LIG    1       -0.513  -3.139  -8.472  0.00  0.00    +0.116 A 
ATOM     22  N   LIG    1       -1.572  -3.094  -9.332  0.00  0.00    -0.274 N 
ATOM     23  C   LIG    1       -2.340  -4.225  -9.791  0.00  0.00    +0.172 C 
ATOM     24  N   LIG    1       -1.871  -1.853  -9.748  0.00  0.00    -0.179 NA
ATOM     25  C   LIG    1       -0.963  -1.089  -9.134  0.00  0.00    +0.143 A 
ENDBRANCH  15  20
BRANCH  19  26
ATOM     26  N   LIG    1        5.604   1.690  -5.736  0.00  0.00    -0.329 N 
ATOM     27  H   LIG    1        5.732   2.396  -6.461  0.00  0.00    +0.145 HD
ATOM     28  H   LIG    1        6.483   1.211  -5.582  0.00  0.00    +0.145 HD
ENDBRANCH  19  26
ENDBRANCH   9  11
ENDBRANCH   5   9
BRANCH   2  29
ATOM     29  O   LIG    1        9.407  -3.857  -4.565  0.00  0.00    -0.484 OA
BRANCH  29  30
ATOM     30  C   LIG    1       10.543  -3.747  -3.708  0.00  0.00    +0.264 C 
BRANCH  30  31
ATOM     31  C   LIG    1       11.605  -4.742  -4.109  0.00  0.00    -0.010 A 
ATOM     32  C   LIG    1       12.559  -4.400  -5.076  0.00  0.00    +0.007 A 
ATOM     33  C   LIG    1       13.530  -5.320  -5.467  0.00  0.00    +0.013 A 
ATOM     34  C   LIG    1       13.568  -6.601  -4.896  0.00  0.00    +0.055 A 
ATOM     35  C   LIG    1       12.636  -6.929  -3.901  0.00  0.00    +0.013 A 
ATOM     36  C   LIG    1       11.655  -6.012  -3.520  0.00  0.00    +0.007 A 
BRANCH  34  37
ATOM     37  C   LIG    1       14.573  -7.611  -5.389  0.00  0.00    +0.417 C 
ATOM     38  F   LIG    1       15.861  -7.209  -5.201  0.00  0.00    -0.166 F 
ATOM     39  F   LIG    1       14.450  -7.849  -6.726  0.00  0.00    -0.166 F 
ATOM     40  F   LIG    1       14.469  -8.828  -4.785  0.00  0.00    -0.166 F 
ENDBRANCH  34  37
ENDBRANCH  30  31
ENDBRANCH  29  30
ENDBRANCH   2  29
TORSDOF 9
