REMARK  Name = pdb/CHEMBL3408947.pdb
REMARK                            x       y       z     vdW  Elec       q    Type
REMARK                         _______ _______ _______ _____ _____    ______ ____
ROOT
ATOM      1  C   LIG    1        3.181  -6.935  -1.980  0.00  0.00    -0.041 A 
ATOM      2  C   LIG    1        3.239  -7.577  -0.730  0.00  0.00    +0.031 A 
ATOM      3  C   LIG    1        4.483  -7.993  -0.244  0.00  0.00    +0.067 A 
ATOM      4  N   LIG    1        4.842  -8.594   0.929  0.00  0.00    -0.276 N 
ATOM      5  H   LIG    1        4.240  -8.844   1.705  0.00  0.00    +0.189 HD
ATOM      6  N   LIG    1        6.150  -8.869   1.031  0.00  0.00    -0.173 NA
ATOM      7  C   LIG    1        6.675  -8.405  -0.113  0.00  0.00    +0.093 A 
ATOM      8  C   LIG    1        5.670  -7.828  -0.946  0.00  0.00    +0.027 A 
ATOM      9  C   LIG    1        5.624  -7.190  -2.197  0.00  0.00    +0.012 A 
ATOM     10  C   LIG    1        4.388  -6.730  -2.675  0.00  0.00    +0.005 A 
ENDROOT
BRANCH   1  15
ATOM     11  C   LIG    1        3.659  -8.918  -6.049  0.00  0.00    +0.120 A 
ATOM     12  C   LIG    1        2.856  -8.596  -4.952  0.00  0.00    +0.052 A 
ATOM     13  C   LIG    1        2.181  -7.383  -4.956  0.00  0.00    -0.007 A 
ATOM     14  C   LIG    1        1.359  -6.678  -3.919  0.00  0.00    +0.081 C 
ATOM     15  C   LIG    1        1.859  -6.419  -2.506  0.00  0.00    +0.040 C 
ATOM     16  C   LIG    1        0.704  -7.367  -2.761  0.00  0.00    +0.031 C 
ATOM     17  C   LIG    1        0.786  -5.481  -4.653  0.00  0.00    +0.228 C 
ATOM     18  O   LIG    1       -0.024  -4.705  -4.210  0.00  0.00    -0.274 OA
ATOM     19  N   LIG    1        1.411  -5.450  -5.891  0.00  0.00    -0.284 N 
ATOM     20  H   LIG    1        1.237  -4.724  -6.571  0.00  0.00    +0.155 HD
ATOM     21  C   LIG    1        2.245  -6.558  -6.087  0.00  0.00    +0.038 A 
ATOM     22  C   LIG    1        3.015  -6.852  -7.188  0.00  0.00    +0.027 A 
ATOM     23  C   LIG    1        3.736  -8.049  -7.155  0.00  0.00    +0.047 A 
BRANCH  11  25
ATOM     24  C   LIG    1        4.799 -10.649  -4.916  0.00  0.00    +0.277 C 
ATOM     25  O   LIG    1        4.400 -10.066  -6.154  0.00  0.00    -0.495 OA
ENDBRANCH  11  25
ENDBRANCH   1  15
BRANCH   7  26
ATOM     26  C   LIG    1        8.064  -8.509  -0.453  0.00  0.00    +0.031 C 
ATOM     27  C   LIG    1        8.993  -9.060   0.346  0.00  0.00    +0.010 C 
BRANCH  27  28
ATOM     28  C   LIG    1       10.380  -9.239  -0.071  0.00  0.00    -0.025 A 
ATOM     29  C   LIG    1       10.746 -10.392  -0.771  0.00  0.00    +0.008 A 
ATOM     30  C   LIG    1       12.073 -10.589  -1.164  0.00  0.00    +0.005 A 
ATOM     31  C   LIG    1       13.055  -9.638  -0.857  0.00  0.00    -0.033 A 
ATOM     32  C   LIG    1       12.680  -8.487  -0.142  0.00  0.00    +0.005 A 
ATOM     33  C   LIG    1       11.349  -8.282   0.237  0.00  0.00    +0.008 A 
BRANCH  31  34
ATOM     34  C   LIG    1       14.501  -9.857  -1.263  0.00  0.00    +0.119 C 
BRANCH  34  35
ATOM     35  N   LIG    1       14.734  -9.931  -2.724  0.00  0.00    -0.293 NA
ATOM     36  C   LIG    1       14.360  -8.664  -3.388  0.00  0.00    +0.116 C 
ATOM     37  C   LIG    1       14.677  -8.674  -4.897  0.00  0.00    +0.130 C 
ATOM     38  C   LIG    1       13.731  -9.565  -5.697  0.00  0.00    +0.039 C 
ATOM     39  O   LIG    1       16.058  -8.958  -5.158  0.00  0.00    -0.371 OA
ATOM     40  C   LIG    1       16.601 -10.090  -4.465  0.00  0.00    +0.130 C 
ATOM     41  C   LIG    1       16.378 -11.381  -5.244  0.00  0.00    +0.039 C 
ATOM     42  C   LIG    1       16.176 -10.166  -2.978  0.00  0.00    +0.116 C 
ENDBRANCH  34  35
ENDBRANCH  31  34
ENDBRANCH  27  28
ENDBRANCH   7  26
TORSDOF 6
