REMARK  Name = pdb/CHEMBL3976094.pdb
REMARK                            x       y       z     vdW  Elec       q    Type
REMARK                         _______ _______ _______ _____ _____    ______ ____
ROOT
ATOM      1  C   LIG    1        4.319   0.472   5.063  0.00  0.00    +0.027 A 
ATOM      2  C   LIG    1        5.256   0.414   6.089  0.00  0.00    +0.060 A 
ATOM      3  C   LIG    1        5.993   1.547   6.379  0.00  0.00    +0.157 A 
ATOM      4  N   LIG    1        5.848   2.712   5.707  0.00  0.00    -0.236 NA
ATOM      5  C   LIG    1        4.984   2.728   4.669  0.00  0.00    +0.114 A 
ATOM      6  C   LIG    1        4.204   1.644   4.308  0.00  0.00    +0.031 A 
ENDROOT
BRANCH   1   7
ATOM      7  C   LIG    1        3.497  -0.715   4.685  0.00  0.00    +0.195 C 
ATOM      8  O   LIG    1        3.149  -0.824   3.517  0.00  0.00    -0.287 OA
BRANCH   7  16
ATOM      9  N   LIG    1        2.501  -2.700   7.617  0.00  0.00    -0.343 N 
ATOM     10  C   LIG    1        2.581  -3.712   6.678  0.00  0.00    +0.053 A 
ATOM     11  C   LIG    1        2.370  -5.091   6.773  0.00  0.00    +0.046 A 
ATOM     12  C   LIG    1        2.515  -5.803   5.592  0.00  0.00    +0.113 A 
ATOM     13  N   LIG    1        2.818  -5.261   4.396  0.00  0.00    -0.263 NA
ATOM     14  C   LIG    1        3.015  -3.923   4.317  0.00  0.00    +0.121 A 
ATOM     15  C   LIG    1        2.925  -3.113   5.457  0.00  0.00    +0.029 A 
ATOM     16  C   LIG    1        3.137  -1.716   5.699  0.00  0.00    +0.049 A 
ATOM     17  C   LIG    1        2.905  -1.515   7.046  0.00  0.00    +0.099 A 
BRANCH   9  19
ATOM     18  C   LIG    1        3.148  -3.165   9.963  0.00  0.00    +0.030 C 
ATOM     19  C   LIG    1        2.010  -2.859   8.991  0.00  0.00    +0.081 C 
ATOM     20  C   LIG    1        1.188  -1.657   9.472  0.00  0.00    +0.030 C 
ENDBRANCH   9  19
ENDBRANCH   7  16
ENDBRANCH   1   7
BRANCH   3  21
ATOM     21  N   LIG    1        6.964   1.494   7.379  0.00  0.00    -0.197 NA
ATOM     22  C   LIG    1        7.302   2.545   8.052  0.00  0.00    +0.193 C 
BRANCH  22  23
ATOM     23  O   LIG    1        6.750   3.765   7.892  0.00  0.00    -0.495 OA
ATOM     24  H   LIG    1        6.178   3.746   7.098  0.00  0.00    +0.293 HD
ENDBRANCH  22  23
BRANCH  22  25
ATOM     25  C   LIG    1        8.374   2.521   9.108  0.00  0.00    +0.130 C 
BRANCH  25  26
ATOM     26  C   LIG    1        9.744   2.841   8.556  0.00  0.00    -0.036 A 
ATOM     27  C   LIG    1       10.195   4.166   8.497  0.00  0.00    +0.043 A 
ATOM     28  C   LIG    1       11.454   4.456   7.974  0.00  0.00    +0.135 A 
ATOM     29  F   LIG    1       11.857   5.734   7.938  0.00  0.00    -0.205 F 
ATOM     30  C   LIG    1       12.290   3.452   7.495  0.00  0.00    +0.090 A 
ATOM     31  C   LIG    1       11.839   2.125   7.547  0.00  0.00    +0.015 A 
ATOM     32  C   LIG    1       10.576   1.824   8.069  0.00  0.00    +0.005 A 
BRANCH  30  33
ATOM     33  C   LIG    1       13.633   3.819   6.941  0.00  0.00    +0.420 C 
ATOM     34  F   LIG    1       14.432   4.440   7.852  0.00  0.00    -0.166 F 
ATOM     35  F   LIG    1       13.558   4.654   5.868  0.00  0.00    -0.166 F 
ATOM     36  F   LIG    1       14.347   2.738   6.511  0.00  0.00    -0.166 F 
ENDBRANCH  30  33
ENDBRANCH  25  26
ENDBRANCH  22  25
ENDBRANCH   3  21
TORSDOF 8
