REMARK  Name = pdb/CHEMBL3671468.pdb
REMARK                            x       y       z     vdW  Elec       q    Type
REMARK                         _______ _______ _______ _____ _____    ______ ____
ROOT
ATOM      1  C   LIG    1        0.816  -6.116   2.998  0.00  0.00    +0.052 A 
ATOM      2  C   LIG    1        0.905  -4.879   3.653  0.00  0.00    +0.038 A 
ATOM      3  C   LIG    1        0.886  -4.822   5.056  0.00  0.00    +0.042 A 
ATOM      4  C   LIG    1        0.735  -6.015   5.747  0.00  0.00    +0.122 A 
ATOM      5  N   LIG    1        0.536  -7.210   5.149  0.00  0.00    -0.261 NA
ATOM      6  C   LIG    1        0.593  -7.238   3.793  0.00  0.00    +0.134 A 
ENDROOT
BRANCH   1   8
ATOM      7  C   LIG    1        1.319  -7.279   0.841  0.00  0.00    +0.222 C 
ATOM      8  N   LIG    1        0.986  -6.151   1.591  0.00  0.00    -0.284 N 
ATOM      9  H   LIG    1        1.058  -5.253   1.128  0.00  0.00    +0.155 HD
ATOM     10  O   LIG    1        1.520  -8.397   1.309  0.00  0.00    -0.275 OA
BRANCH   7  11
ATOM     11  C   LIG    1        1.513  -6.973  -0.645  0.00  0.00    +0.131 C 
BRANCH  11  14
ATOM     12  C   LIG    1        1.705 -10.060  -2.893  0.00  0.00    +0.088 A 
ATOM     13  C   LIG    1        2.084  -9.038  -2.018  0.00  0.00    +0.031 A 
ATOM     14  C   LIG    1        1.134  -8.103  -1.581  0.00  0.00    -0.037 A 
ATOM     15  C   LIG    1       -0.185  -8.216  -2.045  0.00  0.00    +0.004 A 
ATOM     16  C   LIG    1       -0.551  -9.236  -2.929  0.00  0.00    +0.002 A 
ATOM     17  C   LIG    1        0.394 -10.168  -3.361  0.00  0.00    +0.027 A 
BRANCH  12  19
ATOM     18  C   LIG    1        3.476 -12.033  -1.986  0.00  0.00    +0.200 C 
ATOM     19  S   LIG    1        2.925 -11.228  -3.465  0.00  0.00    -0.006 S 
ATOM     20  O   LIG    1        2.259 -12.218  -4.290  0.00  0.00    -0.170 OA
ATOM     21  O   LIG    1        4.036 -10.438  -3.991  0.00  0.00    -0.170 OA
ENDBRANCH  12  19
ENDBRANCH  11  14
ENDBRANCH   7  11
ENDBRANCH   1   8
BRANCH   3  22
ATOM     22  C   LIG    1        1.121  -3.539   5.769  0.00  0.00    +0.197 C 
ATOM     23  O   LIG    1        1.835  -2.699   5.226  0.00  0.00    -0.287 OA
BRANCH  22  24
ATOM     24  C   LIG    1        0.537  -3.311   7.094  0.00  0.00    +0.051 A 
ATOM     25  C   LIG    1       -0.688  -3.805   7.653  0.00  0.00    +0.048 A 
ATOM     26  C   LIG    1       -1.750  -4.602   7.231  0.00  0.00    +0.126 A 
ATOM     27  N   LIG    1       -2.708  -4.966   8.109  0.00  0.00    -0.222 NA
ATOM     28  C   LIG    1       -2.658  -4.486   9.357  0.00  0.00    +0.214 A 
ATOM     29  N   LIG    1       -1.733  -3.660   9.847  0.00  0.00    -0.197 NA
ATOM     30  C   LIG    1       -0.774  -3.345   8.960  0.00  0.00    +0.147 A 
ATOM     31  N   LIG    1        0.288  -2.506   9.171  0.00  0.00    -0.325 N 
ATOM     32  C   LIG    1        1.118  -2.519   8.081  0.00  0.00    +0.100 A 
BRANCH  31  33
ATOM     33  C   LIG    1        0.481  -1.725  10.318  0.00  0.00    +0.048 C 
ATOM     34  C   LIG    1       -0.554  -1.379  11.448  0.00  0.00    +0.032 C 
ATOM     35  C   LIG    1        0.904  -0.937  11.974  0.00  0.00    -0.004 C 
ATOM     36  C   LIG    1        1.455  -0.512  10.518  0.00  0.00    +0.032 C 
ATOM     37  C   LIG    1        1.304  -2.378  11.490  0.00  0.00    +0.032 C 
ENDBRANCH  31  33
BRANCH  28  38
ATOM     38  N   LIG    1       -3.626  -4.940  10.230  0.00  0.00    -0.327 N 
ATOM     39  H   LIG    1       -3.941  -5.852   9.925  0.00  0.00    +0.145 HD
ATOM     40  H   LIG    1       -3.290  -4.864  11.179  0.00  0.00    +0.145 HD
ENDBRANCH  28  38
ENDBRANCH  22  24
ENDBRANCH   3  22
TORSDOF 8
