REMARK  Name = pdb/CHEMBL3676036.pdb
REMARK                            x       y       z     vdW  Elec       q    Type
REMARK                         _______ _______ _______ _____ _____    ______ ____
ROOT
ATOM      1  C   LIG    1        7.109  -2.364  -0.936  0.00  0.00    +0.100 A 
ATOM      2  C   LIG    1        8.067  -2.169  -1.922  0.00  0.00    +0.170 A 
ATOM      3  N   LIG    1        7.979  -1.784  -3.238  0.00  0.00    -0.212 NA
ATOM      4  C   LIG    1        9.096  -1.677  -3.932  0.00  0.00    +0.126 A 
ATOM      5  C   LIG    1       10.445  -1.968  -3.315  0.00  0.00    +0.063 A 
ATOM      6  C   LIG    1       10.469  -2.351  -2.036  0.00  0.00    +0.118 A 
ATOM      7  N   LIG    1        9.292  -2.469  -1.323  0.00  0.00    -0.221 N 
ATOM      8  N   LIG    1        9.157  -2.852  -0.034  0.00  0.00    -0.173 NA
ATOM      9  C   LIG    1        7.844  -2.804   0.184  0.00  0.00    +0.150 A 
ENDROOT
BRANCH   4  10
ATOM     10  N   LIG    1        9.041  -1.290  -5.267  0.00  0.00    -0.308 N 
ATOM     11  C   LIG    1       10.118  -0.506  -5.910  0.00  0.00    +0.108 C 
ATOM     12  C   LIG    1        9.335   0.562  -6.690  0.00  0.00    +0.029 C 
ATOM     13  C   LIG    1        8.110  -0.199  -7.162  0.00  0.00    +0.021 C 
ATOM     14  C   LIG    1        7.754  -1.017  -5.926  0.00  0.00    +0.107 C 
BRANCH  11  15
ATOM     15  C   LIG    1       11.034  -1.357  -6.776  0.00  0.00    +0.011 A 
ATOM     16  C   LIG    1       12.095  -0.743  -7.459  0.00  0.00    +0.129 A 
ATOM     17  F   LIG    1       12.301   0.574  -7.318  0.00  0.00    -0.205 F 
ATOM     18  C   LIG    1       12.965  -1.464  -8.279  0.00  0.00    +0.041 A 
ATOM     19  C   LIG    1       12.800  -2.840  -8.414  0.00  0.00    +0.041 A 
ATOM     20  C   LIG    1       11.782  -3.472  -7.711  0.00  0.00    +0.124 A 
ATOM     21  F   LIG    1       11.641  -4.800  -7.812  0.00  0.00    -0.205 F 
ATOM     22  C   LIG    1       10.906  -2.750  -6.900  0.00  0.00    +0.046 A 
ENDBRANCH  11  15
ENDBRANCH   4  10
BRANCH   1  25
ATOM     23  N   LIG    1        5.262  -1.208  -1.892  0.00  0.00    -0.309 N 
ATOM     24  H   LIG    1        5.973  -0.667  -2.375  0.00  0.00    +0.149 HD
ATOM     25  C   LIG    1        5.679  -2.187  -1.023  0.00  0.00    +0.249 C 
ATOM     26  O   LIG    1        4.898  -2.841  -0.326  0.00  0.00    -0.270 OA
BRANCH  23  27
ATOM     27  C   LIG    1        3.855  -0.912  -2.106  0.00  0.00    +0.135 C 
BRANCH  27  29
ATOM     28  C   LIG    1        1.777  -1.456  -3.434  0.00  0.00    +0.039 C 
ATOM     29  C   LIG    1        3.252  -1.772  -3.228  0.00  0.00    +0.128 C 
BRANCH  29  30
ATOM     30  O   LIG    1        3.934  -1.509  -4.460  0.00  0.00    -0.391 OA
ATOM     31  H   LIG    1        4.863  -1.762  -4.309  0.00  0.00    +0.210 HD
ENDBRANCH  29  30
ENDBRANCH  27  29
ENDBRANCH  23  27
ENDBRANCH   1  25
TORSDOF 6
