REMARK  Name = pdb/CHEMBL3671421.pdb
REMARK                            x       y       z     vdW  Elec       q    Type
REMARK                         _______ _______ _______ _____ _____    ______ ____
ROOT
ATOM      1  C   LIG    1        5.192  -5.710   0.874  0.00  0.00    +0.197 C 
ATOM      2  O   LIG    1        5.358  -6.589   1.735  0.00  0.00    -0.287 OA
ENDROOT
BRANCH   1  10
ATOM      3  N   LIG    1        5.510  -2.038   0.978  0.00  0.00    -0.323 N 
ATOM      4  C   LIG    1        6.494  -2.377   1.879  0.00  0.00    +0.147 A 
ATOM      5  N   LIG    1        7.299  -1.516   2.519  0.00  0.00    -0.197 NA
ATOM      6  C   LIG    1        8.127  -2.083   3.390  0.00  0.00    +0.214 A 
ATOM      7  N   LIG    1        8.231  -3.394   3.634  0.00  0.00    -0.222 NA
ATOM      8  C   LIG    1        7.412  -4.250   2.968  0.00  0.00    +0.126 A 
ATOM      9  C   LIG    1        6.500  -3.758   2.033  0.00  0.00    +0.048 A 
ATOM     10  C   LIG    1        5.539  -4.308   1.130  0.00  0.00    +0.051 A 
ATOM     11  C   LIG    1        4.939  -3.209   0.525  0.00  0.00    +0.100 A 
BRANCH   3  12
ATOM     12  C   LIG    1        5.073  -0.681   0.560  0.00  0.00    +0.065 C 
ATOM     13  C   LIG    1        5.907   0.457   1.197  0.00  0.00    +0.036 C 
ATOM     14  C   LIG    1        5.212  -0.531  -0.972  0.00  0.00    +0.036 C 
BRANCH  12  15
ATOM     15  C   LIG    1        3.587  -0.449   0.971  0.00  0.00    +0.187 C 
BRANCH  15  17
ATOM     16  C   LIG    1        1.357  -1.201   0.624  0.00  0.00    +0.194 C 
ATOM     17  O   LIG    1        2.719  -1.337   0.261  0.00  0.00    -0.381 OA
ENDBRANCH  15  17
ENDBRANCH  12  15
ENDBRANCH   3  12
BRANCH   6  18
ATOM     18  N   LIG    1        8.969  -1.230   4.078  0.00  0.00    -0.327 N 
ATOM     19  H   LIG    1        9.084  -0.371   3.558  0.00  0.00    +0.145 HD
ATOM     20  H   LIG    1        9.806  -1.721   4.356  0.00  0.00    +0.145 HD
ENDBRANCH   6  18
ENDBRANCH   1  10
BRANCH   1  21
ATOM     21  C   LIG    1        4.637  -6.103  -0.454  0.00  0.00    +0.042 A 
ATOM     22  C   LIG    1        3.742  -7.181  -0.599  0.00  0.00    +0.038 A 
ATOM     23  C   LIG    1        3.235  -7.524  -1.864  0.00  0.00    +0.052 A 
ATOM     24  C   LIG    1        3.666  -6.750  -2.942  0.00  0.00    +0.134 A 
ATOM     25  N   LIG    1        4.551  -5.724  -2.845  0.00  0.00    -0.261 NA
ATOM     26  C   LIG    1        5.024  -5.437  -1.613  0.00  0.00    +0.122 A 
BRANCH  23  27
ATOM     27  N   LIG    1        2.331  -8.616  -1.972  0.00  0.00    -0.284 N 
ATOM     28  H   LIG    1        2.094  -9.096  -1.110  0.00  0.00    +0.155 HD
ATOM     29  C   LIG    1        1.710  -9.068  -3.132  0.00  0.00    +0.223 C 
ATOM     30  O   LIG    1        1.859  -8.582  -4.253  0.00  0.00    -0.275 OA
BRANCH  29  31
ATOM     31  C   LIG    1        0.793 -10.266  -2.941  0.00  0.00    +0.151 C 
BRANCH  31  32
ATOM     32  C   LIG    1       -0.637  -9.858  -2.700  0.00  0.00    +0.050 A 
ATOM     33  N   LIG    1       -1.016  -9.703  -1.406  0.00  0.00    -0.258 NA
ATOM     34  C   LIG    1       -2.292  -9.294  -1.178  0.00  0.00    +0.131 A 
ATOM     35  C   LIG    1       -3.209  -9.019  -2.180  0.00  0.00    +0.059 A 
ATOM     36 CL   LIG    1       -4.784  -8.450  -1.804  0.00  0.00    -0.082 Cl
ATOM     37  C   LIG    1       -2.815  -9.201  -3.497  0.00  0.00    +0.023 A 
ATOM     38  C   LIG    1       -1.514  -9.636  -3.765  0.00  0.00    +0.025 A 
ENDBRANCH  31  32
ENDBRANCH  29  31
ENDBRANCH  23  27
ENDBRANCH   1  21
TORSDOF 9
