REMARK  Name = pdb/CHEMBL3955042.pdb
REMARK                            x       y       z     vdW  Elec       q    Type
REMARK                         _______ _______ _______ _____ _____    ______ ____
ROOT
ATOM      1  C   LIG    1        2.958  -1.447  -1.565  0.00  0.00    +0.149 A 
ATOM      2  N   LIG    1        3.234  -2.327  -2.539  0.00  0.00    -0.160 NA
ATOM      3  N   LIG    1        3.861  -1.609  -3.505  0.00  0.00    -0.218 N 
ATOM      4  C   LIG    1        4.156  -0.315  -3.063  0.00  0.00    +0.129 A 
ATOM      5  C   LIG    1        3.496  -0.178  -1.865  0.00  0.00    +0.078 A 
ENDROOT
BRANCH   3   6
ATOM      6  C   LIG    1        4.188  -2.241  -4.739  0.00  0.00    +0.071 A 
ATOM      7  C   LIG    1        4.310  -1.523  -5.933  0.00  0.00    +0.073 A 
ATOM      8  C   LIG    1        4.625  -2.199  -7.114  0.00  0.00    +0.119 A 
ATOM      9  C   LIG    1        4.814  -3.578  -7.133  0.00  0.00    +0.045 A 
ATOM     10  C   LIG    1        4.674  -4.297  -5.949  0.00  0.00    +0.006 A 
ATOM     11  C   LIG    1        4.351  -3.637  -4.761  0.00  0.00    +0.028 A 
BRANCH   8  12
ATOM     12  O   LIG    1        4.728  -1.459  -8.256  0.00  0.00    -0.507 OA
ATOM     13  H   LIG    1        4.888  -2.058  -9.006  0.00  0.00    +0.292 HD
ENDBRANCH   8  12
ENDBRANCH   3   6
BRANCH   4  14
ATOM     14  N   LIG    1        5.007   0.622  -3.652  0.00  0.00    -0.266 N 
ATOM     15  H   LIG    1        5.444   0.364  -4.528  0.00  0.00    +0.157 HD
ATOM     16  C   LIG    1        5.383   1.867  -3.039  0.00  0.00    +0.251 C 
ATOM     17  O   LIG    1        5.009   2.145  -1.914  0.00  0.00    -0.270 OA
BRANCH  16  18
ATOM     18  C   LIG    1        6.230   2.821  -3.807  0.00  0.00    +0.056 A 
ATOM     19  C   LIG    1        6.722   2.601  -5.093  0.00  0.00    +0.053 A 
ATOM     20 CL   LIG    1        6.627   1.104  -5.938  0.00  0.00    -0.083 Cl
ATOM     21  C   LIG    1        7.401   3.618  -5.756  0.00  0.00    +0.021 A 
ATOM     22  C   LIG    1        7.687   4.816  -5.103  0.00  0.00    +0.011 A 
ATOM     23  C   LIG    1        7.322   5.040  -3.764  0.00  0.00    +0.004 A 
ATOM     24  C   LIG    1        6.540   4.040  -3.159  0.00  0.00    +0.024 A 
BRANCH  23  25
ATOM     25  C   LIG    1        7.815   6.248  -3.050  0.00  0.00    +0.106 A 
ATOM     26  C   LIG    1        7.652   6.494  -1.684  0.00  0.00    +0.149 A 
ATOM     27  F   LIG    1        6.964   5.671  -0.881  0.00  0.00    -0.203 F 
ATOM     28  C   LIG    1        8.246   7.608  -1.103  0.00  0.00    +0.042 A 
ATOM     29  C   LIG    1        8.998   8.468  -1.891  0.00  0.00    +0.023 A 
ATOM     30  C   LIG    1        9.120   8.175  -3.236  0.00  0.00    +0.111 A 
ATOM     31  N   LIG    1        8.549   7.100  -3.823  0.00  0.00    -0.252 NA
ENDBRANCH  23  25
ENDBRANCH  16  18
ENDBRANCH   4  14
BRANCH   1  32
ATOM     32  C   LIG    1        2.248  -1.797  -0.340  0.00  0.00    +0.236 C 
ATOM     33  N   LIG    1        1.779  -0.859   0.416  0.00  0.00    -0.246 NA
BRANCH  33  34
ATOM     34  C   LIG    1        0.965  -1.166   1.546  0.00  0.00    +0.109 C 
ATOM     35  C   LIG    1        0.243   0.004   2.161  0.00  0.00    +0.029 C 
ATOM     36  C   LIG    1        1.417  -0.602   2.864  0.00  0.00    +0.029 C 
ENDBRANCH  33  34
BRANCH  32  37
ATOM     37  O   LIG    1        2.200  -3.111  -0.043  0.00  0.00    -0.491 OA
ATOM     38  H   LIG    1        1.953  -3.240   0.881  0.00  0.00    +0.294 HD
ENDBRANCH  32  37
ENDBRANCH   1  32
TORSDOF 8
