REMARK  Name = pdb/CHEMBL3925856.pdb
REMARK                            x       y       z     vdW  Elec       q    Type
REMARK                         _______ _______ _______ _____ _____    ______ ____
ROOT
ATOM      1  C   LIG    1       -4.181  -3.187   0.727  0.00  0.00    +0.107 C 
ATOM      2  C   LIG    1       -5.548  -3.421   0.528  0.00  0.00    +0.208 C 
ATOM      3  N   LIG    1       -6.367  -4.532   0.707  0.00  0.00    -0.175 NA
ATOM      4  C   LIG    1       -7.428  -4.650  -0.080  0.00  0.00    +0.150 C 
ATOM      5  C   LIG    1       -8.003  -3.388  -0.761  0.00  0.00    +0.033 C 
ATOM      6  C   LIG    1       -7.205  -2.315  -0.856  0.00  0.00    +0.095 C 
ATOM      7  N   LIG    1       -5.962  -2.326  -0.250  0.00  0.00    -0.209 N 
ATOM      8  N   LIG    1       -4.996  -1.384  -0.399  0.00  0.00    -0.153 NA
ATOM      9  C   LIG    1       -3.973  -1.869   0.300  0.00  0.00    +0.143 C 
ENDROOT
BRANCH   4  10
ATOM     10  N   LIG    1       -7.963  -5.937  -0.379  0.00  0.00    -0.270 NA
ATOM     11  C   LIG    1       -8.749  -6.231  -1.594  0.00  0.00    +0.092 C 
ATOM     12  C   LIG    1       -7.937  -7.359  -2.264  0.00  0.00    +0.025 C 
ATOM     13  C   LIG    1       -7.443  -8.209  -1.111  0.00  0.00    +0.017 C 
ATOM     14  C   LIG    1       -7.392  -7.240   0.092  0.00  0.00    +0.087 C 
BRANCH  11  15
ATOM     15  C   LIG    1      -10.175  -6.681  -1.294  0.00  0.00    +0.008 A 
ATOM     16  C   LIG    1      -10.681  -6.776   0.012  0.00  0.00    +0.128 A 
ATOM     17  F   LIG    1       -9.952  -6.426   1.078  0.00  0.00    -0.205 F 
ATOM     18  C   LIG    1      -11.955  -7.267   0.280  0.00  0.00    +0.041 A 
ATOM     19  C   LIG    1      -12.777  -7.669  -0.764  0.00  0.00    +0.041 A 
ATOM     20  C   LIG    1      -12.312  -7.564  -2.068  0.00  0.00    +0.124 A 
ATOM     21  F   LIG    1      -13.096  -7.967  -3.076  0.00  0.00    -0.205 F 
ATOM     22  C   LIG    1      -11.035  -7.067  -2.344  0.00  0.00    +0.046 A 
ENDBRANCH  11  15
ENDBRANCH   4  10
BRANCH   1  24
ATOM     23  C   LIG    1       -1.982  -4.127   0.836  0.00  0.00    +0.205 C 
ATOM     24  N   LIG    1       -3.227  -4.101   1.212  0.00  0.00    -0.216 NA
BRANCH  23  25
ATOM     25  C   LIG    1       -1.166  -3.243  -0.101  0.00  0.00    +0.143 C 
ATOM     26  C   LIG    1       -0.957  -3.714  -1.580  0.00  0.00    +0.029 C 
ATOM     27  C   LIG    1       -1.824  -2.559  -1.301  0.00  0.00    +0.029 C 
BRANCH  25  28
ATOM     28  C   LIG    1        0.123  -2.626   0.485  0.00  0.00    +0.322 C 
ATOM     29  O   LIG    1        1.199  -2.917   0.077  0.00  0.00    -0.250 OA
BRANCH  28  31
ATOM     30  C   LIG    1        1.014  -1.100   2.101  0.00  0.00    +0.280 C 
ATOM     31  O   LIG    1       -0.144  -1.740   1.511  0.00  0.00    -0.467 OA
ENDBRANCH  28  31
ENDBRANCH  25  28
ENDBRANCH  23  25
BRANCH  23  32
ATOM     32  O   LIG    1       -1.223  -5.124   1.380  0.00  0.00    -0.495 OA
ATOM     33  H   LIG    1       -0.341  -5.219   0.985  0.00  0.00    +0.293 HD
ENDBRANCH  23  32
ENDBRANCH   1  24
TORSDOF 7
