REMARK  Name = pdb/CHEMBL3666246.pdb
REMARK                            x       y       z     vdW  Elec       q    Type
REMARK                         _______ _______ _______ _____ _____    ______ ____
ROOT
ATOM      1  C   LIG    1        2.946  -3.559  -4.093  0.00  0.00    +0.042 A 
ATOM      2  C   LIG    1        3.508  -4.715  -4.645  0.00  0.00    +0.038 A 
ATOM      3  C   LIG    1        3.446  -4.933  -6.024  0.00  0.00    +0.052 A 
ATOM      4  C   LIG    1        2.837  -3.960  -6.809  0.00  0.00    +0.134 A 
ATOM      5  N   LIG    1        2.258  -2.845  -6.301  0.00  0.00    -0.261 NA
ATOM      6  C   LIG    1        2.297  -2.684  -4.956  0.00  0.00    +0.122 A 
ENDROOT
BRANCH   3   7
ATOM      7  N   LIG    1        3.998  -6.125  -6.522  0.00  0.00    -0.284 N 
ATOM      8  H   LIG    1        4.550  -6.691  -5.875  0.00  0.00    +0.155 HD
ATOM      9  C   LIG    1        3.722  -6.710  -7.742  0.00  0.00    +0.223 C 
ATOM     10  O   LIG    1        2.981  -6.229  -8.598  0.00  0.00    -0.275 OA
BRANCH   9  11
ATOM     11  C   LIG    1        4.438  -8.024  -8.012  0.00  0.00    +0.151 C 
BRANCH  11  12
ATOM     12  C   LIG    1        4.708  -8.868  -6.789  0.00  0.00    +0.050 A 
ATOM     13  N   LIG    1        5.456  -8.301  -5.801  0.00  0.00    -0.258 NA
ATOM     14  C   LIG    1        5.723  -9.059  -4.707  0.00  0.00    +0.131 A 
ATOM     15  C   LIG    1        5.271 -10.356  -4.542  0.00  0.00    +0.059 A 
ATOM     16 CL   LIG    1        5.646 -11.244  -3.125  0.00  0.00    -0.082 Cl
ATOM     17  C   LIG    1        4.503 -10.918  -5.554  0.00  0.00    +0.023 A 
ATOM     18  C   LIG    1        4.217 -10.168  -6.696  0.00  0.00    +0.025 A 
ENDBRANCH  11  12
ENDBRANCH   9  11
ENDBRANCH   3   7
BRANCH   1  19
ATOM     19  C   LIG    1        2.987  -3.266  -2.634  0.00  0.00    +0.197 C 
ATOM     20  O   LIG    1        2.029  -2.693  -2.125  0.00  0.00    -0.287 OA
BRANCH  19  28
ATOM     21  N   LIG    1        6.325  -3.987  -1.291  0.00  0.00    -0.329 N 
ATOM     22  C   LIG    1        5.608  -4.046  -0.128  0.00  0.00    +0.147 A 
ATOM     23  N   LIG    1        6.122  -4.257   1.093  0.00  0.00    -0.197 NA
ATOM     24  C   LIG    1        5.198  -4.302   2.053  0.00  0.00    +0.214 A 
ATOM     25  N   LIG    1        3.876  -4.145   1.893  0.00  0.00    -0.222 NA
ATOM     26  C   LIG    1        3.391  -3.919   0.645  0.00  0.00    +0.126 A 
ATOM     27  C   LIG    1        4.267  -3.851  -0.439  0.00  0.00    +0.048 A 
ATOM     28  C   LIG    1        4.174  -3.624  -1.853  0.00  0.00    +0.051 A 
ATOM     29  C   LIG    1        5.467  -3.736  -2.342  0.00  0.00    +0.100 A 
BRANCH  21  31
ATOM     30  C   LIG    1        8.562  -3.093  -0.682  0.00  0.00    +0.030 C 
ATOM     31  C   LIG    1        7.766  -4.145  -1.454  0.00  0.00    +0.083 C 
ATOM     32  C   LIG    1        8.242  -5.564  -1.145  0.00  0.00    +0.030 C 
ENDBRANCH  21  31
BRANCH  24  33
ATOM     33  N   LIG    1        5.659  -4.486   3.346  0.00  0.00    -0.327 N 
ATOM     34  H   LIG    1        6.609  -4.161   3.411  0.00  0.00    +0.145 HD
ATOM     35  H   LIG    1        4.996  -4.100   4.004  0.00  0.00    +0.145 HD
ENDBRANCH  24  33
ENDBRANCH  19  28
ENDBRANCH   1  19
TORSDOF 7
