REMARK  Name = pdb/CHEMBL3910954.pdb
REMARK                            x       y       z     vdW  Elec       q    Type
REMARK                         _______ _______ _______ _____ _____    ______ ____
ROOT
ATOM      1  C   LIG    1        3.105  -0.723   3.072  0.00  0.00    +0.285 C 
ATOM      2  N   LIG    1        2.120  -0.959   2.263  0.00  0.00    -0.196 NA
ENDROOT
BRANCH   2   3
ATOM      3  C   LIG    1        1.584  -2.237   2.027  0.00  0.00    +0.105 A 
ATOM      4  C   LIG    1        0.356  -2.357   1.394  0.00  0.00    +0.145 A 
ATOM      5  N   LIG    1       -0.226  -3.527   1.040  0.00  0.00    -0.201 NA
ATOM      6  C   LIG    1        0.487  -4.648   1.268  0.00  0.00    +0.323 A 
ATOM      7  N   LIG    1        1.663  -4.679   1.907  0.00  0.00    -0.201 NA
ATOM      8  C   LIG    1        2.171  -3.474   2.265  0.00  0.00    +0.145 A 
BRANCH   6   9
ATOM      9  O   LIG    1        0.040  -5.865   0.756  0.00  0.00    -0.424 OA
BRANCH   9  10
ATOM     10  C   LIG    1       -0.585  -5.850  -0.474  0.00  0.00    +0.132 A 
ATOM     11  C   LIG    1       -1.448  -6.901  -0.786  0.00  0.00    +0.047 A 
ATOM     12  C   LIG    1       -2.089  -6.934  -2.034  0.00  0.00    +0.013 A 
ATOM     13  C   LIG    1       -1.894  -5.915  -2.981  0.00  0.00    +0.001 A 
ATOM     14  C   LIG    1       -1.064  -4.850  -2.634  0.00  0.00    +0.013 A 
ATOM     15  C   LIG    1       -0.372  -4.852  -1.427  0.00  0.00    +0.047 A 
BRANCH  13  16
ATOM     16  C   LIG    1       -2.565  -5.975  -4.281  0.00  0.00    +0.073 A 
ATOM     17  N   LIG    1       -2.095  -5.491  -5.495  0.00  0.00    -0.297 N 
ATOM     18  C   LIG    1       -0.929  -4.854  -5.903  0.00  0.00    +0.113 A 
ATOM     19  C   LIG    1       -0.807  -4.489  -7.191  0.00  0.00    +0.129 A 
ATOM     20  N   LIG    1       -1.765  -4.722  -8.161  0.00  0.00    -0.258 NA
ATOM     21  C   LIG    1       -2.850  -5.349  -7.790  0.00  0.00    +0.157 A 
ATOM     22  C   LIG    1       -3.062  -5.766  -6.432  0.00  0.00    +0.156 A 
ATOM     23  N   LIG    1       -4.088  -6.418  -5.943  0.00  0.00    -0.234 NA
ATOM     24  C   LIG    1       -3.784  -6.556  -4.614  0.00  0.00    +0.140 A 
ENDBRANCH  13  16
ENDBRANCH   9  10
ENDBRANCH   6   9
ENDBRANCH   2   3
BRANCH   1  25
ATOM     25  O   LIG    1        3.663  -1.698   3.800  0.00  0.00    -0.481 OA
ATOM     26  H   LIG    1        4.270  -1.346   4.483  0.00  0.00    +0.295 HD
ENDBRANCH   1  25
BRANCH   1  27
ATOM     27  N   LIG    1        3.715   0.481   3.308  0.00  0.00    -0.269 N 
ATOM     28  H   LIG    1        4.656   0.498   3.681  0.00  0.00    +0.157 HD
BRANCH  27  29
ATOM     29  C   LIG    1        3.108   1.756   3.222  0.00  0.00    +0.043 A 
ATOM     30  C   LIG    1        3.825   2.925   2.838  0.00  0.00    +0.005 A 
ATOM     31  C   LIG    1        3.089   4.136   2.808  0.00  0.00    +0.011 A 
ATOM     32  C   LIG    1        1.725   4.205   3.114  0.00  0.00    +0.013 A 
ATOM     33  C   LIG    1        1.019   3.053   3.446  0.00  0.00    +0.057 A 
ATOM     34  C   LIG    1        1.721   1.846   3.501  0.00  0.00    +0.036 A 
BRANCH  30  35
ATOM     35  C   LIG    1        5.267   2.963   2.428  0.00  0.00    +0.002 A 
ATOM     36  C   LIG    1        5.909   1.920   1.756  0.00  0.00    +0.119 A 
ATOM     37  N   LIG    1        7.207   1.916   1.348  0.00  0.00    -0.263 NA
ATOM     38  C   LIG    1        7.917   3.042   1.554  0.00  0.00    +0.111 A 
ATOM     39  C   LIG    1        7.393   4.159   2.170  0.00  0.00    +0.020 A 
ATOM     40  C   LIG    1        6.072   4.104   2.624  0.00  0.00    +0.011 A 
ENDBRANCH  30  35
BRANCH  33  41
ATOM     41  C   LIG    1       -0.464   3.108   3.711  0.00  0.00    +0.417 C 
ATOM     42  F   LIG    1       -1.160   3.592   2.645  0.00  0.00    -0.166 F 
ATOM     43  F   LIG    1       -0.776   3.918   4.760  0.00  0.00    -0.166 F 
ATOM     44  F   LIG    1       -1.017   1.897   3.998  0.00  0.00    -0.166 F 
ENDBRANCH  33  41
ENDBRANCH  27  29
ENDBRANCH   1  27
TORSDOF 9
