REMARK  Name = pdb/CHEMBL3678299.pdb
REMARK                            x       y       z     vdW  Elec       q    Type
REMARK                         _______ _______ _______ _____ _____    ______ ____
ROOT
ATOM      1  C   LIG    1        3.169   2.358  -0.402  0.00  0.00    +0.162 A 
ATOM      2  C   LIG    1        4.357   2.320   0.341  0.00  0.00    +0.162 A 
ATOM      3  C   LIG    1        4.795   3.496   0.968  0.00  0.00    +0.050 A 
ATOM      4  C   LIG    1        4.135   4.712   0.771  0.00  0.00    +0.009 A 
ATOM      5  C   LIG    1        3.012   4.787  -0.056  0.00  0.00    -0.021 A 
ATOM      6  C   LIG    1        2.516   3.588  -0.593  0.00  0.00    +0.055 A 
ENDROOT
BRANCH   1   8
ATOM      7  C   LIG    1        3.208   0.145  -1.318  0.00  0.00    +0.277 C 
ATOM      8  O   LIG    1        2.488   1.318  -0.977  0.00  0.00    -0.491 OA
ENDBRANCH   1   8
BRANCH   5   9
ATOM      9  C   LIG    1        2.288   6.093  -0.349  0.00  0.00    +0.117 C 
ATOM     10  C   LIG    1        1.252   6.428   0.726  0.00  0.00    +0.036 C 
BRANCH   9  11
ATOM     11  N   LIG    1        3.212   7.182  -0.665  0.00  0.00    -0.308 N 
ATOM     12  C   LIG    1        3.775   8.093   0.190  0.00  0.00    +0.161 A 
ATOM     13  N   LIG    1        3.653   8.155   1.531  0.00  0.00    -0.235 NA
ATOM     14  C   LIG    1        4.335   9.201   2.065  0.00  0.00    +0.121 A 
ATOM     15  C   LIG    1        5.098  10.145   1.367  0.00  0.00    +0.005 A 
ATOM     16  C   LIG    1        5.194  10.009  -0.025  0.00  0.00    +0.041 A 
ATOM     17  C   LIG    1        4.508   8.946  -0.628  0.00  0.00    +0.108 A 
ATOM     18  N   LIG    1        4.414   8.567  -1.942  0.00  0.00    -0.234 NA
ATOM     19  C   LIG    1        3.636   7.505  -1.932  0.00  0.00    +0.202 A 
BRANCH  15  20
ATOM     20  C   LIG    1        5.759  11.226   2.072  0.00  0.00    +0.021 A 
ATOM     21  C   LIG    1        5.993  12.484   1.554  0.00  0.00    +0.116 A 
ATOM     22  N   LIG    1        6.601  13.202   2.544  0.00  0.00    -0.274 N 
ATOM     23  C   LIG    1        7.034  14.576   2.472  0.00  0.00    +0.172 C 
ATOM     24  N   LIG    1        6.788  12.501   3.676  0.00  0.00    -0.179 NA
ATOM     25  C   LIG    1        6.272  11.302   3.389  0.00  0.00    +0.143 A 
ENDBRANCH  15  20
ENDBRANCH   9  11
ENDBRANCH   5   9
BRANCH   2  26
ATOM     26  O   LIG    1        5.035   1.136   0.477  0.00  0.00    -0.484 OA
BRANCH  26  27
ATOM     27  C   LIG    1        6.451   1.247   0.656  0.00  0.00    +0.266 C 
BRANCH  27  28
ATOM     28  C   LIG    1        7.125   0.030   0.085  0.00  0.00    +0.008 A 
ATOM     29  C   LIG    1        7.001  -0.275  -1.264  0.00  0.00    +0.118 A 
ATOM     30  N   LIG    1        7.596  -1.330  -1.866  0.00  0.00    -0.251 NA
ATOM     31  C   LIG    1        8.379  -2.141  -1.099  0.00  0.00    +0.144 A 
ATOM     32  C   LIG    1        8.568  -1.896   0.263  0.00  0.00    +0.033 A 
ATOM     33  C   LIG    1        7.935  -0.802   0.856  0.00  0.00    +0.010 A 
BRANCH  31  34
ATOM     34  C   LIG    1        9.048  -3.343  -1.755  0.00  0.00    +0.434 C 
ATOM     35  F   LIG    1        9.818  -3.011  -2.831  0.00  0.00    -0.164 F 
ATOM     36  F   LIG    1        8.155  -4.273  -2.200  0.00  0.00    -0.164 F 
ATOM     37  F   LIG    1        9.884  -4.021  -0.910  0.00  0.00    -0.164 F 
ENDBRANCH  31  34
ENDBRANCH  27  28
ENDBRANCH  26  27
ENDBRANCH   2  26
TORSDOF 8
