REMARK  Name = pdb/CHEMBL3942166.pdb
REMARK                            x       y       z     vdW  Elec       q    Type
REMARK                         _______ _______ _______ _____ _____    ______ ____
ROOT
ATOM      1  C   LIG    1        6.755   6.928  -2.312  0.00  0.00    +0.149 A 
ATOM      2  N   LIG    1        6.015   8.039  -2.161  0.00  0.00    -0.160 NA
ATOM      3  N   LIG    1        5.194   7.760  -1.110  0.00  0.00    -0.218 N 
ATOM      4  C   LIG    1        5.289   6.423  -0.717  0.00  0.00    +0.129 A 
ATOM      5  C   LIG    1        6.334   5.900  -1.440  0.00  0.00    +0.078 A 
ENDROOT
BRANCH   3   6
ATOM      6  C   LIG    1        4.379   8.782  -0.552  0.00  0.00    +0.067 A 
ATOM      7  C   LIG    1        4.020   8.764   0.803  0.00  0.00    +0.028 A 
ATOM      8  C   LIG    1        3.212   9.779   1.324  0.00  0.00    +0.002 A 
ATOM      9  C   LIG    1        2.761  10.808   0.498  0.00  0.00    +0.000 A 
ATOM     10  C   LIG    1        3.135  10.841  -0.844  0.00  0.00    +0.002 A 
ATOM     11  C   LIG    1        3.956   9.841  -1.368  0.00  0.00    +0.028 A 
ENDBRANCH   3   6
BRANCH   4  12
ATOM     12  N   LIG    1        4.441   5.744   0.166  0.00  0.00    -0.266 N 
ATOM     13  H   LIG    1        3.615   6.241   0.484  0.00  0.00    +0.157 HD
ATOM     14  C   LIG    1        4.609   4.374   0.556  0.00  0.00    +0.251 C 
ATOM     15  O   LIG    1        5.580   3.733   0.184  0.00  0.00    -0.270 OA
BRANCH  14  16
ATOM     16  C   LIG    1        3.620   3.777   1.490  0.00  0.00    +0.056 A 
ATOM     17  C   LIG    1        2.298   4.206   1.634  0.00  0.00    +0.056 A 
ATOM     18 CL   LIG    1        1.609   5.500   0.721  0.00  0.00    -0.083 Cl
ATOM     19  C   LIG    1        1.452   3.556   2.535  0.00  0.00    +0.059 A 
ATOM     20  C   LIG    1        1.921   2.485   3.296  0.00  0.00    +0.134 A 
ATOM     21  F   LIG    1        1.041   1.872   4.100  0.00  0.00    -0.205 F 
ATOM     22  C   LIG    1        3.242   2.032   3.202  0.00  0.00    +0.039 A 
ATOM     23  C   LIG    1        4.071   2.691   2.270  0.00  0.00    +0.027 A 
BRANCH  22  24
ATOM     24  C   LIG    1        3.763   0.904   3.999  0.00  0.00    +0.109 A 
ATOM     25  C   LIG    1        3.387   0.636   5.317  0.00  0.00    +0.149 A 
ATOM     26  F   LIG    1        2.543   1.434   5.985  0.00  0.00    -0.203 F 
ATOM     27  C   LIG    1        3.932  -0.458   5.981  0.00  0.00    +0.042 A 
ATOM     28  C   LIG    1        4.862  -1.256   5.326  0.00  0.00    +0.023 A 
ATOM     29  C   LIG    1        5.213  -0.917   4.031  0.00  0.00    +0.111 A 
ATOM     30  N   LIG    1        4.690   0.137   3.360  0.00  0.00    -0.252 NA
ENDBRANCH  22  24
ENDBRANCH  14  16
ENDBRANCH   4  12
BRANCH   1  32
ATOM     31  N   LIG    1        8.528   5.793  -3.414  0.00  0.00    -0.243 NA
ATOM     32  C   LIG    1        7.837   6.865  -3.288  0.00  0.00    +0.236 C 
BRANCH  32  33
ATOM     33  O   LIG    1        8.049   8.006  -3.984  0.00  0.00    -0.491 OA
ATOM     34  H   LIG    1        7.384   8.666  -3.711  0.00  0.00    +0.294 HD
ENDBRANCH  32  33
BRANCH  31  35
ATOM     35  C   LIG    1        9.581   5.807  -4.427  0.00  0.00    +0.204 C 
BRANCH  35  40
ATOM     36  C   LIG    1        9.119   4.528  -9.242  0.00  0.00    +0.174 C 
ATOM     37  N   LIG    1        8.911   4.832  -7.854  0.00  0.00    -0.254 N 
ATOM     38  N   LIG    1        7.693   4.693  -7.306  0.00  0.00    -0.066 NA
ATOM     39  N   LIG    1        7.795   5.029  -6.025  0.00  0.00    -0.133 NA
ATOM     40  C   LIG    1        9.101   5.381  -5.773  0.00  0.00    +0.104 A 
ATOM     41  C   LIG    1        9.823   5.263  -6.943  0.00  0.00    +0.135 A 
ENDBRANCH  35  40
ENDBRANCH  31  35
ENDBRANCH   1  32
TORSDOF 8
