REMARK  Name = pdb/CHEMBL3675968.pdb
REMARK                            x       y       z     vdW  Elec       q    Type
REMARK                         _______ _______ _______ _____ _____    ______ ____
ROOT
ATOM      1  C   LIG    1        5.196   2.525   3.439  0.00  0.00    +0.100 A 
ATOM      2  C   LIG    1        4.858   3.791   3.901  0.00  0.00    +0.170 A 
ATOM      3  N   LIG    1        4.448   4.930   3.259  0.00  0.00    -0.212 NA
ATOM      4  C   LIG    1        4.144   5.983   3.992  0.00  0.00    +0.126 A 
ATOM      5  C   LIG    1        4.249   5.960   5.499  0.00  0.00    +0.063 A 
ATOM      6  C   LIG    1        4.693   4.837   6.067  0.00  0.00    +0.118 A 
ATOM      7  N   LIG    1        5.002   3.736   5.289  0.00  0.00    -0.221 N 
ATOM      8  N   LIG    1        5.446   2.532   5.718  0.00  0.00    -0.173 NA
ATOM      9  C   LIG    1        5.546   1.813   4.604  0.00  0.00    +0.150 A 
ENDROOT
BRANCH   4  10
ATOM     10  N   LIG    1        3.719   7.140   3.356  0.00  0.00    -0.308 N 
ATOM     11  C   LIG    1        3.917   7.373   1.919  0.00  0.00    +0.107 C 
ATOM     12  C   LIG    1        4.107   8.900   1.856  0.00  0.00    +0.029 C 
ATOM     13  C   LIG    1        3.194   9.423   2.952  0.00  0.00    +0.021 C 
ATOM     14  C   LIG    1        3.310   8.366   4.039  0.00  0.00    +0.107 C 
BRANCH  11  15
ATOM     15  C   LIG    1        2.766   6.871   1.069  0.00  0.00    -0.006 A 
ATOM     16  C   LIG    1        2.773   7.054  -0.322  0.00  0.00    +0.046 A 
ATOM     17  C   LIG    1        1.724   6.564  -1.090  0.00  0.00    +0.142 A 
ATOM     18  F   LIG    1        1.730   6.722  -2.419  0.00  0.00    -0.204 F 
ATOM     19  C   LIG    1        0.688   5.898  -0.465  0.00  0.00    +0.149 A 
ATOM     20  N   LIG    1        0.643   5.683   0.868  0.00  0.00    -0.260 NA
ATOM     21  C   LIG    1        1.685   6.161   1.595  0.00  0.00    +0.116 A 
ENDBRANCH  11  15
ENDBRANCH   4  10
BRANCH   1  24
ATOM     22  N   LIG    1        4.799   2.892   1.115  0.00  0.00    -0.309 N 
ATOM     23  H   LIG    1        4.602   3.851   1.406  0.00  0.00    +0.149 HD
ATOM     24  C   LIG    1        5.194   2.009   2.088  0.00  0.00    +0.249 C 
ATOM     25  O   LIG    1        5.520   0.842   1.846  0.00  0.00    -0.270 OA
BRANCH  22  27
ATOM     26  C   LIG    1        3.673   3.345  -1.006  0.00  0.00    +0.027 C 
ATOM     27  C   LIG    1        4.735   2.524  -0.288  0.00  0.00    +0.067 C 
ATOM     28  C   LIG    1        6.096   2.691  -0.960  0.00  0.00    +0.027 C 
ENDBRANCH  22  27
ENDBRANCH   1  24
TORSDOF 4
