REMARK  Name = pdb/CHEMBL3967617.pdb
REMARK                            x       y       z     vdW  Elec       q    Type
REMARK                         _______ _______ _______ _____ _____    ______ ____
ROOT
ATOM      1  C   LIG    1        2.723  -1.434  -0.088  0.00  0.00    +0.118 A 
ATOM      2  N   LIG    1        2.454  -2.668   0.366  0.00  0.00    -0.165 NA
ATOM      3  N   LIG    1        3.628  -3.358   0.232  0.00  0.00    -0.218 N 
ATOM      4  C   LIG    1        4.681  -2.496  -0.123  0.00  0.00    +0.129 A 
ATOM      5  C   LIG    1        4.089  -1.275  -0.371  0.00  0.00    +0.073 A 
ENDROOT
BRANCH   3   6
ATOM      6  C   LIG    1        3.637  -4.760   0.522  0.00  0.00    +0.067 A 
ATOM      7  C   LIG    1        4.604  -5.623   0.000  0.00  0.00    +0.028 A 
ATOM      8  C   LIG    1        4.590  -6.988   0.314  0.00  0.00    +0.002 A 
ATOM      9  C   LIG    1        3.593  -7.511   1.131  0.00  0.00    +0.000 A 
ATOM     10  C   LIG    1        2.604  -6.671   1.633  0.00  0.00    +0.002 A 
ATOM     11  C   LIG    1        2.618  -5.305   1.326  0.00  0.00    +0.028 A 
ENDBRANCH   3   6
BRANCH   4  12
ATOM     12  N   LIG    1        6.058  -2.746  -0.186  0.00  0.00    -0.266 N 
ATOM     13  H   LIG    1        6.365  -3.710  -0.117  0.00  0.00    +0.157 HD
ATOM     14  C   LIG    1        7.071  -1.699  -0.240  0.00  0.00    +0.251 C 
ATOM     15  O   LIG    1        6.760  -0.537  -0.192  0.00  0.00    -0.270 OA
BRANCH  14  16
ATOM     16  C   LIG    1        8.507  -2.106  -0.291  0.00  0.00    +0.056 A 
ATOM     17  C   LIG    1        8.970  -3.428  -0.380  0.00  0.00    +0.056 A 
ATOM     18 CL   LIG    1        7.977  -4.829  -0.430  0.00  0.00    -0.083 Cl
ATOM     19  C   LIG    1       10.333  -3.688  -0.434  0.00  0.00    +0.059 A 
ATOM     20  C   LIG    1       11.255  -2.650  -0.407  0.00  0.00    +0.134 A 
ATOM     21  F   LIG    1       12.544  -3.006  -0.395  0.00  0.00    -0.205 F 
ATOM     22  C   LIG    1       10.866  -1.305  -0.360  0.00  0.00    +0.039 A 
ATOM     23  C   LIG    1        9.475  -1.064  -0.281  0.00  0.00    +0.027 A 
BRANCH  22  24
ATOM     24  C   LIG    1       11.856  -0.200  -0.390  0.00  0.00    +0.109 A 
ATOM     25  C   LIG    1       13.099  -0.283  -1.031  0.00  0.00    +0.149 A 
ATOM     26  F   LIG    1       13.472  -1.369  -1.723  0.00  0.00    -0.203 F 
ATOM     27  C   LIG    1       13.975   0.795  -1.008  0.00  0.00    +0.042 A 
ATOM     28  C   LIG    1       13.593   1.961  -0.364  0.00  0.00    +0.023 A 
ATOM     29  C   LIG    1       12.344   1.991   0.235  0.00  0.00    +0.111 A 
ATOM     30  N   LIG    1       11.472   0.947   0.237  0.00  0.00    -0.252 NA
ENDBRANCH  22  24
ENDBRANCH  14  16
ENDBRANCH   4  12
BRANCH   1  31
ATOM     31  C   LIG    1        1.680  -0.420  -0.165  0.00  0.00    +0.229 C 
BRANCH  31  32
ATOM     32  O   LIG    1        0.577  -0.701   0.565  0.00  0.00    -0.365 OA
ATOM     33  H   LIG    1        0.701  -1.573   0.989  0.00  0.00    +0.212 HD
ENDBRANCH  31  32
BRANCH  31  34
ATOM     34  N   LIG    1        1.833   0.643  -0.872  0.00  0.00    -0.192 NA
BRANCH  34  35
ATOM     35  C   LIG    1        0.712   1.581  -0.822  0.00  0.00    +0.162 C 
BRANCH  35  36
ATOM     36  C   LIG    1        1.022   2.734  -1.696  0.00  0.00    +0.071 A 
ATOM     37  N   LIG    1        1.273   2.612  -3.033  0.00  0.00    -0.260 N 
ATOM     38  H   LIG    1        1.318   1.776  -3.603  0.00  0.00    +0.190 HD
ATOM     39  N   LIG    1        1.493   3.805  -3.607  0.00  0.00    -0.068 NA
ATOM     40  N   LIG    1        1.409   4.724  -2.656  0.00  0.00    -0.138 NA
ATOM     41  C   LIG    1        1.125   4.090  -1.479  0.00  0.00    +0.160 A 
ENDBRANCH  35  36
ENDBRANCH  34  35
ENDBRANCH  31  34
ENDBRANCH   1  31
TORSDOF 9
