REMARK  Name = pdb/CHEMBL3659498.pdb
REMARK                            x       y       z     vdW  Elec       q    Type
REMARK                         _______ _______ _______ _____ _____    ______ ____
ROOT
ATOM      1  N   LIG    1        8.020  -0.176   1.390  0.00  0.00    -0.266 N 
ATOM      2  C   LIG    1        8.246   1.183   1.523  0.00  0.00    +0.168 A 
ATOM      3  N   LIG    1        7.397   2.227   1.331  0.00  0.00    -0.213 NA
ATOM      4  C   LIG    1        7.961   3.440   1.535  0.00  0.00    +0.122 A 
ATOM      5  C   LIG    1        9.302   3.615   1.902  0.00  0.00    +0.046 A 
ATOM      6  C   LIG    1       10.149   2.526   2.058  0.00  0.00    +0.035 A 
ATOM      7  C   LIG    1        9.592   1.267   1.886  0.00  0.00    +0.108 A 
ATOM      8  N   LIG    1       10.167   0.039   2.022  0.00  0.00    -0.234 NA
ATOM      9  C   LIG    1        9.200  -0.803   1.741  0.00  0.00    +0.207 A 
ENDROOT
BRANCH   1  14
ATOM     10  C   LIG    1        4.803  -1.371   0.263  0.00  0.00    +0.213 A 
ATOM     11  N   LIG    1        5.605  -2.470   0.392  0.00  0.00    -0.245 N 
ATOM     12  H   LIG    1        5.357  -3.439   0.219  0.00  0.00    +0.192 HD
ATOM     13  N   LIG    1        6.852  -2.186   0.851  0.00  0.00    -0.153 NA
ATOM     14  C   LIG    1        6.841  -0.846   0.960  0.00  0.00    +0.165 A 
ATOM     15  C   LIG    1        5.599  -0.303   0.611  0.00  0.00    +0.115 A 
BRANCH  10  16
ATOM     16  O   LIG    1        3.541  -1.494  -0.114  0.00  0.00    -0.477 OA
BRANCH  16  18
ATOM     17  C   LIG    1        2.639   0.671  -0.770  0.00  0.00    +0.048 C 
ATOM     18  C   LIG    1        2.669  -0.427   0.273  0.00  0.00    +0.227 C 
ENDBRANCH  16  18
ENDBRANCH  10  16
ENDBRANCH   1  14
BRANCH   4  19
ATOM     19  N   LIG    1        7.118   4.539   1.394  0.00  0.00    -0.318 N 
ATOM     20  H   LIG    1        6.244   4.240   0.966  0.00  0.00    +0.148 HD
BRANCH  19  21
ATOM     21  CA  LIG    1        7.676   5.789   0.857  0.00  0.00    +0.146 C 
BRANCH  21  22
ATOM     22  C   LIG    1        6.697   6.937   1.103  0.00  0.00    +0.064 A 
ATOM     23  N   LIG    1        6.242   7.638   0.028  0.00  0.00    -0.255 NA
ATOM     24  C   LIG    1        5.385   8.656   0.275  0.00  0.00    +0.149 A 
ATOM     25  C   LIG    1        4.969   9.019   1.542  0.00  0.00    +0.141 A 
ATOM     26  F   LIG    1        4.107  10.028   1.712  0.00  0.00    -0.204 F 
ATOM     27  C   LIG    1        5.453   8.320   2.635  0.00  0.00    +0.042 A 
ATOM     28  C   LIG    1        6.334   7.263   2.417  0.00  0.00    +0.028 A 
ENDBRANCH  21  22
BRANCH  21  29
ATOM     29  C   LIG    1        8.061   5.634  -0.634  0.00  0.00    +0.184 C 
BRANCH  29  30
ATOM     30  O   LIG    1        8.794   6.763  -1.115  0.00  0.00    -0.393 OA
ATOM     31  H   LIG    1        8.152   7.502  -1.114  0.00  0.00    +0.209 HD
ENDBRANCH  29  30
ENDBRANCH  21  29
ENDBRANCH  19  21
ENDBRANCH   4  19
TORSDOF 8
