REMARK  Name = pdb/CHEMBL3928158.pdb
REMARK                            x       y       z     vdW  Elec       q    Type
REMARK                         _______ _______ _______ _____ _____    ______ ____
ROOT
ATOM      1  C   LIG    1        3.059   3.753   2.191  0.00  0.00    +0.086 A 
ATOM      2  C   LIG    1        3.616   4.851   1.511  0.00  0.00    +0.042 A 
ATOM      3  C   LIG    1        3.852   6.155   2.034  0.00  0.00    +0.042 A 
ATOM      4  C   LIG    1        3.168   6.351   3.209  0.00  0.00    +0.122 A 
ATOM      5  N   LIG    1        2.480   5.384   3.894  0.00  0.00    -0.260 NA
ATOM      6  C   LIG    1        2.480   4.115   3.393  0.00  0.00    +0.138 A 
ENDROOT
BRANCH   1   8
ATOM      7  C   LIG    1        3.657   1.653   1.013  0.00  0.00    +0.210 C 
ATOM      8  N   LIG    1        2.888   2.431   1.710  0.00  0.00    -0.214 NA
BRANCH   7   9
ATOM      9  O   LIG    1        3.158   0.389   0.796  0.00  0.00    -0.494 OA
ATOM     10  H   LIG    1        3.765  -0.217   0.337  0.00  0.00    +0.293 HD
ENDBRANCH   7   9
BRANCH   7  11
ATOM     11  C   LIG    1        5.001   1.768   0.332  0.00  0.00    +0.239 C 
BRANCH  11  14
ATOM     12  C   LIG    1        5.063   4.297  -1.551  0.00  0.00    +0.065 C 
ATOM     13  C   LIG    1        5.882   4.060  -0.304  0.00  0.00    +0.037 A 
ATOM     14  N   LIG    1        5.745   2.983   0.542  0.00  0.00    -0.259 N 
ATOM     15  N   LIG    1        6.391   3.119   1.716  0.00  0.00    -0.167 NA
ATOM     16  C   LIG    1        6.931   4.349   1.674  0.00  0.00    +0.165 A 
ATOM     17  C   LIG    1        6.717   4.925   0.388  0.00  0.00    +0.056 A 
BRANCH  16  18
ATOM     18  C   LIG    1        7.598   4.979   2.875  0.00  0.00    +0.436 C 
ATOM     19  F   LIG    1        8.670   4.264   3.307  0.00  0.00    -0.164 F 
ATOM     20  F   LIG    1        6.757   5.111   3.939  0.00  0.00    -0.164 F 
ATOM     21  F   LIG    1        8.052   6.234   2.603  0.00  0.00    -0.164 F 
ENDBRANCH  16  18
ENDBRANCH  11  14
ENDBRANCH   7  11
ENDBRANCH   1   8
BRANCH   3  22
ATOM     22  C   LIG    1        4.677   7.243   1.280  0.00  0.00    +0.197 C 
ATOM     23  O   LIG    1        4.703   7.139   0.025  0.00  0.00    -0.287 OA
BRANCH  22  24
ATOM     24  C   LIG    1        5.480   8.357   1.913  0.00  0.00    +0.049 A 
ATOM     25  C   LIG    1        6.521   9.262   1.409  0.00  0.00    +0.032 A 
ATOM     26  C   LIG    1        7.157   9.383   0.153  0.00  0.00    +0.121 A 
ATOM     27  N   LIG    1        8.079  10.352  -0.095  0.00  0.00    -0.260 NA
ATOM     28  C   LIG    1        8.385  11.227   0.886  0.00  0.00    +0.151 A 
ATOM     29  C   LIG    1        7.827  11.205   2.158  0.00  0.00    +0.165 A 
ATOM     30  F   LIG    1        8.189  12.137   3.048  0.00  0.00    -0.202 F 
ATOM     31  C   LIG    1        6.885  10.198   2.438  0.00  0.00    +0.089 A 
ATOM     32  N   LIG    1        6.138   9.877   3.563  0.00  0.00    -0.336 N 
ATOM     33  C   LIG    1        5.291   8.840   3.178  0.00  0.00    +0.099 A 
BRANCH  32  34
ATOM     34  C   LIG    1        5.979  10.507   4.919  0.00  0.00    +0.063 C 
ATOM     35  C   LIG    1        4.891  11.604   4.842  0.00  0.00    +0.036 C 
ATOM     36  C   LIG    1        7.187  11.185   5.643  0.00  0.00    +0.036 C 
BRANCH  34  37
ATOM     37  C   LIG    1        5.587   9.367   5.950  0.00  0.00    +0.183 C 
BRANCH  37  38
ATOM     38  O   LIG    1        4.283   8.798   5.837  0.00  0.00    -0.393 OA
ATOM     39  H   LIG    1        3.626   9.504   5.738  0.00  0.00    +0.209 HD
ENDBRANCH  37  38
ENDBRANCH  34  37
ENDBRANCH  32  34
ENDBRANCH  22  24
ENDBRANCH   3  22
TORSDOF 10
