REMARK  Name = pdb/CHEMBL3907403.pdb
REMARK                            x       y       z     vdW  Elec       q    Type
REMARK                         _______ _______ _______ _____ _____    ______ ____
ROOT
ATOM      1  N   LIG    1        4.851   3.451   4.188  0.00  0.00    -0.282 N 
ATOM      2  H   LIG    1        5.214   4.006   4.956  0.00  0.00    +0.152 HD
ATOM      3  C   LIG    1        4.224   4.126   3.082  0.00  0.00    +0.247 C 
ATOM      4  O   LIG    1        3.854   3.487   2.107  0.00  0.00    -0.270 OA
ENDROOT
BRANCH   3   5
ATOM      5  C   LIG    1        4.069   5.610   3.203  0.00  0.00    +0.056 A 
ATOM      6  C   LIG    1        4.139   6.447   2.086  0.00  0.00    +0.054 A 
ATOM      7 CL   LIG    1        4.422   5.886   0.478  0.00  0.00    -0.083 Cl
ATOM      8  C   LIG    1        4.002   7.830   2.242  0.00  0.00    +0.041 A 
ATOM      9  C   LIG    1        3.797   8.405   3.505  0.00  0.00    +0.052 A 
ATOM     10 CL   LIG    1        3.572  10.123   3.490  0.00  0.00    -0.083 Cl
ATOM     11  C   LIG    1        3.730   7.606   4.664  0.00  0.00    +0.019 A 
ATOM     12  C   LIG    1        3.841   6.197   4.468  0.00  0.00    +0.026 A 
BRANCH  11  13
ATOM     13  C   LIG    1        3.532   8.122   6.050  0.00  0.00    +0.072 A 
ATOM     14  N   LIG    1        2.856   7.282   6.881  0.00  0.00    -0.255 NA
ATOM     15  C   LIG    1        2.625   7.692   8.154  0.00  0.00    +0.111 A 
ATOM     16  C   LIG    1        3.042   8.906   8.666  0.00  0.00    +0.020 A 
ATOM     17  C   LIG    1        3.762   9.743   7.831  0.00  0.00    +0.004 A 
ATOM     18  C   LIG    1        4.029   9.339   6.523  0.00  0.00    +0.028 A 
ENDBRANCH  11  13
ENDBRANCH   3   5
BRANCH   1  22
ATOM     19  C   LIG    1        5.603  -0.072   3.766  0.00  0.00    +0.131 C 
ATOM     20  N   LIG    1        6.225   0.198   4.926  0.00  0.00    -0.141 NA
ATOM     21  N   LIG    1        5.781   1.418   5.286  0.00  0.00    -0.201 N 
ATOM     22  C   LIG    1        5.137   2.074   4.238  0.00  0.00    +0.185 C 
ATOM     23  C   LIG    1        4.919   1.092   3.294  0.00  0.00    +0.056 C 
BRANCH  21  24
ATOM     24  C   LIG    1        5.987   1.893   6.605  0.00  0.00    +0.052 A 
ATOM     25  C   LIG    1        5.038   2.729   7.211  0.00  0.00    +0.025 A 
ATOM     26  C   LIG    1        5.233   3.162   8.522  0.00  0.00    +0.002 A 
ATOM     27  C   LIG    1        6.375   2.774   9.223  0.00  0.00    +0.000 A 
ATOM     28  C   LIG    1        7.314   1.933   8.626  0.00  0.00    +0.002 A 
ATOM     29  C   LIG    1        7.113   1.473   7.324  0.00  0.00    +0.025 A 
ENDBRANCH  21  24
BRANCH  19  31
ATOM     30  N   LIG    1        6.330  -2.366   3.668  0.00  0.00    -0.250 NA
ATOM     31  C   LIG    1        5.696  -1.393   3.122  0.00  0.00    +0.233 C 
BRANCH  30  33
ATOM     32  C   LIG    1        7.233  -4.610   3.920  0.00  0.00    +0.029 C 
ATOM     33  C   LIG    1        6.402  -3.682   3.045  0.00  0.00    +0.142 C 
ENDBRANCH  30  33
BRANCH  31  34
ATOM     34  O   LIG    1        5.057  -1.478   1.933  0.00  0.00    -0.491 OA
ATOM     35  H   LIG    1        5.186  -2.348   1.532  0.00  0.00    +0.294 HD
ENDBRANCH  31  34
ENDBRANCH  19  31
ENDBRANCH   1  22
TORSDOF 7
