REMARK  Name = pdb/CHEMBL3965319.pdb
REMARK                            x       y       z     vdW  Elec       q    Type
REMARK                         _______ _______ _______ _____ _____    ______ ____
ROOT
ATOM      1  C   LIG    1        4.591  -0.253  -4.515  0.00  0.00    +0.149 A 
ATOM      2  N   LIG    1        5.685   0.524  -4.569  0.00  0.00    -0.160 NA
ATOM      3  N   LIG    1        5.205   1.800  -4.464  0.00  0.00    -0.218 N 
ATOM      4  C   LIG    1        3.801   1.820  -4.496  0.00  0.00    +0.129 A 
ATOM      5  C   LIG    1        3.412   0.512  -4.471  0.00  0.00    +0.078 A 
ENDROOT
BRANCH   3   6
ATOM      6  C   LIG    1        6.109   2.893  -4.352  0.00  0.00    +0.067 A 
ATOM      7  C   LIG    1        5.753   4.045  -3.642  0.00  0.00    +0.028 A 
ATOM      8  C   LIG    1        6.649   5.110  -3.522  0.00  0.00    +0.002 A 
ATOM      9  C   LIG    1        7.912   5.027  -4.100  0.00  0.00    +0.000 A 
ATOM     10  C   LIG    1        8.284   3.875  -4.793  0.00  0.00    +0.002 A 
ATOM     11  C   LIG    1        7.392   2.803  -4.910  0.00  0.00    +0.028 A 
ENDBRANCH   3   6
BRANCH   4  12
ATOM     12  N   LIG    1        2.955   2.936  -4.609  0.00  0.00    -0.266 N 
ATOM     13  H   LIG    1        3.379   3.854  -4.656  0.00  0.00    +0.157 HD
ATOM     14  C   LIG    1        1.520   2.827  -4.716  0.00  0.00    +0.251 C 
ATOM     15  O   LIG    1        0.958   1.737  -4.779  0.00  0.00    -0.270 OA
BRANCH  14  16
ATOM     16  C   LIG    1        0.726   4.075  -4.825  0.00  0.00    +0.056 A 
ATOM     17  C   LIG    1        1.071   5.269  -4.214  0.00  0.00    +0.054 A 
ATOM     18 CL   LIG    1        2.480   5.495  -3.256  0.00  0.00    -0.083 Cl
ATOM     19  C   LIG    1        0.234   6.371  -4.350  0.00  0.00    +0.041 A 
ATOM     20  C   LIG    1       -0.958   6.290  -5.085  0.00  0.00    +0.052 A 
ATOM     21 CL   LIG    1       -1.875   7.760  -5.120  0.00  0.00    -0.083 Cl
ATOM     22  C   LIG    1       -1.360   5.086  -5.706  0.00  0.00    +0.022 A 
ATOM     23  C   LIG    1       -0.482   3.985  -5.552  0.00  0.00    +0.026 A 
BRANCH  22  24
ATOM     24  C   LIG    1       -2.616   4.933  -6.490  0.00  0.00    +0.107 A 
ATOM     25  C   LIG    1       -3.364   3.752  -6.548  0.00  0.00    +0.149 A 
ATOM     26  F   LIG    1       -2.977   2.640  -5.905  0.00  0.00    -0.203 F 
ATOM     27  C   LIG    1       -4.547   3.708  -7.281  0.00  0.00    +0.042 A 
ATOM     28  C   LIG    1       -4.974   4.849  -7.946  0.00  0.00    +0.023 A 
ATOM     29  C   LIG    1       -4.178   5.976  -7.871  0.00  0.00    +0.111 A 
ATOM     30  N   LIG    1       -3.012   6.029  -7.185  0.00  0.00    -0.252 NA
ENDBRANCH  22  24
ENDBRANCH  14  16
ENDBRANCH   4  12
BRANCH   1  31
ATOM     31  C   LIG    1        4.666  -1.707  -4.571  0.00  0.00    +0.236 C 
ATOM     32  N   LIG    1        3.586  -2.393  -4.633  0.00  0.00    -0.243 NA
BRANCH  31  33
ATOM     33  O   LIG    1        5.913  -2.219  -4.583  0.00  0.00    -0.491 OA
ATOM     34  H   LIG    1        6.557  -1.487  -4.535  0.00  0.00    +0.294 HD
ENDBRANCH  31  33
BRANCH  32  35
ATOM     35  C   LIG    1        3.703  -3.847  -4.796  0.00  0.00    +0.200 C 
BRANCH  35  36
ATOM     36  C   LIG    1        3.037  -4.370  -6.057  0.00  0.00    +0.066 A 
ATOM     37  N   LIG    1        3.141  -5.699  -6.288  0.00  0.00    -0.238 NA
ATOM     38  C   LIG    1        2.567  -6.160  -7.411  0.00  0.00    +0.221 A 
ATOM     39  N   LIG    1        1.906  -5.429  -8.320  0.00  0.00    -0.244 NA
ATOM     40  C   LIG    1        1.820  -4.116  -8.051  0.00  0.00    +0.114 A 
ATOM     41  C   LIG    1        2.366  -3.531  -6.931  0.00  0.00    +0.045 A 
ENDBRANCH  35  36
ENDBRANCH  32  35
ENDBRANCH   1  31
TORSDOF 8
