REMARK  Name = pdb/CHEMBL3890064.pdb
REMARK                            x       y       z     vdW  Elec       q    Type
REMARK                         _______ _______ _______ _____ _____    ______ ____
ROOT
ATOM      1  C   LIG    1        4.225  -2.557   2.720  0.00  0.00    +0.149 A 
ATOM      2  N   LIG    1        5.115  -2.918   3.655  0.00  0.00    -0.160 NA
ATOM      3  N   LIG    1        5.280  -1.825   4.431  0.00  0.00    -0.218 N 
ATOM      4  C   LIG    1        4.628  -0.712   3.892  0.00  0.00    +0.129 A 
ATOM      5  C   LIG    1        3.976  -1.173   2.773  0.00  0.00    +0.078 A 
ENDROOT
BRANCH   3   6
ATOM      6  C   LIG    1        6.043  -1.933   5.625  0.00  0.00    +0.067 A 
ATOM      7  C   LIG    1        5.824  -1.072   6.705  0.00  0.00    +0.028 A 
ATOM      8  C   LIG    1        6.608  -1.178   7.854  0.00  0.00    +0.002 A 
ATOM      9  C   LIG    1        7.598  -2.154   7.939  0.00  0.00    +0.000 A 
ATOM     10  C   LIG    1        7.791  -3.047   6.887  0.00  0.00    +0.002 A 
ATOM     11  C   LIG    1        7.008  -2.949   5.736  0.00  0.00    +0.028 A 
ENDBRANCH   3   6
BRANCH   4  12
ATOM     12  N   LIG    1        4.654   0.611   4.342  0.00  0.00    -0.266 N 
ATOM     13  H   LIG    1        5.221   0.820   5.150  0.00  0.00    +0.157 HD
ATOM     14  C   LIG    1        3.966   1.688   3.696  0.00  0.00    +0.251 C 
ATOM     15  O   LIG    1        3.322   1.512   2.662  0.00  0.00    -0.270 OA
BRANCH  14  16
ATOM     16  C   LIG    1        3.994   3.012   4.330  0.00  0.00    +0.056 A 
ATOM     17  C   LIG    1        5.035   3.447   5.145  0.00  0.00    +0.054 A 
ATOM     18 CL   LIG    1        6.484   2.549   5.422  0.00  0.00    -0.083 Cl
ATOM     19  C   LIG    1        4.926   4.674   5.784  0.00  0.00    +0.041 A 
ATOM     20  C   LIG    1        3.798   5.492   5.602  0.00  0.00    +0.052 A 
ATOM     21 CL   LIG    1        3.742   6.850   6.673  0.00  0.00    -0.083 Cl
ATOM     22  C   LIG    1        2.773   5.147   4.694  0.00  0.00    +0.022 A 
ATOM     23  C   LIG    1        2.896   3.872   4.092  0.00  0.00    +0.026 A 
BRANCH  22  24
ATOM     24  C   LIG    1        1.594   5.996   4.353  0.00  0.00    +0.107 A 
ATOM     25  C   LIG    1        1.596   7.394   4.331  0.00  0.00    +0.149 A 
ATOM     26  F   LIG    1        2.709   8.109   4.533  0.00  0.00    -0.203 F 
ATOM     27  C   LIG    1        0.436   8.099   4.029  0.00  0.00    +0.042 A 
ATOM     28  C   LIG    1       -0.707   7.402   3.671  0.00  0.00    +0.023 A 
ATOM     29  C   LIG    1       -0.636   6.021   3.644  0.00  0.00    +0.111 A 
ATOM     30  N   LIG    1        0.471   5.309   3.985  0.00  0.00    -0.252 NA
ENDBRANCH  22  24
ENDBRANCH  14  16
ENDBRANCH   4  12
BRANCH   1  31
ATOM     31  C   LIG    1        3.650  -3.505   1.775  0.00  0.00    +0.236 C 
ATOM     32  N   LIG    1        2.667  -3.142   1.037  0.00  0.00    -0.244 NA
BRANCH  31  33
ATOM     33  O   LIG    1        4.249  -4.712   1.774  0.00  0.00    -0.491 OA
ATOM     34  H   LIG    1        3.934  -5.299   1.082  0.00  0.00    +0.294 HD
ENDBRANCH  31  33
BRANCH  32  35
ATOM     35  C   LIG    1        2.076  -4.050   0.066  0.00  0.00    +0.183 C 
BRANCH  35  36
ATOM     36  C   LIG    1        0.647  -3.713  -0.206  0.00  0.00    +0.011 A 
ATOM     37  C   LIG    1       -0.193  -4.298  -1.137  0.00  0.00    +0.110 A 
ATOM     38  N   LIG    1       -1.377  -3.619  -1.080  0.00  0.00    -0.284 N 
ATOM     39  H   LIG    1       -2.212  -3.756  -1.641  0.00  0.00    +0.188 HD
ATOM     40  N   LIG    1       -1.392  -2.661  -0.142  0.00  0.00    -0.182 NA
ATOM     41  C   LIG    1       -0.177  -2.740   0.407  0.00  0.00    +0.139 A 
ENDBRANCH  35  36
ENDBRANCH  32  35
ENDBRANCH   1  31
TORSDOF 8
