REMARK  Name = pdb/CHEMBL3957079.pdb
REMARK                            x       y       z     vdW  Elec       q    Type
REMARK                         _______ _______ _______ _____ _____    ______ ____
ROOT
ATOM      1  C   LIG    1       -0.157  -7.792   1.997  0.00  0.00    +0.323 A 
ATOM      2  N   LIG    1       -0.859  -6.710   1.675  0.00  0.00    -0.201 NA
ATOM      3  C   LIG    1       -2.075  -6.572   2.169  0.00  0.00    +0.145 A 
ATOM      4  C   LIG    1       -2.680  -7.432   3.055  0.00  0.00    +0.105 A 
ATOM      5  C   LIG    1       -1.863  -8.523   3.335  0.00  0.00    +0.145 A 
ATOM      6  N   LIG    1       -0.609  -8.737   2.841  0.00  0.00    -0.201 NA
ENDROOT
BRANCH   4   7
ATOM      7  N   LIG    1       -3.974  -7.288   3.579  0.00  0.00    -0.196 NA
ATOM      8  C   LIG    1       -4.764  -6.289   3.304  0.00  0.00    +0.285 C 
BRANCH   8   9
ATOM      9  N   LIG    1       -6.054  -6.083   3.660  0.00  0.00    -0.269 N 
ATOM     10  H   LIG    1       -6.398  -5.155   3.533  0.00  0.00    +0.157 HD
BRANCH   9  11
ATOM     11  C   LIG    1       -7.045  -7.050   3.938  0.00  0.00    +0.043 A 
ATOM     12  C   LIG    1       -8.357  -6.730   4.401  0.00  0.00    +0.005 A 
ATOM     13  C   LIG    1       -9.202  -7.834   4.699  0.00  0.00    +0.011 A 
ATOM     14  C   LIG    1       -8.794  -9.169   4.566  0.00  0.00    +0.013 A 
ATOM     15  C   LIG    1       -7.518  -9.473   4.119  0.00  0.00    +0.057 A 
ATOM     16  C   LIG    1       -6.676  -8.415   3.799  0.00  0.00    +0.036 A 
BRANCH  12  17
ATOM     17  C   LIG    1       -8.943  -5.348   4.544  0.00  0.00    +0.002 A 
ATOM     18  C   LIG    1       -8.665  -4.289   3.676  0.00  0.00    +0.119 A 
ATOM     19  N   LIG    1       -9.223  -3.048   3.706  0.00  0.00    -0.263 NA
ATOM     20  C   LIG    1      -10.178  -2.834   4.628  0.00  0.00    +0.111 A 
ATOM     21  C   LIG    1      -10.566  -3.793   5.540  0.00  0.00    +0.020 A 
ATOM     22  C   LIG    1       -9.932  -5.044   5.503  0.00  0.00    +0.011 A 
ENDBRANCH  12  17
BRANCH  15  23
ATOM     23  C   LIG    1       -7.038 -10.895   3.972  0.00  0.00    +0.417 C 
ATOM     24  F   LIG    1       -7.684 -11.556   2.971  0.00  0.00    -0.166 F 
ATOM     25  F   LIG    1       -7.238 -11.635   5.100  0.00  0.00    -0.166 F 
ATOM     26  F   LIG    1       -5.711 -11.001   3.691  0.00  0.00    -0.166 F 
ENDBRANCH  15  23
ENDBRANCH   9  11
ENDBRANCH   8   9
BRANCH   8  27
ATOM     27  O   LIG    1       -4.352  -5.256   2.548  0.00  0.00    -0.481 OA
ATOM     28  H   LIG    1       -5.084  -4.748   2.150  0.00  0.00    +0.295 HD
ENDBRANCH   8  27
ENDBRANCH   4   7
BRANCH   1  29
ATOM     29  O   LIG    1        1.108  -7.937   1.441  0.00  0.00    -0.424 OA
BRANCH  29  33
ATOM     30  C   LIG    1        1.836  -6.376  -2.404  0.00  0.00    -0.013 A 
ATOM     31  C   LIG    1        1.031  -5.658  -1.528  0.00  0.00    +0.012 A 
ATOM     32  C   LIG    1        0.837  -6.105  -0.225  0.00  0.00    +0.047 A 
ATOM     33  C   LIG    1        1.357  -7.332   0.216  0.00  0.00    +0.132 A 
ATOM     34  C   LIG    1        2.211  -8.021  -0.640  0.00  0.00    +0.047 A 
ATOM     35  C   LIG    1        2.460  -7.542  -1.937  0.00  0.00    +0.012 A 
BRANCH  30  39
ATOM     36  C   LIG    1       -0.744  -4.136  -5.256  0.00  0.00    +0.218 A 
ATOM     37  N   LIG    1       -0.181  -4.781  -4.282  0.00  0.00    -0.193 NA
ATOM     38  C   LIG    1        1.117  -5.190  -4.515  0.00  0.00    +0.167 A 
ATOM     39  C   LIG    1        2.043  -5.891  -3.755  0.00  0.00    +0.046 A 
ATOM     40  C   LIG    1        3.177  -6.000  -4.583  0.00  0.00    +0.145 A 
ATOM     41  N   LIG    1        3.015  -5.427  -5.775  0.00  0.00    -0.173 NA
ATOM     42  N   LIG    1        1.755  -4.931  -5.738  0.00  0.00    -0.221 N 
ATOM     43  C   LIG    1        1.094  -4.246  -6.753  0.00  0.00    +0.120 A 
ATOM     44  C   LIG    1       -0.157  -3.803  -6.573  0.00  0.00    +0.087 A 
BRANCH  36  46
ATOM     45  C   LIG    1       -2.913  -4.291  -4.316  0.00  0.00    +0.279 C 
ATOM     46  O   LIG    1       -2.014  -3.667  -5.237  0.00  0.00    -0.480 OA
ENDBRANCH  36  46
ENDBRANCH  30  39
ENDBRANCH  29  33
ENDBRANCH   1  29
TORSDOF 10
