REMARK  Name = pdb/CHEMBL3944160.pdb
REMARK                            x       y       z     vdW  Elec       q    Type
REMARK                         _______ _______ _______ _____ _____    ______ ____
ROOT
ATOM      1  C   LIG    1        8.189  -6.121  -1.474  0.00  0.00    +0.286 C 
ATOM      2  N   LIG    1        9.061  -5.717  -0.656  0.00  0.00    -0.196 NA
ENDROOT
BRANCH   2   3
ATOM      3  C   LIG    1        8.876  -4.932   0.467  0.00  0.00    +0.105 A 
ATOM      4  C   LIG    1        9.941  -4.269   1.059  0.00  0.00    +0.145 A 
ATOM      5  N   LIG    1        9.848  -3.503   2.176  0.00  0.00    -0.201 NA
ATOM      6  C   LIG    1        8.602  -3.336   2.632  0.00  0.00    +0.323 A 
ATOM      7  N   LIG    1        7.505  -3.785   2.037  0.00  0.00    -0.201 NA
ATOM      8  C   LIG    1        7.683  -4.670   1.044  0.00  0.00    +0.145 A 
BRANCH   6   9
ATOM      9  O   LIG    1        8.460  -2.767   3.894  0.00  0.00    -0.424 OA
BRANCH   9  10
ATOM     10  C   LIG    1        7.217  -2.845   4.494  0.00  0.00    +0.132 A 
ATOM     11  C   LIG    1        6.876  -1.786   5.330  0.00  0.00    +0.047 A 
ATOM     12  C   LIG    1        5.609  -1.738   5.922  0.00  0.00    +0.012 A 
ATOM     13  C   LIG    1        4.662  -2.733   5.653  0.00  0.00    -0.010 A 
ATOM     14  C   LIG    1        5.031  -3.818   4.854  0.00  0.00    +0.012 A 
ATOM     15  C   LIG    1        6.309  -3.899   4.332  0.00  0.00    +0.047 A 
BRANCH  13  16
ATOM     16  C   LIG    1        3.301  -2.651   6.161  0.00  0.00    +0.041 A 
ATOM     17  S   LIG    1        2.007  -3.122   5.150  0.00  0.00    -0.052 S 
ATOM     18  C   LIG    1        0.891  -2.750   6.374  0.00  0.00    +0.168 A 
ATOM     19  N   LIG    1        1.411  -2.328   7.507  0.00  0.00    -0.232 NA
ATOM     20  C   LIG    1        2.790  -2.234   7.372  0.00  0.00    +0.129 A 
BRANCH  18  21
ATOM     21  N   LIG    1       -0.447  -2.993   6.160  0.00  0.00    -0.250 N 
ATOM     22  C   LIG    1       -1.015  -3.173   4.893  0.00  0.00    +0.221 C 
ATOM     23  O   LIG    1       -0.516  -3.086   3.785  0.00  0.00    -0.275 OA
ATOM     24  C   LIG    1       -2.479  -3.471   5.089  0.00  0.00    +0.098 C 
ATOM     25  C   LIG    1       -2.607  -3.720   6.581  0.00  0.00    +0.029 C 
ATOM     26  C   LIG    1       -1.450  -2.951   7.185  0.00  0.00    +0.116 C 
ENDBRANCH  18  21
ENDBRANCH  13  16
ENDBRANCH   9  10
ENDBRANCH   6   9
ENDBRANCH   2   3
BRANCH   1  27
ATOM     27  N   LIG    1        6.779  -6.113  -1.574  0.00  0.00    -0.254 N 
ATOM     28  H   LIG    1        6.326  -5.652  -0.805  0.00  0.00    +0.158 HD
BRANCH  27  30
ATOM     29  N   LIG    1        4.535  -6.851  -2.431  0.00  0.00    -0.218 N 
ATOM     30  C   LIG    1        5.896  -6.446  -2.573  0.00  0.00    +0.130 A 
ATOM     31  C   LIG    1        6.110  -6.468  -3.944  0.00  0.00    +0.069 A 
ATOM     32  C   LIG    1        4.869  -6.621  -4.564  0.00  0.00    +0.071 A 
ATOM     33  N   LIG    1        3.931  -6.901  -3.664  0.00  0.00    -0.169 NA
BRANCH  29  39
ATOM     34  C   LIG    1        0.278  -7.642   2.718  0.00  0.00    +0.173 C 
ATOM     35  N   LIG    1        0.505  -7.788   1.300  0.00  0.00    -0.267 N 
ATOM     36  C   LIG    1        1.657  -7.474   0.613  0.00  0.00    +0.069 A 
ATOM     37  C   LIG    1        2.828  -6.779   0.958  0.00  0.00    +0.030 A 
ATOM     38  C   LIG    1        3.817  -6.595  -0.038  0.00  0.00    +0.030 A 
ATOM     39  C   LIG    1        3.681  -7.159  -1.308  0.00  0.00    +0.068 A 
ATOM     40  C   LIG    1        2.558  -7.993  -1.559  0.00  0.00    +0.039 A 
ATOM     41  C   LIG    1        1.493  -8.053  -0.638  0.00  0.00    +0.022 A 
ATOM     42  C   LIG    1        0.168  -8.549  -0.635  0.00  0.00    +0.143 A 
ATOM     43  N   LIG    1       -0.442  -8.377   0.541  0.00  0.00    -0.179 NA
ENDBRANCH  29  39
BRANCH  32  44
ATOM     44  C   LIG    1        4.574  -6.442  -6.046  0.00  0.00    +0.006 C 
ATOM     45  C   LIG    1        5.757  -6.928  -6.918  0.00  0.00    +0.017 C 
ATOM     46  C   LIG    1        4.347  -4.948  -6.368  0.00  0.00    +0.017 C 
ATOM     47  C   LIG    1        3.316  -7.222  -6.457  0.00  0.00    +0.017 C 
ENDBRANCH  32  44
ENDBRANCH  27  30
ENDBRANCH   1  27
BRANCH   1  48
ATOM     48  O   LIG    1        8.787  -6.661  -2.551  0.00  0.00    -0.481 OA
ATOM     49  H   LIG    1        8.200  -6.653  -3.289  0.00  0.00    +0.295 HD
ENDBRANCH   1  48
TORSDOF 10
