REMARK  Name = pdb/CHEMBL3673442.pdb
REMARK                            x       y       z     vdW  Elec       q    Type
REMARK                         _______ _______ _______ _____ _____    ______ ____
ROOT
ATOM      1  N   LIG    1       12.191   6.922   4.794  0.00  0.00    -0.326 N 
ATOM      2  C   LIG    1       12.783   5.721   4.500  0.00  0.00    +0.069 A 
ATOM      3  C   LIG    1       12.702   4.831   3.424  0.00  0.00    +0.028 A 
ATOM      4  C   LIG    1       13.486   3.669   3.494  0.00  0.00    +0.011 A 
ATOM      5  C   LIG    1       14.300   3.377   4.600  0.00  0.00    -0.013 A 
ATOM      6  C   LIG    1       14.355   4.280   5.668  0.00  0.00    +0.038 A 
ATOM      7  C   LIG    1       13.608   5.465   5.592  0.00  0.00    +0.090 A 
ATOM      8  N   LIG    1       13.537   6.506   6.505  0.00  0.00    -0.236 NA
ATOM      9  C   LIG    1       12.714   7.336   5.995  0.00  0.00    +0.200 A 
ENDROOT
BRANCH   5  10
ATOM     10  C   LIG    1       15.072   2.148   4.642  0.00  0.00    +0.020 A 
ATOM     11  C   LIG    1       15.129   1.219   3.619  0.00  0.00    +0.117 A 
ATOM     12  N   LIG    1       15.932   0.196   4.036  0.00  0.00    -0.268 N 
ATOM     13  N   LIG    1       16.471   0.434   5.250  0.00  0.00    -0.179 NA
ATOM     14  C   LIG    1       15.943   1.609   5.615  0.00  0.00    +0.142 A 
BRANCH  12  15
ATOM     15  C   LIG    1       16.321  -0.993   3.276  0.00  0.00    +0.110 C 
ATOM     16  C   LIG    1       15.275  -1.450   2.239  0.00  0.00    +0.042 C 
ATOM     17  C   LIG    1       14.066  -2.107   2.902  0.00  0.00    +0.083 C 
ATOM     18  N   LIG    1       14.474  -3.222   3.752  0.00  0.00    -0.316 NA
ATOM     19  H   LIG    1       13.650  -3.631   4.193  0.00  0.00    +0.122 HD
ATOM     20  C   LIG    1       15.409  -2.794   4.795  0.00  0.00    +0.083 C 
ATOM     21  C   LIG    1       16.666  -2.186   4.181  0.00  0.00    +0.042 C 
ENDBRANCH  12  15
ENDBRANCH   5  10
BRANCH   1  22
ATOM     22  C   LIG    1       11.087   7.599   4.103  0.00  0.00    +0.158 C 
BRANCH  22  26
ATOM     23  C   LIG    1       11.666   7.946  -0.176  0.00  0.00    +0.162 A 
ATOM     24  C   LIG    1       12.355   8.799   0.717  0.00  0.00    +0.162 A 
ATOM     25  C   LIG    1       12.104   8.687   2.092  0.00  0.00    +0.054 A 
ATOM     26  C   LIG    1       11.252   7.712   2.610  0.00  0.00    -0.024 A 
ATOM     27  C   LIG    1       10.550   6.903   1.722  0.00  0.00    +0.009 A 
ATOM     28  C   LIG    1       10.715   7.058   0.345  0.00  0.00    +0.050 A 
BRANCH  24  29
ATOM     29  O   LIG    1       13.254   9.719   0.223  0.00  0.00    -0.491 OA
ATOM     30  C   LIG    1       14.034  10.424   1.201  0.00  0.00    +0.277 C 
ENDBRANCH  24  29
BRANCH  23  31
ATOM     31  O   LIG    1       11.955   8.015  -1.519  0.00  0.00    -0.484 OA
BRANCH  31  32
ATOM     32  C   LIG    1       11.683   6.873  -2.355  0.00  0.00    +0.266 C 
BRANCH  32  36
ATOM     33  C   LIG    1       15.150   4.475  -2.931  0.00  0.00    +0.214 A 
ATOM     34  N   LIG    1       14.750   4.745  -1.673  0.00  0.00    -0.221 NA
ATOM     35  C   LIG    1       13.648   5.514  -1.531  0.00  0.00    +0.121 A 
ATOM     36  C   LIG    1       12.904   6.021  -2.590  0.00  0.00    +0.008 A 
ATOM     37  C   LIG    1       13.312   5.661  -3.880  0.00  0.00    +0.013 A 
ATOM     38  C   LIG    1       14.463   4.894  -4.058  0.00  0.00    +0.067 A 
BRANCH  33  40
ATOM     39  C   LIG    1       16.928   3.372  -1.907  0.00  0.00    +0.279 C 
ATOM     40  O   LIG    1       16.306   3.747  -3.135  0.00  0.00    -0.480 OA
ENDBRANCH  33  40
ENDBRANCH  32  36
ENDBRANCH  31  32
ENDBRANCH  23  31
ENDBRANCH  22  26
ENDBRANCH   1  22
TORSDOF 9
