REMARK  Name = pdb/CHEMBL3978653.pdb
REMARK                            x       y       z     vdW  Elec       q    Type
REMARK                         _______ _______ _______ _____ _____    ______ ____
ROOT
ATOM      1  C   LIG    1        1.540   5.203   0.452  0.00  0.00    +0.027 A 
ATOM      2  C   LIG    1        2.106   6.252   1.170  0.00  0.00    +0.060 A 
ATOM      3  C   LIG    1        1.293   7.152   1.829  0.00  0.00    +0.157 A 
ATOM      4  N   LIG    1       -0.055   7.048   1.790  0.00  0.00    -0.236 NA
ATOM      5  C   LIG    1       -0.588   6.007   1.108  0.00  0.00    +0.114 A 
ATOM      6  C   LIG    1        0.157   5.065   0.420  0.00  0.00    +0.031 A 
ENDROOT
BRANCH   1   7
ATOM      7  C   LIG    1        2.486   4.267  -0.199  0.00  0.00    +0.195 C 
ATOM      8  O   LIG    1        3.577   4.057   0.354  0.00  0.00    -0.287 OA
BRANCH   7  16
ATOM      9  N   LIG    1        1.402   3.310  -3.552  0.00  0.00    -0.343 N 
ATOM     10  C   LIG    1        2.146   2.192  -3.231  0.00  0.00    +0.053 A 
ATOM     11  C   LIG    1        2.425   1.016  -3.934  0.00  0.00    +0.046 A 
ATOM     12  C   LIG    1        3.291   0.130  -3.315  0.00  0.00    +0.113 A 
ATOM     13  N   LIG    1        3.885   0.338  -2.124  0.00  0.00    -0.263 NA
ATOM     14  C   LIG    1        3.607   1.479  -1.449  0.00  0.00    +0.121 A 
ATOM     15  C   LIG    1        2.701   2.418  -1.969  0.00  0.00    +0.029 A 
ATOM     16  C   LIG    1        2.162   3.647  -1.469  0.00  0.00    +0.049 A 
ATOM     17  C   LIG    1        1.326   4.143  -2.460  0.00  0.00    +0.099 A 
BRANCH   9  19
ATOM     18  C   LIG    1        1.949   3.718  -5.942  0.00  0.00    +0.030 C 
ATOM     19  C   LIG    1        0.860   3.658  -4.867  0.00  0.00    +0.081 C 
ATOM     20  C   LIG    1       -0.289   2.748  -5.291  0.00  0.00    +0.030 C 
ENDBRANCH   9  19
ENDBRANCH   7  16
ENDBRANCH   1   7
BRANCH   3  21
ATOM     21  N   LIG    1        1.766   8.291   2.494  0.00  0.00    -0.197 NA
ATOM     22  C   LIG    1        2.895   8.280   3.123  0.00  0.00    +0.195 C 
BRANCH  22  23
ATOM     23  O   LIG    1        3.701   7.197   3.214  0.00  0.00    -0.495 OA
ATOM     24  H   LIG    1        4.478   7.354   3.785  0.00  0.00    +0.293 HD
ENDBRANCH  22  23
BRANCH  22  25
ATOM     25  C   LIG    1        3.432   9.497   3.821  0.00  0.00    +0.150 C 
BRANCH  25  26
ATOM     26  C   LIG    1        3.685   9.206   5.274  0.00  0.00    +0.050 A 
ATOM     27  N   LIG    1        4.891   8.660   5.585  0.00  0.00    -0.258 NA
ATOM     28  C   LIG    1        5.119   8.383   6.896  0.00  0.00    +0.131 A 
ATOM     29  C   LIG    1        4.189   8.590   7.902  0.00  0.00    +0.059 A 
ATOM     30 CL   LIG    1        4.551   8.212   9.536  0.00  0.00    -0.082 Cl
ATOM     31  C   LIG    1        2.950   9.113   7.556  0.00  0.00    +0.023 A 
ATOM     32  C   LIG    1        2.689   9.423   6.222  0.00  0.00    +0.025 A 
ENDBRANCH  25  26
ENDBRANCH  22  25
ENDBRANCH   3  21
TORSDOF 7
