REMARK  Name = pdb/CHEMBL3898652.pdb
REMARK                            x       y       z     vdW  Elec       q    Type
REMARK                         _______ _______ _______ _____ _____    ______ ____
ROOT
ATOM      1  C   LIG    1       -1.178  -1.517  -0.074  0.00  0.00    +0.149 A 
ATOM      2  N   LIG    1       -2.140  -0.589  -0.146  0.00  0.00    -0.160 NA
ATOM      3  N   LIG    1       -3.307  -1.269  -0.186  0.00  0.00    -0.218 N 
ATOM      4  C   LIG    1       -3.109  -2.627   0.091  0.00  0.00    +0.129 A 
ATOM      5  C   LIG    1       -1.741  -2.806   0.052  0.00  0.00    +0.078 A 
ENDROOT
BRANCH   3   6
ATOM      6  C   LIG    1       -4.501  -0.530  -0.409  0.00  0.00    +0.067 A 
ATOM      7  C   LIG    1       -5.620  -1.094  -1.027  0.00  0.00    +0.028 A 
ATOM      8  C   LIG    1       -6.748  -0.297  -1.268  0.00  0.00    +0.002 A 
ATOM      9  C   LIG    1       -6.768   1.047  -0.887  0.00  0.00    +0.000 A 
ATOM     10  C   LIG    1       -5.651   1.615  -0.284  0.00  0.00    +0.002 A 
ATOM     11  C   LIG    1       -4.516   0.836  -0.062  0.00  0.00    +0.028 A 
ENDBRANCH   3   6
BRANCH   4  12
ATOM     12  N   LIG    1       -4.062  -3.603   0.425  0.00  0.00    -0.266 N 
ATOM     13  H   LIG    1       -5.037  -3.399   0.251  0.00  0.00    +0.157 HD
ATOM     14  C   LIG    1       -3.713  -4.803   1.164  0.00  0.00    +0.251 C 
ATOM     15  O   LIG    1       -2.575  -5.000   1.533  0.00  0.00    -0.270 OA
BRANCH  14  16
ATOM     16  C   LIG    1       -4.798  -5.735   1.573  0.00  0.00    +0.056 A 
ATOM     17  C   LIG    1       -5.966  -5.928   0.843  0.00  0.00    +0.054 A 
ATOM     18 CL   LIG    1       -6.262  -5.191  -0.689  0.00  0.00    -0.083 Cl
ATOM     19  C   LIG    1       -6.963  -6.760   1.351  0.00  0.00    +0.041 A 
ATOM     20  C   LIG    1       -6.805  -7.422   2.581  0.00  0.00    +0.052 A 
ATOM     21 CL   LIG    1       -8.243  -8.182   3.178  0.00  0.00    -0.083 Cl
ATOM     22  C   LIG    1       -5.594  -7.357   3.297  0.00  0.00    +0.022 A 
ATOM     23  C   LIG    1       -4.612  -6.474   2.769  0.00  0.00    +0.026 A 
BRANCH  22  24
ATOM     24  C   LIG    1       -5.301  -8.107   4.554  0.00  0.00    +0.107 A 
ATOM     25  C   LIG    1       -5.767  -9.395   4.845  0.00  0.00    +0.149 A 
ATOM     26  F   LIG    1       -6.449 -10.121   3.949  0.00  0.00    -0.203 F 
ATOM     27  C   LIG    1       -5.481  -9.988   6.071  0.00  0.00    +0.042 A 
ATOM     28  C   LIG    1       -4.663  -9.324   6.970  0.00  0.00    +0.023 A 
ATOM     29  C   LIG    1       -4.169  -8.085   6.598  0.00  0.00    +0.111 A 
ATOM     30  N   LIG    1       -4.477  -7.462   5.430  0.00  0.00    -0.252 NA
ENDBRANCH  22  24
ENDBRANCH  14  16
ENDBRANCH   4  12
BRANCH   1  31
ATOM     31  C   LIG    1        0.234  -1.146  -0.095  0.00  0.00    +0.236 C 
ATOM     32  N   LIG    1        1.115  -1.983  -0.506  0.00  0.00    -0.243 NA
BRANCH  32  33
ATOM     33  C   LIG    1        2.543  -1.663  -0.580  0.00  0.00    +0.137 C 
ATOM     34  C   LIG    1        3.319  -2.271   0.588  0.00  0.00    +0.186 C 
ATOM     35  O   LIG    1        3.694  -3.610   0.221  0.00  0.00    -0.378 OA
ATOM     36  C   LIG    1        3.401  -3.793  -1.170  0.00  0.00    +0.162 C 
ATOM     37  C   LIG    1        3.161  -2.414  -1.746  0.00  0.00    +0.057 C 
ENDBRANCH  32  33
BRANCH  31  38
ATOM     38  O   LIG    1        0.469   0.110   0.338  0.00  0.00    -0.491 OA
ATOM     39  H   LIG    1        1.380   0.395   0.228  0.00  0.00    +0.294 HD
ENDBRANCH  31  38
ENDBRANCH   1  31
TORSDOF 7
