REMARK  Name = pdb/CHEMBL456976.pdb
REMARK                            x       y       z     vdW  Elec       q    Type
REMARK                         _______ _______ _______ _____ _____    ______ ____
ROOT
ATOM      1  C   LIG    1        2.746  -2.868  -0.937  0.00  0.00    +0.217 A 
ATOM      2  N   LIG    1        1.847  -3.690  -1.501  0.00  0.00    -0.198 NA
ATOM      3  C   LIG    1        2.139  -5.012  -1.624  0.00  0.00    +0.143 A 
ATOM      4  C   LIG    1        3.386  -5.492  -1.242  0.00  0.00    +0.076 A 
ATOM      5 BR   LIG    1        3.910  -7.298  -1.417  0.00  0.00    -0.045 Br
ATOM      6  C   LIG    1        4.243  -4.581  -0.681  0.00  0.00    +0.133 A 
ATOM      7  N   LIG    1        3.944  -3.284  -0.504  0.00  0.00    -0.222 NA
ENDROOT
BRANCH   1   8
ATOM      8  N   LIG    1        2.410  -1.534  -0.815  0.00  0.00    -0.307 N 
ATOM      9  H   LIG    1        1.805  -1.244  -1.572  0.00  0.00    +0.149 HD
BRANCH   8  11
ATOM     10  C   LIG    1        4.421  -0.233  -1.439  0.00  0.00    +0.033 C 
ATOM     11  C   LIG    1        3.415  -0.592  -0.341  0.00  0.00    +0.100 C 
BRANCH  11  12
ATOM     12  C   LIG    1        2.714   0.629   0.255  0.00  0.00    -0.027 A 
ATOM     13  C   LIG    1        2.358   1.758  -0.504  0.00  0.00    +0.008 A 
ATOM     14  C   LIG    1        1.708   2.845   0.091  0.00  0.00    +0.038 A 
ATOM     15  C   LIG    1        1.400   2.807   1.445  0.00  0.00    +0.123 A 
ATOM     16  F   LIG    1        0.760   3.841   2.007  0.00  0.00    -0.205 F 
ATOM     17  C   LIG    1        1.743   1.709   2.221  0.00  0.00    +0.038 A 
ATOM     18  C   LIG    1        2.394   0.625   1.628  0.00  0.00    +0.008 A 
ENDBRANCH  11  12
ENDBRANCH   8  11
ENDBRANCH   1   8
BRANCH   3  19
ATOM     19  N   LIG    1        1.179  -5.941  -2.099  0.00  0.00    -0.282 N 
ATOM     20  H   LIG    1        1.538  -6.887  -2.147  0.00  0.00    +0.155 HD
BRANCH  19  21
ATOM     21  C   LIG    1       -0.172  -5.857  -2.095  0.00  0.00    +0.146 A 
ATOM     22  N   LIG    1       -0.973  -6.925  -2.058  0.00  0.00    -0.158 NA
ATOM     23  N   LIG    1       -2.212  -6.402  -1.995  0.00  0.00    -0.280 N 
ATOM     24  H   LIG    1       -3.002  -7.034  -1.912  0.00  0.00    +0.189 HD
ATOM     25  C   LIG    1       -2.226  -5.043  -2.069  0.00  0.00    +0.041 A 
ATOM     26  C   LIG    1       -0.908  -4.661  -2.130  0.00  0.00    +0.068 A 
BRANCH  25  27
ATOM     27  C   LIG    1       -3.432  -4.133  -2.080  0.00  0.00    +0.037 C 
ATOM     28  C   LIG    1       -3.382  -2.904  -2.967  0.00  0.00    +0.010 C 
ATOM     29  C   LIG    1       -3.286  -2.744  -1.489  0.00  0.00    +0.010 C 
ENDBRANCH  25  27
ENDBRANCH  19  21
ENDBRANCH   3  19
TORSDOF 6
