REMARK  Name = pdb/CHEMBL3979739.pdb
REMARK                            x       y       z     vdW  Elec       q    Type
REMARK                         _______ _______ _______ _____ _____    ______ ____
ROOT
ATOM      1  C   LIG    1        4.012   0.844  -0.636  0.00  0.00    +0.149 A 
ATOM      2  N   LIG    1        5.110   1.569  -0.849  0.00  0.00    -0.160 NA
ATOM      3  N   LIG    1        4.733   2.871  -0.815  0.00  0.00    -0.218 N 
ATOM      4  C   LIG    1        3.329   2.985  -0.722  0.00  0.00    +0.129 A 
ATOM      5  C   LIG    1        2.892   1.693  -0.506  0.00  0.00    +0.078 A 
ENDROOT
BRANCH   3   6
ATOM      6  C   LIG    1        5.781   3.842  -0.872  0.00  0.00    +0.067 A 
ATOM      7  C   LIG    1        7.116   3.386  -0.880  0.00  0.00    +0.028 A 
ATOM      8  C   LIG    1        8.185   4.283  -0.894  0.00  0.00    +0.002 A 
ATOM      9  C   LIG    1        7.938   5.650  -0.907  0.00  0.00    +0.000 A 
ATOM     10  C   LIG    1        6.628   6.114  -0.909  0.00  0.00    +0.002 A 
ATOM     11  C   LIG    1        5.557   5.217  -0.889  0.00  0.00    +0.028 A 
ENDBRANCH   3   6
BRANCH   4  12
ATOM     12  N   LIG    1        2.500   4.124  -0.783  0.00  0.00    -0.266 N 
ATOM     13  H   LIG    1        2.919   5.034  -0.780  0.00  0.00    +0.157 HD
ATOM     14  C   LIG    1        1.063   4.080  -0.945  0.00  0.00    +0.251 C 
ATOM     15  O   LIG    1        0.483   2.998  -1.029  0.00  0.00    -0.270 OA
BRANCH  14  16
ATOM     16  C   LIG    1        0.276   5.336  -0.998  0.00  0.00    +0.056 A 
ATOM     17  C   LIG    1        0.752   6.542  -1.503  0.00  0.00    +0.054 A 
ATOM     18 CL   LIG    1        2.335   6.744  -2.155  0.00  0.00    -0.083 Cl
ATOM     19  C   LIG    1       -0.077   7.667  -1.513  0.00  0.00    +0.041 A 
ATOM     20  C   LIG    1       -1.403   7.599  -1.051  0.00  0.00    +0.052 A 
ATOM     21 CL   LIG    1       -2.258   9.107  -1.024  0.00  0.00    -0.083 Cl
ATOM     22  C   LIG    1       -1.953   6.389  -0.582  0.00  0.00    +0.022 A 
ATOM     23  C   LIG    1       -1.068   5.277  -0.548  0.00  0.00    +0.026 A 
BRANCH  22  24
ATOM     24  C   LIG    1       -3.379   6.237  -0.167  0.00  0.00    +0.107 A 
ATOM     25  C   LIG    1       -3.796   5.432   0.896  0.00  0.00    +0.149 A 
ATOM     26  F   LIG    1       -2.911   4.763   1.650  0.00  0.00    -0.203 F 
ATOM     27  C   LIG    1       -5.152   5.301   1.191  0.00  0.00    +0.042 A 
ATOM     28  C   LIG    1       -6.084   5.986   0.423  0.00  0.00    +0.023 A 
ATOM     29  C   LIG    1       -5.610   6.775  -0.609  0.00  0.00    +0.111 A 
ATOM     30  N   LIG    1       -4.296   6.896  -0.928  0.00  0.00    -0.252 NA
ENDBRANCH  22  24
ENDBRANCH  14  16
ENDBRANCH   4  12
BRANCH   1  31
ATOM     31  C   LIG    1        4.052  -0.618  -0.588  0.00  0.00    +0.236 C 
ATOM     32  N   LIG    1        5.163  -1.243  -0.718  0.00  0.00    -0.243 NA
BRANCH  31  33
ATOM     33  O   LIG    1        2.845  -1.199  -0.418  0.00  0.00    -0.491 OA
ATOM     34  H   LIG    1        2.881  -2.149  -0.611  0.00  0.00    +0.294 HD
ENDBRANCH  31  33
BRANCH  32  35
ATOM     35  C   LIG    1        5.222  -2.695  -0.692  0.00  0.00    +0.204 C 
BRANCH  35  36
ATOM     36  C   LIG    1        5.007  -3.225  -2.062  0.00  0.00    +0.101 A 
ATOM     37  N   LIG    1        3.736  -3.451  -2.553  0.00  0.00    -0.219 NA
ATOM     38  C   LIG    1        3.959  -3.853  -3.787  0.00  0.00    +0.307 A 
ATOM     39  O   LIG    1        5.269  -3.921  -4.150  0.00  0.00    -0.450 OA
ATOM     40  C   LIG    1        5.936  -3.511  -3.037  0.00  0.00    +0.222 A 
ENDBRANCH  35  36
ENDBRANCH  32  35
ENDBRANCH   1  31
TORSDOF 8
