REMARK  Name = pdb/CHEMBL3675952.pdb
REMARK                            x       y       z     vdW  Elec       q    Type
REMARK                         _______ _______ _______ _____ _____    ______ ____
ROOT
ATOM      1  C   LIG    1        9.230  -0.650  -3.155  0.00  0.00    +0.105 C 
ATOM      2  N   LIG    1        8.648  -1.978  -3.436  0.00  0.00    -0.308 N 
ATOM      3  C   LIG    1        9.377  -3.015  -2.709  0.00  0.00    +0.107 C 
ATOM      4  C   LIG    1       10.725  -2.367  -2.410  0.00  0.00    +0.021 C 
ATOM      5  C   LIG    1       10.355  -0.920  -2.147  0.00  0.00    +0.029 C 
ENDROOT
BRANCH   2   6
ATOM      6  C   LIG    1        7.623  -2.247  -4.339  0.00  0.00    +0.126 A 
ATOM      7  N   LIG    1        7.172  -3.482  -4.483  0.00  0.00    -0.212 NA
ATOM      8  C   LIG    1        6.103  -3.688  -5.330  0.00  0.00    +0.170 A 
ATOM      9  C   LIG    1        5.453  -4.826  -5.790  0.00  0.00    +0.100 A 
ATOM     10  C   LIG    1        4.384  -4.334  -6.570  0.00  0.00    +0.150 A 
ATOM     11  N   LIG    1        4.373  -3.011  -6.673  0.00  0.00    -0.173 NA
ATOM     12  N   LIG    1        5.455  -2.622  -5.966  0.00  0.00    -0.221 N 
ATOM     13  C   LIG    1        5.960  -1.341  -5.878  0.00  0.00    +0.118 A 
ATOM     14  C   LIG    1        7.040  -1.100  -5.137  0.00  0.00    +0.063 A 
BRANCH   9  15
ATOM     15  C   LIG    1        5.738  -6.229  -5.588  0.00  0.00    +0.249 C 
ATOM     16  N   LIG    1        6.876  -6.528  -4.885  0.00  0.00    -0.308 N 
ATOM     17  H   LIG    1        7.431  -5.746  -4.528  0.00  0.00    +0.149 HD
ATOM     18  O   LIG    1        5.002  -7.103  -6.071  0.00  0.00    -0.270 OA
BRANCH  16  19
ATOM     19  C   LIG    1        7.305  -7.875  -4.688  0.00  0.00    +0.073 C 
ATOM     20  C   LIG    1        6.655  -8.717  -3.623  0.00  0.00    +0.024 C 
ATOM     21  C   LIG    1        8.087  -8.295  -3.480  0.00  0.00    +0.024 C 
ENDBRANCH  16  19
ENDBRANCH   9  15
ENDBRANCH   2   6
BRANCH   1  24
ATOM     22  C   LIG    1        7.500   2.649  -2.194  0.00  0.00    +0.124 A 
ATOM     23  C   LIG    1        8.412   1.734  -2.747  0.00  0.00    +0.051 A 
ATOM     24  C   LIG    1        8.242   0.342  -2.564  0.00  0.00    -0.021 A 
ATOM     25  C   LIG    1        7.158  -0.104  -1.794  0.00  0.00    +0.044 A 
ATOM     26  C   LIG    1        6.258   0.805  -1.267  0.00  0.00    +0.127 A 
ATOM     27  F   LIG    1        5.215   0.369  -0.552  0.00  0.00    -0.205 F 
ATOM     28  C   LIG    1        6.422   2.166  -1.455  0.00  0.00    +0.084 A 
BRANCH  22  29
ATOM     29  O   LIG    1        7.759   3.986  -2.379  0.00  0.00    -0.490 OA
BRANCH  29  30
ATOM     30  C   LIG    1        6.624   4.859  -2.245  0.00  0.00    +0.257 C 
BRANCH  30  31
ATOM     31  C   LIG    1        7.075   6.316  -2.224  0.00  0.00    +0.200 C 
BRANCH  31  33
ATOM     32  C   LIG    1        6.320   8.545  -2.053  0.00  0.00    +0.194 C 
ATOM     33  O   LIG    1        5.937   7.174  -2.096  0.00  0.00    -0.380 OA
ENDBRANCH  31  33
ENDBRANCH  30  31
ENDBRANCH  29  30
ENDBRANCH  22  29
ENDBRANCH   1  24
TORSDOF 8
