REMARK  Name = pdb/CHEMBL3952307.pdb
REMARK                            x       y       z     vdW  Elec       q    Type
REMARK                         _______ _______ _______ _____ _____    ______ ____
ROOT
ATOM      1  C   LIG    1        2.621  -0.127  -1.721  0.00  0.00    +0.131 C 
ATOM      2  N   LIG    1        3.742  -0.595  -2.301  0.00  0.00    -0.141 NA
ATOM      3  N   LIG    1        4.081   0.364  -3.199  0.00  0.00    -0.201 N 
ATOM      4  C   LIG    1        3.368   1.546  -2.967  0.00  0.00    +0.185 C 
ATOM      5  C   LIG    1        2.331   1.192  -2.138  0.00  0.00    +0.056 C 
ENDROOT
BRANCH   3   6
ATOM      6  C   LIG    1        5.089   0.109  -4.169  0.00  0.00    +0.052 A 
ATOM      7  C   LIG    1        6.069  -0.862  -3.922  0.00  0.00    +0.025 A 
ATOM      8  C   LIG    1        7.060  -1.115  -4.875  0.00  0.00    +0.002 A 
ATOM      9  C   LIG    1        7.071  -0.415  -6.081  0.00  0.00    +0.000 A 
ATOM     10  C   LIG    1        6.085   0.531  -6.342  0.00  0.00    +0.002 A 
ATOM     11  C   LIG    1        5.086   0.779  -5.396  0.00  0.00    +0.025 A 
ENDBRANCH   3   6
BRANCH   4  12
ATOM     12  N   LIG    1        3.712   2.823  -3.413  0.00  0.00    -0.282 N 
ATOM     13  H   LIG    1        4.570   2.901  -3.952  0.00  0.00    +0.152 HD
ATOM     14  C   LIG    1        3.007   4.037  -3.091  0.00  0.00    +0.247 C 
ATOM     15  O   LIG    1        2.031   4.026  -2.365  0.00  0.00    -0.270 OA
BRANCH  14  16
ATOM     16  C   LIG    1        3.576   5.307  -3.624  0.00  0.00    +0.056 A 
ATOM     17  C   LIG    1        4.278   5.379  -4.831  0.00  0.00    +0.056 A 
ATOM     18 CL   LIG    1        4.449   4.077  -5.935  0.00  0.00    -0.083 Cl
ATOM     19  C   LIG    1        4.859   6.581  -5.234  0.00  0.00    +0.059 A 
ATOM     20  C   LIG    1        4.701   7.718  -4.468  0.00  0.00    +0.134 A 
ATOM     21  F   LIG    1        5.337   8.818  -4.900  0.00  0.00    -0.205 F 
ATOM     22  C   LIG    1        3.935   7.732  -3.294  0.00  0.00    +0.039 A 
ATOM     23  C   LIG    1        3.396   6.487  -2.869  0.00  0.00    +0.027 A 
BRANCH  22  24
ATOM     24  C   LIG    1        3.703   8.969  -2.522  0.00  0.00    +0.109 A 
ATOM     25  C   LIG    1        3.629  10.246  -3.091  0.00  0.00    +0.149 A 
ATOM     26  F   LIG    1        3.740  10.444  -4.413  0.00  0.00    -0.203 F 
ATOM     27  C   LIG    1        3.386  11.352  -2.288  0.00  0.00    +0.042 A 
ATOM     28  C   LIG    1        3.198  11.170  -0.926  0.00  0.00    +0.023 A 
ATOM     29  C   LIG    1        3.265   9.880  -0.427  0.00  0.00    +0.111 A 
ATOM     30  N   LIG    1        3.513   8.785  -1.187  0.00  0.00    -0.252 NA
ENDBRANCH  22  24
ENDBRANCH  14  16
ENDBRANCH   4  12
BRANCH   1  31
ATOM     31  C   LIG    1        1.936  -0.939  -0.725  0.00  0.00    +0.233 C 
ATOM     32  N   LIG    1        0.784  -0.610  -0.271  0.00  0.00    -0.245 NA
BRANCH  31  33
ATOM     33  O   LIG    1        2.634  -2.030  -0.332  0.00  0.00    -0.491 OA
ATOM     34  H   LIG    1        3.484  -2.042  -0.818  0.00  0.00    +0.294 HD
ENDBRANCH  31  33
BRANCH  32  35
ATOM     35  C   LIG    1        0.200  -1.514   0.725  0.00  0.00    +0.182 C 
BRANCH  35  36
ATOM     36  C   LIG    1       -0.763  -0.805   1.640  0.00  0.00    -0.005 A 
ATOM     37  C   LIG    1       -1.575   0.221   1.183  0.00  0.00    +0.140 A 
ATOM     38  N   LIG    1       -2.518   0.817   1.946  0.00  0.00    -0.157 NA
ATOM     39  N   LIG    1       -2.708   0.392   3.222  0.00  0.00    -0.158 NA
ATOM     40  C   LIG    1       -1.938  -0.603   3.706  0.00  0.00    +0.135 A 
ATOM     41  C   LIG    1       -0.952  -1.220   2.958  0.00  0.00    +0.028 A 
ENDBRANCH  35  36
ENDBRANCH  32  35
ENDBRANCH   1  31
TORSDOF 8
