REMARK  Name = pdb/CHEMBL3675964.pdb
REMARK                            x       y       z     vdW  Elec       q    Type
REMARK                         _______ _______ _______ _____ _____    ______ ____
ROOT
ATOM      1  C   LIG    1        5.964   0.531  -1.294  0.00  0.00    +0.109 C 
ATOM      2  N   LIG    1        5.788   0.375   0.177  0.00  0.00    -0.308 N 
ATOM      3  C   LIG    1        5.745  -1.048   0.531  0.00  0.00    +0.107 C 
ATOM      4  C   LIG    1        5.674  -1.790  -0.794  0.00  0.00    +0.021 C 
ATOM      5  C   LIG    1        6.421  -0.871  -1.739  0.00  0.00    +0.029 C 
ENDROOT
BRANCH   2   6
ATOM      6  C   LIG    1        5.214   1.352   0.985  0.00  0.00    +0.126 A 
ATOM      7  N   LIG    1        4.824   2.488   0.448  0.00  0.00    -0.212 NA
ATOM      8  C   LIG    1        4.247   3.429   1.260  0.00  0.00    +0.170 A 
ATOM      9  C   LIG    1        3.821   4.722   1.014  0.00  0.00    +0.100 A 
ATOM     10  C   LIG    1        3.305   5.162   2.251  0.00  0.00    +0.150 A 
ATOM     11  N   LIG    1        3.395   4.246   3.215  0.00  0.00    -0.173 NA
ATOM     12  N   LIG    1        4.012   3.200   2.616  0.00  0.00    -0.221 N 
ATOM     13  C   LIG    1        4.433   2.020   3.205  0.00  0.00    +0.118 A 
ATOM     14  C   LIG    1        5.053   1.089   2.472  0.00  0.00    +0.063 A 
BRANCH   9  15
ATOM     15  C   LIG    1        3.894   5.465  -0.220  0.00  0.00    +0.247 C 
ATOM     16  N   LIG    1        4.401   4.797  -1.285  0.00  0.00    -0.325 N 
ATOM     17  H   LIG    1        4.533   5.281  -2.161  0.00  0.00    +0.145 HD
ATOM     18  H   LIG    1        4.747   3.842  -1.172  0.00  0.00    +0.145 HD
ATOM     19  O   LIG    1        3.531   6.641  -0.318  0.00  0.00    -0.270 OA
ENDBRANCH   9  15
ENDBRANCH   2   6
BRANCH   1  21
ATOM     20  C   LIG    1        6.926   2.211  -2.988  0.00  0.00    +0.126 A 
ATOM     21  C   LIG    1        6.985   1.580  -1.718  0.00  0.00    +0.017 A 
ATOM     22  C   LIG    1        8.052   1.911  -0.856  0.00  0.00    +0.047 A 
ATOM     23  C   LIG    1        8.999   2.859  -1.224  0.00  0.00    +0.124 A 
ATOM     24  F   LIG    1        9.994   3.168  -0.383  0.00  0.00    -0.205 F 
ATOM     25  C   LIG    1        8.941   3.475  -2.460  0.00  0.00    +0.042 A 
ATOM     26  C   LIG    1        7.922   3.135  -3.347  0.00  0.00    +0.049 A 
BRANCH  20  27
ATOM     27  O   LIG    1        5.934   1.826  -3.861  0.00  0.00    -0.489 OA
BRANCH  27  28
ATOM     28  C   LIG    1        5.470   2.804  -4.810  0.00  0.00    +0.257 C 
BRANCH  28  29
ATOM     29  C   LIG    1        4.981   2.114  -6.086  0.00  0.00    +0.200 C 
BRANCH  29  31
ATOM     30  C   LIG    1        4.083   2.513  -8.237  0.00  0.00    +0.194 C 
ATOM     31  O   LIG    1        4.544   3.101  -7.025  0.00  0.00    -0.380 OA
ENDBRANCH  29  31
ENDBRANCH  28  29
ENDBRANCH  27  28
ENDBRANCH  20  27
ENDBRANCH   1  21
TORSDOF 7
