REMARK  Name = pdb/CHEMBL3671131.pdb
REMARK                            x       y       z     vdW  Elec       q    Type
REMARK                         _______ _______ _______ _____ _____    ______ ____
ROOT
ATOM      1  C   LIG    1        0.502  -4.642   1.099  0.00  0.00    +0.101 A 
ATOM      2  C   LIG    1        1.018  -5.930   1.053  0.00  0.00    +0.170 A 
ATOM      3  N   LIG    1        2.277  -6.433   0.800  0.00  0.00    -0.212 NA
ATOM      4  C   LIG    1        2.425  -7.745   0.770  0.00  0.00    +0.126 A 
ATOM      5  C   LIG    1        1.278  -8.684   1.080  0.00  0.00    +0.063 A 
ATOM      6  C   LIG    1        0.080  -8.145   1.312  0.00  0.00    +0.118 A 
ATOM      7  N   LIG    1       -0.075  -6.774   1.297  0.00  0.00    -0.221 N 
ATOM      8  N   LIG    1       -1.224  -6.096   1.500  0.00  0.00    -0.173 NA
ATOM      9  C   LIG    1       -0.871  -4.821   1.377  0.00  0.00    +0.150 A 
ENDROOT
BRANCH   4  10
ATOM     10  N   LIG    1        3.653  -8.313   0.445  0.00  0.00    -0.308 N 
ATOM     11  C   LIG    1        4.862  -7.526   0.138  0.00  0.00    +0.108 C 
ATOM     12  C   LIG    1        5.482  -8.308  -1.033  0.00  0.00    +0.029 C 
ATOM     13  C   LIG    1        5.186  -9.751  -0.670  0.00  0.00    +0.021 C 
ATOM     14  C   LIG    1        3.773  -9.665  -0.114  0.00  0.00    +0.107 C 
BRANCH  11  15
ATOM     15  C   LIG    1        5.783  -7.408   1.346  0.00  0.00    +0.011 A 
ATOM     16  C   LIG    1        7.005  -6.723   1.248  0.00  0.00    +0.129 A 
ATOM     17  F   LIG    1        7.406  -6.232   0.067  0.00  0.00    -0.205 F 
ATOM     18  C   LIG    1        7.832  -6.522   2.357  0.00  0.00    +0.041 A 
ATOM     19  C   LIG    1        7.475  -7.057   3.592  0.00  0.00    +0.041 A 
ATOM     20  C   LIG    1        6.294  -7.778   3.698  0.00  0.00    +0.124 A 
ATOM     21  F   LIG    1        5.964  -8.337   4.869  0.00  0.00    -0.205 F 
ATOM     22  C   LIG    1        5.444  -7.933   2.605  0.00  0.00    +0.046 A 
ENDBRANCH  11  15
ENDBRANCH   4  10
BRANCH   1  25
ATOM     23  N   LIG    1        2.481  -3.387   0.645  0.00  0.00    -0.266 N 
ATOM     24  H   LIG    1        2.906  -4.307   0.634  0.00  0.00    +0.157 HD
ATOM     25  C   LIG    1        1.132  -3.346   0.902  0.00  0.00    +0.254 C 
ATOM     26  O   LIG    1        0.431  -2.337   0.976  0.00  0.00    -0.270 OA
BRANCH  23  29
ATOM     27  C   LIG    1        5.306  -3.770   0.132  0.00  0.00    +0.047 C 
ATOM     28  C   LIG    1        4.659  -2.425   0.185  0.00  0.00    -0.010 A 
ATOM     29  C   LIG    1        3.289  -2.257   0.422  0.00  0.00    +0.128 A 
ATOM     30  N   LIG    1        2.733  -1.031   0.449  0.00  0.00    -0.240 NA
ATOM     31  C   LIG    1        3.520   0.049   0.262  0.00  0.00    +0.113 A 
ATOM     32  C   LIG    1        4.878  -0.024   0.042  0.00  0.00    +0.020 A 
ATOM     33  C   LIG    1        5.454  -1.284   0.002  0.00  0.00    +0.008 A 
ENDBRANCH  23  29
ENDBRANCH   1  25
TORSDOF 4
