REMARK  Name = pdb/CHEMBL3661491.pdb
REMARK                            x       y       z     vdW  Elec       q    Type
REMARK                         _______ _______ _______ _____ _____    ______ ____
ROOT
ATOM      1  C   LIG    1        4.106   1.291  -5.324  0.00  0.00    +0.042 A 
ATOM      2  C   LIG    1        5.351   1.948  -5.326  0.00  0.00    +0.038 A 
ATOM      3  C   LIG    1        5.476   3.200  -5.939  0.00  0.00    +0.052 A 
ATOM      4  C   LIG    1        4.329   3.721  -6.541  0.00  0.00    +0.134 A 
ATOM      5  N   LIG    1        3.129   3.096  -6.594  0.00  0.00    -0.261 NA
ATOM      6  C   LIG    1        3.051   1.890  -6.002  0.00  0.00    +0.122 A 
ENDROOT
BRANCH   3   7
ATOM      7  N   LIG    1        6.724   3.880  -5.907  0.00  0.00    -0.283 N 
ATOM      8  H   LIG    1        7.499   3.393  -5.466  0.00  0.00    +0.155 HD
ATOM      9  C   LIG    1        6.954   5.140  -6.447  0.00  0.00    +0.239 C 
ATOM     10  O   LIG    1        6.129   5.801  -7.077  0.00  0.00    -0.273 OA
BRANCH   9  11
ATOM     11  C   LIG    1        8.332   5.710  -6.225  0.00  0.00    +0.239 C 
BRANCH  11  12
ATOM     12  N   LIG    1        9.228   5.486  -7.344  0.00  0.00    -0.262 N 
ATOM     13  N   LIG    1       10.557   5.584  -7.134  0.00  0.00    -0.167 NA
ATOM     14  C   LIG    1       11.107   5.464  -8.362  0.00  0.00    +0.165 A 
ATOM     15  C   LIG    1       10.100   5.240  -9.339  0.00  0.00    +0.053 A 
ATOM     16  C   LIG    1        8.911   5.267  -8.652  0.00  0.00    +0.109 A 
BRANCH  14  17
ATOM     17  C   LIG    1       12.590   5.567  -8.610  0.00  0.00    +0.436 C 
ATOM     18  F   LIG    1       13.294   4.615  -7.942  0.00  0.00    -0.164 F 
ATOM     19  F   LIG    1       13.098   6.773  -8.238  0.00  0.00    -0.164 F 
ATOM     20  F   LIG    1       12.896   5.414  -9.929  0.00  0.00    -0.164 F 
ENDBRANCH  14  17
ENDBRANCH  11  12
ENDBRANCH   9  11
ENDBRANCH   3   7
BRANCH   1  21
ATOM     21  C   LIG    1        3.925  -0.014  -4.639  0.00  0.00    +0.197 C 
ATOM     22  O   LIG    1        4.894  -0.776  -4.555  0.00  0.00    -0.287 OA
BRANCH  21  30
ATOM     23  N   LIG    1        0.561  -0.164  -3.175  0.00  0.00    -0.329 N 
ATOM     24  C   LIG    1        0.822  -1.508  -3.273  0.00  0.00    +0.145 A 
ATOM     25  N   LIG    1       -0.003  -2.494  -2.879  0.00  0.00    -0.218 NA
ATOM     26  C   LIG    1        0.505  -3.709  -3.131  0.00  0.00    +0.223 A 
ATOM     27  N   LIG    1        1.672  -4.007  -3.732  0.00  0.00    -0.243 NA
ATOM     28  C   LIG    1        2.471  -2.980  -4.108  0.00  0.00    +0.124 A 
ATOM     29  C   LIG    1        2.071  -1.665  -3.863  0.00  0.00    +0.048 A 
ATOM     30  C   LIG    1        2.620  -0.360  -4.075  0.00  0.00    +0.051 A 
ATOM     31  C   LIG    1        1.671   0.536  -3.584  0.00  0.00    +0.100 A 
BRANCH  23  33
ATOM     32  C   LIG    1       -1.883   0.093  -3.617  0.00  0.00    +0.030 C 
ATOM     33  C   LIG    1       -0.689   0.450  -2.726  0.00  0.00    +0.083 C 
ATOM     34  C   LIG    1       -1.011   0.139  -1.265  0.00  0.00    +0.030 C 
ENDBRANCH  23  33
ENDBRANCH  21  30
ENDBRANCH   1  21
TORSDOF 7
