REMARK  Name = pdb/CHEMBL3676017.pdb
REMARK                            x       y       z     vdW  Elec       q    Type
REMARK                         _______ _______ _______ _____ _____    ______ ____
ROOT
ATOM      1  C   LIG    1        4.692   0.402 -11.749  0.00  0.00    +0.126 A 
ATOM      2  N   LIG    1        4.445   1.356 -10.869  0.00  0.00    -0.212 NA
ATOM      3  C   LIG    1        3.246   1.319 -10.199  0.00  0.00    +0.170 A 
ATOM      4  C   LIG    1        2.689   2.164  -9.249  0.00  0.00    +0.100 A 
ATOM      5  C   LIG    1        1.398   1.640  -9.041  0.00  0.00    +0.150 A 
ATOM      6  N   LIG    1        1.164   0.520  -9.727  0.00  0.00    -0.173 NA
ATOM      7  N   LIG    1        2.310   0.308 -10.417  0.00  0.00    -0.221 N 
ATOM      8  C   LIG    1        2.617  -0.757 -11.249  0.00  0.00    +0.118 A 
ATOM      9  C   LIG    1        3.779  -0.784 -11.912  0.00  0.00    +0.063 A 
ENDROOT
BRANCH   1  11
ATOM     10  C   LIG    1        6.096  -0.085 -13.853  0.00  0.00    +0.110 C 
ATOM     11  N   LIG    1        5.829   0.527 -12.528  0.00  0.00    -0.308 N 
ATOM     12  C   LIG    1        7.001   1.234 -12.018  0.00  0.00    +0.107 C 
ATOM     13  C   LIG    1        8.119   0.918 -12.994  0.00  0.00    +0.021 C 
ATOM     14  C   LIG    1        7.388   0.632 -14.297  0.00  0.00    +0.029 C 
BRANCH  10  16
ATOM     15  C   LIG    1        4.682  -0.833 -15.889  0.00  0.00    +0.220 A 
ATOM     16  C   LIG    1        4.982   0.096 -14.875  0.00  0.00    +0.037 A 
ATOM     17  C   LIG    1        4.191   1.260 -14.851  0.00  0.00    +0.050 A 
ATOM     18  C   LIG    1        3.151   1.427 -15.753  0.00  0.00    +0.142 A 
ATOM     19  F   LIG    1        2.390   2.526 -15.716  0.00  0.00    -0.204 F 
ATOM     20  C   LIG    1        2.911   0.440 -16.679  0.00  0.00    +0.153 A 
ATOM     21  N   LIG    1        3.654  -0.681 -16.763  0.00  0.00    -0.218 NA
BRANCH  15  23
ATOM     22  C   LIG    1        5.026  -2.809 -17.126  0.00  0.00    +0.279 C 
ATOM     23  O   LIG    1        5.470  -1.955 -16.054  0.00  0.00    -0.479 OA
ENDBRANCH  15  23
ENDBRANCH  10  16
ENDBRANCH   1  11
BRANCH   4  24
ATOM     24  C   LIG    1        3.290   3.320  -8.623  0.00  0.00    +0.249 C 
ATOM     25  N   LIG    1        4.584   3.560  -8.993  0.00  0.00    -0.309 N 
ATOM     26  H   LIG    1        4.965   2.932  -9.698  0.00  0.00    +0.149 HD
ATOM     27  O   LIG    1        2.678   4.016  -7.800  0.00  0.00    -0.270 OA
BRANCH  25  28
ATOM     28  C   LIG    1        5.398   4.613  -8.419  0.00  0.00    +0.138 C 
BRANCH  28  29
ATOM     29  C   LIG    1        6.837   4.627  -8.964  0.00  0.00    +0.157 C 
BRANCH  29  30
ATOM     30  O   LIG    1        6.841   4.816 -10.384  0.00  0.00    -0.388 OA
ATOM     31  H   LIG    1        6.487   4.005 -10.786  0.00  0.00    +0.210 HD
ENDBRANCH  29  30
BRANCH  29  32
ATOM     32  C   LIG    1        7.614   3.349  -8.625  0.00  0.00    +0.188 C 
BRANCH  32  33
ATOM     33  O   LIG    1        7.712   3.125  -7.229  0.00  0.00    -0.392 OA
ATOM     34  H   LIG    1        8.471   3.635  -6.898  0.00  0.00    +0.210 HD
ENDBRANCH  32  33
ENDBRANCH  29  32
ENDBRANCH  28  29
ENDBRANCH  25  28
ENDBRANCH   4  24
TORSDOF 9
