REMARK  Name = pdb/CHEMBL3666254.pdb
REMARK                            x       y       z     vdW  Elec       q    Type
REMARK                         _______ _______ _______ _____ _____    ______ ____
ROOT
ATOM      1  C   LIG    1        3.483  -4.230   3.343  0.00  0.00    +0.042 A 
ATOM      2  C   LIG    1        3.769  -5.445   4.000  0.00  0.00    +0.038 A 
ATOM      3  C   LIG    1        4.797  -5.493   4.955  0.00  0.00    +0.052 A 
ATOM      4  C   LIG    1        5.489  -4.314   5.215  0.00  0.00    +0.134 A 
ATOM      5  N   LIG    1        5.240  -3.136   4.609  0.00  0.00    -0.261 NA
ATOM      6  C   LIG    1        4.233  -3.123   3.713  0.00  0.00    +0.122 A 
ENDROOT
BRANCH   3   7
ATOM      7  N   LIG    1        5.114  -6.708   5.598  0.00  0.00    -0.284 N 
ATOM      8  H   LIG    1        4.693  -7.554   5.227  0.00  0.00    +0.155 HD
ATOM      9  C   LIG    1        5.839  -6.803   6.780  0.00  0.00    +0.222 C 
ATOM     10  O   LIG    1        6.340  -5.858   7.388  0.00  0.00    -0.275 OA
BRANCH   9  11
ATOM     11  C   LIG    1        6.031  -8.202   7.320  0.00  0.00    +0.131 C 
BRANCH  11  12
ATOM     12  C   LIG    1        4.850  -9.132   7.199  0.00  0.00    -0.039 A 
ATOM     13  C   LIG    1        3.529  -8.670   7.318  0.00  0.00    +0.005 A 
ATOM     14  C   LIG    1        2.458  -9.559   7.244  0.00  0.00    +0.020 A 
ATOM     15  C   LIG    1        2.704 -10.920   7.096  0.00  0.00    +0.041 A 
ATOM     16 CL   LIG    1        1.386 -12.022   7.061  0.00  0.00    -0.084 Cl
ATOM     17  C   LIG    1        4.010 -11.397   6.997  0.00  0.00    +0.020 A 
ATOM     18  C   LIG    1        5.081 -10.506   7.047  0.00  0.00    +0.005 A 
ENDBRANCH  11  12
ENDBRANCH   9  11
ENDBRANCH   3   7
BRANCH   1  19
ATOM     19  C   LIG    1        2.382  -4.152   2.346  0.00  0.00    +0.197 C 
ATOM     20  O   LIG    1        1.428  -4.944   2.490  0.00  0.00    -0.287 OA
BRANCH  19  28
ATOM     21  N   LIG    1        3.109  -1.694  -0.302  0.00  0.00    -0.329 N 
ATOM     22  C   LIG    1        1.831  -2.026  -0.650  0.00  0.00    +0.147 A 
ATOM     23  N   LIG    1        1.149  -1.509  -1.680  0.00  0.00    -0.197 NA
ATOM     24  C   LIG    1       -0.087  -1.985  -1.799  0.00  0.00    +0.214 A 
ATOM     25  N   LIG    1       -0.649  -2.918  -1.019  0.00  0.00    -0.222 NA
ATOM     26  C   LIG    1        0.079  -3.448   0.000  0.00  0.00    +0.126 A 
ATOM     27  C   LIG    1        1.370  -2.981   0.248  0.00  0.00    +0.048 A 
ATOM     28  C   LIG    1        2.413  -3.220   1.218  0.00  0.00    +0.051 A 
ATOM     29  C   LIG    1        3.459  -2.390   0.833  0.00  0.00    +0.100 A 
BRANCH  21  31
ATOM     30  C   LIG    1        4.924  -1.587  -1.954  0.00  0.00    +0.030 C 
ATOM     31  C   LIG    1        4.028  -0.797  -1.001  0.00  0.00    +0.083 C 
ATOM     32  C   LIG    1        3.361   0.383  -1.707  0.00  0.00    +0.030 C 
ENDBRANCH  21  31
BRANCH  24  33
ATOM     33  N   LIG    1       -0.875  -1.380  -2.762  0.00  0.00    -0.327 N 
ATOM     34  H   LIG    1       -0.513  -0.450  -2.926  0.00  0.00    +0.145 HD
ATOM     35  H   LIG    1       -1.845  -1.445  -2.488  0.00  0.00    +0.145 HD
ENDBRANCH  24  33
ENDBRANCH  19  28
ENDBRANCH   1  19
TORSDOF 7
