REMARK  Name = pdb/CHEMBL281948.pdb
REMARK                            x       y       z     vdW  Elec       q    Type
REMARK                         _______ _______ _______ _____ _____    ______ ____
ROOT
ATOM      1  C   LIG    1        5.836   0.036  -0.527  0.00  0.00    +0.214 C 
ATOM      2  C   LIG    1        6.899   0.577  -1.515  0.00  0.00    +0.186 C 
ATOM      3  N   LIG    1        8.259   0.600  -0.948  0.00  0.00    -0.306 N 
ATOM      4  C   LIG    1        9.248  -0.350  -0.953  0.00  0.00    +0.077 A 
ATOM      5  C   LIG    1        9.149  -1.670  -1.385  0.00  0.00    +0.077 A 
ATOM      6  N   LIG    1        8.021  -2.249  -1.856  0.00  0.00    -0.311 N 
ATOM      7  C   LIG    1        8.463  -3.544  -2.139  0.00  0.00    +0.052 A 
ATOM      8  C   LIG    1        7.737  -4.622  -2.680  0.00  0.00    +0.026 A 
ATOM      9  C   LIG    1        8.377  -5.846  -2.879  0.00  0.00    +0.002 A 
ATOM     10  C   LIG    1        9.713  -6.013  -2.546  0.00  0.00    +0.001 A 
ATOM     11  C   LIG    1       10.453  -4.956  -2.005  0.00  0.00    +0.010 A 
ATOM     12  C   LIG    1        9.861  -3.691  -1.786  0.00  0.00    +0.008 A 
ATOM     13  C   LIG    1        6.711  -1.676  -1.936  0.00  0.00    +0.226 C 
ATOM     14  C   LIG    1       10.309  -2.443  -1.278  0.00  0.00    +0.022 A 
ATOM     15  C   LIG    1       11.584  -2.123  -0.772  0.00  0.00    +0.052 A 
ATOM     16  C   LIG    1       12.832  -2.796  -0.548  0.00  0.00    +0.245 C 
ATOM     17  O   LIG    1       13.241  -3.922  -0.742  0.00  0.00    -0.270 OA
ATOM     18  N   LIG    1       13.629  -1.806   0.034  0.00  0.00    -0.307 N 
ATOM     19  H   LIG    1       14.571  -2.036   0.315  0.00  0.00    +0.149 HD
ATOM     20  C   LIG    1       13.009  -0.504   0.228  0.00  0.00    +0.141 C 
ATOM     21  C   LIG    1       11.688  -0.793  -0.323  0.00  0.00    -0.008 A 
ATOM     22  C   LIG    1       10.514  -0.026  -0.456  0.00  0.00    +0.015 A 
ATOM     23  C   LIG    1       10.332   1.313  -0.048  0.00  0.00    +0.008 A 
ATOM     24  C   LIG    1       11.174   2.293   0.530  0.00  0.00    +0.010 A 
ATOM     25  C   LIG    1       10.682   3.554   0.870  0.00  0.00    +0.001 A 
ATOM     26  C   LIG    1        9.346   3.859   0.673  0.00  0.00    +0.002 A 
ATOM     27  C   LIG    1        8.471   2.926   0.110  0.00  0.00    +0.026 A 
ATOM     28  C   LIG    1        8.945   1.661  -0.297  0.00  0.00    +0.053 A 
ATOM     29  C   LIG    1        6.533   1.904  -2.199  0.00  0.00    +0.070 C 
ATOM     30  O   LIG    1        6.890  -0.406  -2.574  0.00  0.00    -0.327 OA
ATOM     31  C   LIG    1        6.096  -1.459  -0.551  0.00  0.00    +0.106 C 
ENDROOT
BRANCH   1  32
ATOM     32  C   LIG    1        4.386   0.297  -0.986  0.00  0.00    +0.344 C 
ATOM     33  O   LIG    1        3.538   0.787  -0.247  0.00  0.00    -0.247 OA
BRANCH  32  35
ATOM     34  C   LIG    1        2.895   0.254  -2.823  0.00  0.00    +0.280 C 
ATOM     35  O   LIG    1        4.150  -0.131  -2.252  0.00  0.00    -0.466 OA
ENDBRANCH  32  35
ENDBRANCH   1  32
BRANCH   1  36
ATOM     36  O   LIG    1        5.985   0.549   0.801  0.00  0.00    -0.374 OA
ATOM     37  H   LIG    1        5.149   0.380   1.279  0.00  0.00    +0.211 HD
ENDBRANCH   1  36
TORSDOF 3
