REMARK  Name = pdb/CHEMBL3910951.pdb
REMARK                            x       y       z     vdW  Elec       q    Type
REMARK                         _______ _______ _______ _____ _____    ______ ____
ROOT
ATOM      1  C   LIG    1        0.782   4.746   0.241  0.00  0.00    +0.042 A 
ATOM      2  C   LIG    1        0.211   5.863  -0.404  0.00  0.00    +0.042 A 
ATOM      3  C   LIG    1       -1.103   6.252  -0.115  0.00  0.00    +0.086 A 
ATOM      4  C   LIG    1       -1.750   5.507   0.877  0.00  0.00    +0.138 A 
ATOM      5  N   LIG    1       -1.247   4.425   1.514  0.00  0.00    -0.260 NA
ATOM      6  C   LIG    1        0.013   4.076   1.185  0.00  0.00    +0.122 A 
ENDROOT
BRANCH   1   7
ATOM      7  C   LIG    1        2.200   4.373   0.000  0.00  0.00    +0.197 C 
ATOM      8  O   LIG    1        2.982   5.282  -0.313  0.00  0.00    -0.287 OA
BRANCH   7  16
ATOM      9  N   LIG    1        2.722   0.719   0.217  0.00  0.00    -0.338 N 
ATOM     10  C   LIG    1        3.998   1.159   0.573  0.00  0.00    +0.053 A 
ATOM     11  C   LIG    1        5.172   0.490   0.953  0.00  0.00    +0.046 A 
ATOM     12  C   LIG    1        6.292   1.280   1.187  0.00  0.00    +0.113 A 
ATOM     13  N   LIG    1        6.328   2.619   1.067  0.00  0.00    -0.263 NA
ATOM     14  C   LIG    1        5.194   3.267   0.714  0.00  0.00    +0.121 A 
ATOM     15  C   LIG    1        3.999   2.565   0.480  0.00  0.00    +0.029 A 
ATOM     16  C   LIG    1        2.671   2.993   0.160  0.00  0.00    +0.049 A 
ATOM     17  C   LIG    1        1.939   1.836  -0.028  0.00  0.00    +0.099 A 
BRANCH   9  19
ATOM     18  C   LIG    1        3.080  -1.425  -1.023  0.00  0.00    +0.036 C 
ATOM     19  C   LIG    1        2.250  -0.686   0.051  0.00  0.00    +0.063 C 
ATOM     20  C   LIG    1        0.770  -0.753  -0.427  0.00  0.00    +0.036 C 
BRANCH  19  21
ATOM     21  C   LIG    1        2.348  -1.500   1.368  0.00  0.00    +0.183 C 
BRANCH  21  22
ATOM     22  O   LIG    1        1.526  -0.971   2.401  0.00  0.00    -0.393 OA
ATOM     23  H   LIG    1        2.114  -0.671   3.117  0.00  0.00    +0.209 HD
ENDBRANCH  21  22
ENDBRANCH  19  21
ENDBRANCH   9  19
ENDBRANCH   7  16
ENDBRANCH   1   7
BRANCH   3  24
ATOM     24  N   LIG    1       -1.679   7.392  -0.732  0.00  0.00    -0.214 NA
ATOM     25  C   LIG    1       -2.963   7.445  -0.925  0.00  0.00    +0.210 C 
BRANCH  25  26
ATOM     26  O   LIG    1       -3.773   6.392  -0.677  0.00  0.00    -0.494 OA
ATOM     27  H   LIG    1       -4.706   6.635  -0.527  0.00  0.00    +0.293 HD
ENDBRANCH  25  26
BRANCH  25  28
ATOM     28  C   LIG    1       -3.652   8.666  -1.469  0.00  0.00    +0.240 C 
BRANCH  28  29
ATOM     29  N   LIG    1       -4.644   9.213  -0.564  0.00  0.00    -0.242 N 
ATOM     30  N   LIG    1       -5.750   8.508  -0.256  0.00  0.00    -0.065 NA
ATOM     31  N   LIG    1       -6.583   9.324   0.382  0.00  0.00    -0.125 NA
ATOM     32  C   LIG    1       -5.991  10.565   0.478  0.00  0.00    +0.185 A 
ATOM     33  C   LIG    1       -4.729  10.486  -0.084  0.00  0.00    +0.143 A 
BRANCH  32  34
ATOM     34  C   LIG    1       -6.690  11.746   1.064  0.00  0.00    +0.437 C 
ATOM     35  F   LIG    1       -6.893  11.629   2.401  0.00  0.00    -0.164 F 
ATOM     36  F   LIG    1       -7.902  11.972   0.492  0.00  0.00    -0.164 F 
ATOM     37  F   LIG    1       -5.968  12.887   0.883  0.00  0.00    -0.164 F 
ENDBRANCH  32  34
ENDBRANCH  28  29
ENDBRANCH  25  28
ENDBRANCH   3  24
TORSDOF 10
