REMARK  Name = pdb/CHEMBL3671420.pdb
REMARK                            x       y       z     vdW  Elec       q    Type
REMARK                         _______ _______ _______ _____ _____    ______ ____
ROOT
ATOM      1  C   LIG    1        4.261   0.192  -5.191  0.00  0.00    +0.042 A 
ATOM      2  C   LIG    1        5.511   0.654  -5.630  0.00  0.00    +0.038 A 
ATOM      3  C   LIG    1        5.595   1.748  -6.497  0.00  0.00    +0.052 A 
ATOM      4  C   LIG    1        4.396   2.346  -6.878  0.00  0.00    +0.134 A 
ATOM      5  N   LIG    1        3.169   1.908  -6.492  0.00  0.00    -0.261 NA
ATOM      6  C   LIG    1        3.130   0.829  -5.678  0.00  0.00    +0.122 A 
ENDROOT
BRANCH   3   7
ATOM      7  N   LIG    1        6.879   2.163  -6.922  0.00  0.00    -0.284 N 
ATOM      8  H   LIG    1        7.662   1.624  -6.574  0.00  0.00    +0.155 HD
ATOM      9  C   LIG    1        7.157   3.216  -7.780  0.00  0.00    +0.222 C 
ATOM     10  O   LIG    1        6.319   3.933  -8.320  0.00  0.00    -0.275 OA
BRANCH   9  11
ATOM     11  C   LIG    1        8.651   3.449  -7.993  0.00  0.00    +0.131 C 
BRANCH  11  12
ATOM     12  C   LIG    1        9.063   4.841  -7.574  0.00  0.00    -0.038 A 
ATOM     13  C   LIG    1        9.542   5.760  -8.521  0.00  0.00    +0.007 A 
ATOM     14  C   LIG    1        9.850   7.068  -8.140  0.00  0.00    +0.038 A 
ATOM     15  C   LIG    1        9.685   7.453  -6.816  0.00  0.00    +0.123 A 
ATOM     16  F   LIG    1        9.958   8.714  -6.456  0.00  0.00    -0.205 F 
ATOM     17  C   LIG    1        9.230   6.553  -5.860  0.00  0.00    +0.038 A 
ATOM     18  C   LIG    1        8.925   5.246  -6.236  0.00  0.00    +0.007 A 
ENDBRANCH  11  12
ENDBRANCH   9  11
ENDBRANCH   3   7
BRANCH   1  19
ATOM     19  C   LIG    1        4.184  -0.995  -4.309  0.00  0.00    +0.197 C 
ATOM     20  O   LIG    1        5.106  -1.813  -4.369  0.00  0.00    -0.287 OA
BRANCH  19  28
ATOM     21  N   LIG    1        1.216  -0.876  -2.134  0.00  0.00    -0.326 N 
ATOM     22  C   LIG    1        1.450  -2.237  -2.164  0.00  0.00    +0.145 A 
ATOM     23  N   LIG    1        0.717  -3.182  -1.547  0.00  0.00    -0.218 NA
ATOM     24  C   LIG    1        1.173  -4.422  -1.790  0.00  0.00    +0.223 A 
ATOM     25  N   LIG    1        2.218  -4.785  -2.556  0.00  0.00    -0.243 NA
ATOM     26  C   LIG    1        2.926  -3.802  -3.155  0.00  0.00    +0.124 A 
ATOM     27  C   LIG    1        2.560  -2.469  -2.966  0.00  0.00    +0.048 A 
ATOM     28  C   LIG    1        3.042  -1.208  -3.424  0.00  0.00    +0.051 A 
ATOM     29  C   LIG    1        2.242  -0.250  -2.819  0.00  0.00    +0.100 A 
BRANCH  21  31
ATOM     30  C   LIG    1       -0.019  -0.439  -0.009  0.00  0.00    +0.034 C 
ATOM     31  C   LIG    1        0.031  -0.219  -1.534  0.00  0.00    +0.039 C 
ATOM     32  C   LIG    1        0.027   1.311  -1.779  0.00  0.00    +0.034 C 
ATOM     33  C   LIG    1       -1.267  -0.769  -2.168  0.00  0.00    +0.034 C 
ENDBRANCH  21  31
ENDBRANCH  19  28
ENDBRANCH   1  19
TORSDOF 6
