REMARK  Name = pdb/CHEMBL3676105.pdb
REMARK                            x       y       z     vdW  Elec       q    Type
REMARK                         _______ _______ _______ _____ _____    ______ ____
ROOT
ATOM      1  C   LIG    1        6.976  -2.567  -5.292  0.00  0.00    +0.101 A 
ATOM      2  C   LIG    1        8.067  -1.884  -5.815  0.00  0.00    +0.170 A 
ATOM      3  N   LIG    1        8.370  -0.551  -5.843  0.00  0.00    -0.212 NA
ATOM      4  C   LIG    1        9.480  -0.186  -6.459  0.00  0.00    +0.126 A 
ATOM      5  C   LIG    1       10.421  -1.208  -7.067  0.00  0.00    +0.063 A 
ATOM      6  C   LIG    1       10.076  -2.498  -6.989  0.00  0.00    +0.118 A 
ATOM      7  N   LIG    1        8.896  -2.861  -6.370  0.00  0.00    -0.221 N 
ATOM      8  N   LIG    1        8.402  -4.107  -6.188  0.00  0.00    -0.173 NA
ATOM      9  C   LIG    1        7.249  -3.921  -5.553  0.00  0.00    +0.150 A 
ENDROOT
BRANCH   4  10
ATOM     10  N   LIG    1        9.809   1.162  -6.541  0.00  0.00    -0.308 N 
ATOM     11  C   LIG    1        8.973   2.239  -5.966  0.00  0.00    +0.110 C 
ATOM     12  C   LIG    1        8.955   3.284  -7.094  0.00  0.00    +0.029 C 
ATOM     13  C   LIG    1       10.332   3.173  -7.721  0.00  0.00    +0.021 C 
ATOM     14  C   LIG    1       10.653   1.690  -7.622  0.00  0.00    +0.107 C 
BRANCH  11  15
ATOM     15  C   LIG    1        9.512   2.748  -4.636  0.00  0.00    +0.037 A 
ATOM     16  C   LIG    1        8.862   3.772  -3.933  0.00  0.00    +0.220 A 
ATOM     17  N   LIG    1        9.250   4.236  -2.720  0.00  0.00    -0.218 NA
ATOM     18  C   LIG    1       10.352   3.684  -2.170  0.00  0.00    +0.153 A 
ATOM     19  C   LIG    1       11.069   2.676  -2.778  0.00  0.00    +0.142 A 
ATOM     20  F   LIG    1       12.146   2.150  -2.183  0.00  0.00    -0.204 F 
ATOM     21  C   LIG    1       10.648   2.201  -4.014  0.00  0.00    +0.050 A 
BRANCH  16  22
ATOM     22  O   LIG    1        7.694   4.284  -4.459  0.00  0.00    -0.479 OA
ATOM     23  C   LIG    1        7.481   5.641  -4.053  0.00  0.00    +0.279 C 
ENDBRANCH  16  22
ENDBRANCH  11  15
ENDBRANCH   4  10
BRANCH   1  26
ATOM     24  N   LIG    1        6.104  -0.755  -4.076  0.00  0.00    -0.267 N 
ATOM     25  H   LIG    1        7.048  -0.369  -4.227  0.00  0.00    +0.157 HD
ATOM     26  C   LIG    1        5.795  -2.041  -4.644  0.00  0.00    +0.254 C 
ATOM     27  O   LIG    1        4.721  -2.579  -4.570  0.00  0.00    -0.270 OA
BRANCH  24  32
ATOM     28  C   LIG    1        3.380   0.790  -2.353  0.00  0.00    +0.064 A 
ATOM     29  N   LIG    1        4.199   1.841  -2.477  0.00  0.00    -0.177 NA
ATOM     30  N   LIG    1        5.279   1.339  -3.100  0.00  0.00    -0.264 N 
ATOM     31  H   LIG    1        6.039   1.976  -3.317  0.00  0.00    +0.190 HD
ATOM     32  C   LIG    1        5.167   0.011  -3.411  0.00  0.00    +0.121 A 
ATOM     33  C   LIG    1        3.937  -0.376  -2.927  0.00  0.00    +0.068 A 
BRANCH  28  35
ATOM     34  C   LIG    1        2.181   0.650  -0.167  0.00  0.00    +0.010 C 
ATOM     35  C   LIG    1        2.064   0.913  -1.661  0.00  0.00    +0.054 C 
ENDBRANCH  28  35
ENDBRANCH  24  32
ENDBRANCH   1  26
TORSDOF 6
