REMARK  Name = pdb/CHEMBL3977511.pdb
REMARK                            x       y       z     vdW  Elec       q    Type
REMARK                         _______ _______ _______ _____ _____    ______ ____
ROOT
ATOM      1  C   LIG    1        9.116   0.109  -0.014  0.00  0.00    +0.190 C 
ATOM      2  C   LIG    1       10.329   0.626   0.498  0.00  0.00    +0.330 C 
ATOM      3  N   LIG    1       10.671   1.734   1.226  0.00  0.00    -0.045 NA
ATOM      4  C   LIG    1       11.958   2.033   1.310  0.00  0.00    +0.312 C 
ATOM      5  C   LIG    1       13.037   1.098   0.800  0.00  0.00    +0.115 C 
ATOM      6  C   LIG    1       12.659   0.018   0.152  0.00  0.00    +0.102 C 
ATOM      7  N   LIG    1       11.316  -0.200  -0.067  0.00  0.00    -0.201 N 
ATOM      8  N   LIG    1       10.810  -1.093  -0.920  0.00  0.00    -0.131 NA
ATOM      9  C   LIG    1        9.565  -0.664  -1.070  0.00  0.00    +0.155 C 
ENDROOT
BRANCH   4  10
ATOM     10  N   LIG    1       12.339   3.248   1.847  0.00  0.00    -0.214 N 
ATOM     11  C   LIG    1       12.736   3.303   3.263  0.00  0.00    +0.201 C 
ATOM     12  C   LIG    1       14.126   3.980   3.257  0.00  0.00    +0.056 C 
ATOM     13  C   LIG    1       14.488   4.213   1.796  0.00  0.00    +0.048 C 
ATOM     14  C   LIG    1       13.157   4.183   1.074  0.00  0.00    +0.226 C 
BRANCH  11  15
ATOM     15  C   LIG    1       11.721   4.074   4.082  0.00  0.00    +0.033 A 
ATOM     16  C   LIG    1       11.933   4.277   5.452  0.00  0.00    +0.131 A 
ATOM     17  F   LIG    1       13.022   3.762   6.041  0.00  0.00    -0.205 F 
ATOM     18  C   LIG    1       11.042   5.021   6.228  0.00  0.00    +0.041 A 
ATOM     19  C   LIG    1        9.903   5.566   5.640  0.00  0.00    +0.041 A 
ATOM     20  C   LIG    1        9.662   5.345   4.290  0.00  0.00    +0.124 A 
ATOM     21  F   LIG    1        8.566   5.863   3.721  0.00  0.00    -0.205 F 
ATOM     22  C   LIG    1       10.549   4.605   3.517  0.00  0.00    +0.048 A 
ENDBRANCH  11  15
ENDBRANCH   4  10
BRANCH   1  24
ATOM     23  C   LIG    1        6.735   0.091  -0.307  0.00  0.00    +0.235 C 
ATOM     24  N   LIG    1        7.844   0.521   0.255  0.00  0.00    -0.231 NA
BRANCH  23  27
ATOM     25  C   LIG    1        7.934  -2.992  -1.202  0.00  0.00    +0.046 C 
ATOM     26  C   LIG    1        6.776  -2.202  -1.744  0.00  0.00    -0.020 A 
ATOM     27  C   LIG    1        6.285  -0.934  -1.370  0.00  0.00    +0.128 A 
ATOM     28  N   LIG    1        5.126  -0.454  -1.970  0.00  0.00    -0.250 NA
ATOM     29  C   LIG    1        4.524  -1.180  -2.947  0.00  0.00    +0.111 A 
ATOM     30  C   LIG    1        5.002  -2.380  -3.414  0.00  0.00    +0.020 A 
ATOM     31  C   LIG    1        6.141  -2.878  -2.814  0.00  0.00    +0.007 A 
ENDBRANCH  23  27
BRANCH  23  32
ATOM     32  O   LIG    1        5.639   0.810   0.065  0.00  0.00    -0.491 OA
ATOM     33  H   LIG    1        4.932   0.708  -0.611  0.00  0.00    +0.294 HD
ENDBRANCH  23  32
ENDBRANCH   1  24
TORSDOF 5
