REMARK  Name = pdb/CHEMBL3981141.pdb
REMARK                            x       y       z     vdW  Elec       q    Type
REMARK                         _______ _______ _______ _____ _____    ______ ____
ROOT
ATOM      1  C   LIG    1        2.291  -1.058  -1.275  0.00  0.00    +0.105 A 
ATOM      2  C   LIG    1        2.417  -1.814  -2.430  0.00  0.00    +0.145 A 
ATOM      3  N   LIG    1        3.433  -1.702  -3.326  0.00  0.00    -0.201 NA
ATOM      4  C   LIG    1        4.359  -0.766  -3.045  0.00  0.00    +0.323 A 
ATOM      5  N   LIG    1        4.354   0.019  -1.957  0.00  0.00    -0.201 NA
ATOM      6  C   LIG    1        3.329  -0.164  -1.098  0.00  0.00    +0.145 A 
ENDROOT
BRANCH   1   8
ATOM      7  C   LIG    1        0.804  -0.443   0.473  0.00  0.00    +0.285 C 
ATOM      8  N   LIG    1        1.279  -1.320  -0.340  0.00  0.00    -0.196 NA
BRANCH   7   9
ATOM      9  N   LIG    1        0.996   0.910   0.580  0.00  0.00    -0.268 N 
ATOM     10  H   LIG    1        1.193   1.402  -0.294  0.00  0.00    +0.157 HD
BRANCH   9  12
ATOM     11  C   LIG    1        0.587   3.079   1.717  0.00  0.00    +0.109 A 
ATOM     12  C   LIG    1        0.984   1.725   1.737  0.00  0.00    +0.060 A 
ATOM     13  C   LIG    1        1.256   1.156   2.999  0.00  0.00    +0.037 A 
ATOM     14  C   LIG    1        1.109   1.876   4.201  0.00  0.00    +0.057 A 
ATOM     15  C   LIG    1        0.716   3.216   4.142  0.00  0.00    +0.014 A 
ATOM     16  C   LIG    1        0.461   3.817   2.909  0.00  0.00    +0.029 A 
BRANCH  11  18
ATOM     17  C   LIG    1        0.997   5.380   0.083  0.00  0.00    +0.200 C 
ATOM     18  S   LIG    1        0.049   3.887   0.219  0.00  0.00    -0.004 S 
ATOM     19  O   LIG    1        0.442   3.041  -0.877  0.00  0.00    -0.170 OA
ATOM     20  O   LIG    1       -1.344   4.251   0.436  0.00  0.00    -0.170 OA
ENDBRANCH  11  18
BRANCH  14  21
ATOM     21  C   LIG    1        1.332   1.178   5.525  0.00  0.00    +0.417 C 
ATOM     22  F   LIG    1        2.600   0.706   5.655  0.00  0.00    -0.166 F 
ATOM     23  F   LIG    1        0.509   0.105   5.682  0.00  0.00    -0.166 F 
ATOM     24  F   LIG    1        1.113   1.978   6.605  0.00  0.00    -0.166 F 
ENDBRANCH  14  21
ENDBRANCH   9  12
ENDBRANCH   7   9
BRANCH   7  25
ATOM     25  O   LIG    1       -0.111  -0.916   1.343  0.00  0.00    -0.481 OA
ATOM     26  H   LIG    1       -0.586  -0.189   1.768  0.00  0.00    +0.295 HD
ENDBRANCH   7  25
ENDBRANCH   1   8
BRANCH   4  27
ATOM     27  O   LIG    1        5.499  -0.641  -3.823  0.00  0.00    -0.424 OA
BRANCH  27  28
ATOM     28  C   LIG    1        5.441  -0.881  -5.171  0.00  0.00    +0.132 A 
ATOM     29  C   LIG    1        4.337  -0.629  -5.974  0.00  0.00    +0.047 A 
ATOM     30  C   LIG    1        4.404  -0.873  -7.351  0.00  0.00    +0.012 A 
ATOM     31  C   LIG    1        5.580  -1.332  -7.985  0.00  0.00    -0.014 A 
ATOM     32  C   LIG    1        6.694  -1.532  -7.151  0.00  0.00    +0.012 A 
ATOM     33  C   LIG    1        6.627  -1.309  -5.767  0.00  0.00    +0.047 A 
BRANCH  31  34
ATOM     34  C   LIG    1        5.596  -1.615  -9.452  0.00  0.00    +0.024 A 
ATOM     35  C   LIG    1        6.723  -1.511 -10.299  0.00  0.00    +0.124 A 
ATOM     36  N   LIG    1        6.709  -1.804 -11.621  0.00  0.00    -0.237 NA
ATOM     37  C   LIG    1        5.544  -2.216 -12.162  0.00  0.00    +0.151 A 
ATOM     38  C   LIG    1        4.385  -2.348 -11.436  0.00  0.00    +0.142 A 
ATOM     39  F   LIG    1        3.254  -2.769 -12.014  0.00  0.00    -0.204 F 
ATOM     40  C   LIG    1        4.409  -2.049 -10.083  0.00  0.00    +0.051 A 
BRANCH  35  41
ATOM     41  N   LIG    1        7.978  -1.084  -9.869  0.00  0.00    -0.343 N 
ATOM     42  H   LIG    1        7.927  -0.148  -9.483  0.00  0.00    +0.144 HD
ATOM     43  H   LIG    1        8.575  -1.110 -10.694  0.00  0.00    +0.144 HD
ENDBRANCH  35  41
ENDBRANCH  31  34
ENDBRANCH  27  28
ENDBRANCH   4  27
TORSDOF 10
