REMARK  Name = pdb/CHEMBL3921554.pdb
REMARK                            x       y       z     vdW  Elec       q    Type
REMARK                         _______ _______ _______ _____ _____    ______ ____
ROOT
ATOM      1  C   LIG    1        8.062  -0.209   1.553  0.00  0.00    +0.131 A 
ATOM      2  C   LIG    1        9.320   0.326   1.468  0.00  0.00    +0.183 A 
ATOM      3  N   LIG    1        9.864   1.580   1.690  0.00  0.00    -0.211 NA
ATOM      4  C   LIG    1       11.163   1.735   1.578  0.00  0.00    +0.126 A 
ATOM      5  C   LIG    1       12.046   0.613   1.080  0.00  0.00    +0.063 A 
ATOM      6  C   LIG    1       11.482  -0.562   0.835  0.00  0.00    +0.118 A 
ATOM      7  N   LIG    1       10.120  -0.745   1.038  0.00  0.00    -0.220 N 
ATOM      8  N   LIG    1        9.426  -1.887   0.839  0.00  0.00    -0.171 NA
ATOM      9  C   LIG    1        8.173  -1.546   1.135  0.00  0.00    +0.165 A 
ENDROOT
BRANCH   4  10
ATOM     10  N   LIG    1       11.792   2.953   1.915  0.00  0.00    -0.308 N 
ATOM     11  C   LIG    1       10.919   4.115   2.210  0.00  0.00    +0.105 C 
ATOM     12  C   LIG    1       10.891   4.105   3.716  0.00  0.00    +0.029 C 
ATOM     13  C   LIG    1       12.087   3.354   4.258  0.00  0.00    +0.021 C 
ATOM     14  C   LIG    1       12.797   2.876   3.012  0.00  0.00    +0.107 C 
BRANCH  11  15
ATOM     15  C   LIG    1       11.390   5.464   1.735  0.00  0.00    -0.024 A 
ATOM     16  C   LIG    1       12.744   5.766   1.619  0.00  0.00    +0.043 A 
ATOM     17  C   LIG    1       13.171   7.022   1.251  0.00  0.00    +0.124 A 
ATOM     18  F   LIG    1       14.487   7.252   1.182  0.00  0.00    -0.205 F 
ATOM     19  C   LIG    1       12.260   8.016   0.954  0.00  0.00    +0.038 A 
ATOM     20  C   LIG    1       10.896   7.753   1.072  0.00  0.00    +0.003 A 
ATOM     21  C   LIG    1       10.458   6.491   1.486  0.00  0.00    +0.005 A 
ENDBRANCH  11  15
ENDBRANCH   4  10
BRANCH   1  23
ATOM     22  C   LIG    1        6.556   1.316   2.542  0.00  0.00    +0.239 C 
ATOM     23  N   LIG    1        6.799   0.360   1.759  0.00  0.00    -0.206 NA
BRANCH  22  26
ATOM     24  C   LIG    1        6.145   4.371   3.295  0.00  0.00    +0.046 C 
ATOM     25  C   LIG    1        7.179   3.459   3.890  0.00  0.00    -0.020 A 
ATOM     26  C   LIG    1        7.371   2.097   3.574  0.00  0.00    +0.128 A 
ATOM     27  N   LIG    1        8.286   1.330   4.233  0.00  0.00    -0.250 NA
ATOM     28  C   LIG    1        9.039   1.914   5.191  0.00  0.00    +0.111 A 
ATOM     29  C   LIG    1        8.882   3.229   5.607  0.00  0.00    +0.020 A 
ATOM     30  C   LIG    1        7.965   4.017   4.916  0.00  0.00    +0.007 A 
ENDBRANCH  22  26
BRANCH  22  31
ATOM     31  O   LIG    1        5.244   1.690   2.496  0.00  0.00    -0.491 OA
ATOM     32  H   LIG    1        5.003   2.463   3.001  0.00  0.00    +0.294 HD
ENDBRANCH  22  31
ENDBRANCH   1  23
TORSDOF 5
