REMARK  Name = pdb/CHEMBL3639748.pdb
REMARK                            x       y       z     vdW  Elec       q    Type
REMARK                         _______ _______ _______ _____ _____    ______ ____
ROOT
ATOM      1  C   LIG    1        1.878  -2.297   0.300  0.00  0.00    +0.126 A 
ATOM      2  N   LIG    1        1.880  -3.079   1.365  0.00  0.00    -0.212 NA
ATOM      3  C   LIG    1        1.009  -4.154   1.388  0.00  0.00    +0.170 A 
ATOM      4  C   LIG    1        0.595  -5.030   2.384  0.00  0.00    +0.100 A 
ATOM      5  C   LIG    1       -0.269  -5.938   1.740  0.00  0.00    +0.150 A 
ATOM      6  N   LIG    1       -0.437  -5.663   0.449  0.00  0.00    -0.173 NA
ATOM      7  N   LIG    1        0.260  -4.517   0.265  0.00  0.00    -0.221 N 
ATOM      8  C   LIG    1        0.247  -3.709  -0.854  0.00  0.00    +0.118 A 
ATOM      9  C   LIG    1        0.972  -2.586  -0.880  0.00  0.00    +0.063 A 
ENDROOT
BRANCH   1  12
ATOM     10  C   LIG    1        0.820   0.492   0.075  0.00  0.00    +0.031 C 
ATOM     11  C   LIG    1        2.317   0.194  -0.056  0.00  0.00    +0.031 C 
ATOM     12  N   LIG    1        2.752  -1.206   0.195  0.00  0.00    -0.303 N 
ATOM     13  C   LIG    1        4.093  -1.199   0.862  0.00  0.00    +0.108 C 
ATOM     14  C   LIG    1        4.384   0.292   1.159  0.00  0.00    +0.029 C 
ATOM     15  C   LIG    1        3.036   0.970   1.058  0.00  0.00    +0.027 C 
ATOM     16  C   LIG    1        2.782   0.616  -1.461  0.00  0.00    +0.031 C 
BRANCH  13  17
ATOM     17  C   LIG    1        5.213  -1.807   0.012  0.00  0.00    +0.011 A 
ATOM     18  C   LIG    1        6.539  -1.801   0.486  0.00  0.00    +0.129 A 
ATOM     19  F   LIG    1        6.824  -1.225   1.663  0.00  0.00    -0.205 F 
ATOM     20  C   LIG    1        7.600  -2.356  -0.242  0.00  0.00    +0.041 A 
ATOM     21  C   LIG    1        7.360  -2.918  -1.492  0.00  0.00    +0.041 A 
ATOM     22  C   LIG    1        6.064  -2.911  -1.990  0.00  0.00    +0.124 A 
ATOM     23  F   LIG    1        5.831  -3.414  -3.209  0.00  0.00    -0.205 F 
ATOM     24  C   LIG    1        5.001  -2.379  -1.253  0.00  0.00    +0.046 A 
ENDBRANCH  13  17
ENDBRANCH   1  12
BRANCH   4  25
ATOM     25  C   LIG    1        0.938  -5.060   3.789  0.00  0.00    +0.249 C 
ATOM     26  N   LIG    1        2.174  -4.525   4.069  0.00  0.00    -0.308 N 
ATOM     27  H   LIG    1        2.695  -4.139   3.287  0.00  0.00    +0.149 HD
ATOM     28  O   LIG    1        0.200  -5.562   4.624  0.00  0.00    -0.270 OA
BRANCH  26  29
ATOM     29  C   LIG    1        2.753  -4.523   5.369  0.00  0.00    +0.073 C 
ATOM     30  C   LIG    1        3.563  -3.344   5.824  0.00  0.00    +0.024 C 
ATOM     31  C   LIG    1        4.243  -4.647   5.521  0.00  0.00    +0.024 C 
ENDBRANCH  26  29
ENDBRANCH   4  25
TORSDOF 4
