REMARK  Name = pdb/CHEMBL3889654.pdb
REMARK                            x       y       z     vdW  Elec       q    Type
REMARK                         _______ _______ _______ _____ _____    ______ ____
ROOT
ATOM      1  C   LIG    1        5.885  -4.092   3.368  0.00  0.00    +0.099 A 
ATOM      2  C   LIG    1        6.856  -3.704   4.269  0.00  0.00    +0.179 A 
ATOM      3  N   LIG    1        7.469  -2.496   4.508  0.00  0.00    -0.211 NA
ATOM      4  C   LIG    1        8.304  -2.416   5.526  0.00  0.00    +0.126 A 
ATOM      5  C   LIG    1        8.632  -3.623   6.376  0.00  0.00    +0.063 A 
ATOM      6  C   LIG    1        8.026  -4.777   6.078  0.00  0.00    +0.118 A 
ATOM      7  N   LIG    1        7.128  -4.840   5.028  0.00  0.00    -0.220 N 
ATOM      8  N   LIG    1        6.415  -5.918   4.621  0.00  0.00    -0.171 NA
ATOM      9  C   LIG    1        5.656  -5.452   3.627  0.00  0.00    +0.160 A 
ENDROOT
BRANCH   1  14
ATOM     10  C   LIG    1        3.521  -0.277   0.028  0.00  0.00    +0.133 C 
ATOM     11  C   LIG    1        4.451  -1.131   0.872  0.00  0.00    +0.140 C 
ATOM     12  N   LIG    1        3.929  -2.483   0.769  0.00  0.00    -0.283 N 
ATOM     13  C   LIG    1        4.319  -3.546   1.556  0.00  0.00    +0.307 C 
ATOM     14  N   LIG    1        5.317  -3.232   2.454  0.00  0.00    -0.265 N 
ATOM     15  H   LIG    1        5.697  -2.298   2.490  0.00  0.00    +0.157 HD
ATOM     16  O   LIG    1        3.796  -4.662   1.445  0.00  0.00    -0.252 OA
ATOM     17  C   LIG    1        2.910  -2.569  -0.266  0.00  0.00    +0.112 C 
ATOM     18  C   LIG    1        3.036  -1.257  -1.034  0.00  0.00    +0.052 C 
BRANCH  10  19
ATOM     19  O   LIG    1        4.213   0.821  -0.536  0.00  0.00    -0.390 OA
ATOM     20  H   LIG    1        3.596   1.283  -1.127  0.00  0.00    +0.210 HD
ENDBRANCH  10  19
ENDBRANCH   1  14
BRANCH   4  21
ATOM     21  N   LIG    1        8.896  -1.191   5.824  0.00  0.00    -0.308 N 
ATOM     22  C   LIG    1        9.316  -0.803   7.186  0.00  0.00    +0.108 C 
ATOM     23  C   LIG    1        9.019   0.705   7.241  0.00  0.00    +0.029 C 
ATOM     24  C   LIG    1        9.208   1.162   5.804  0.00  0.00    +0.021 C 
ATOM     25  C   LIG    1        8.615   0.001   5.014  0.00  0.00    +0.107 C 
BRANCH  22  26
ATOM     26  C   LIG    1       10.770  -1.152   7.459  0.00  0.00    +0.011 A 
ATOM     27  C   LIG    1       11.189  -1.432   8.770  0.00  0.00    +0.129 A 
ATOM     28  F   LIG    1       10.301  -1.402   9.774  0.00  0.00    -0.205 F 
ATOM     29  C   LIG    1       12.512  -1.775   9.066  0.00  0.00    +0.041 A 
ATOM     30  C   LIG    1       13.450  -1.856   8.040  0.00  0.00    +0.041 A 
ATOM     31  C   LIG    1       13.049  -1.592   6.736  0.00  0.00    +0.124 A 
ATOM     32  F   LIG    1       13.939  -1.693   5.741  0.00  0.00    -0.205 F 
ATOM     33  C   LIG    1       11.733  -1.237   6.441  0.00  0.00    +0.046 A 
ENDBRANCH  22  26
ENDBRANCH   4  21
TORSDOF 4
