REMARK  Name = pdb/CHEMBL3671143.pdb
REMARK                            x       y       z     vdW  Elec       q    Type
REMARK                         _______ _______ _______ _____ _____    ______ ____
ROOT
ATOM      1  C   LIG    1       -3.450   7.691  -0.551  0.00  0.00    +0.126 A 
ATOM      2  N   LIG    1       -3.624   6.509  -1.107  0.00  0.00    -0.212 NA
ATOM      3  C   LIG    1       -2.509   5.766  -1.420  0.00  0.00    +0.170 A 
ATOM      4  C   LIG    1       -2.349   4.510  -1.982  0.00  0.00    +0.100 A 
ATOM      5  C   LIG    1       -0.952   4.325  -2.040  0.00  0.00    +0.150 A 
ATOM      6  N   LIG    1       -0.264   5.363  -1.569  0.00  0.00    -0.173 NA
ATOM      7  N   LIG    1       -1.218   6.236  -1.172  0.00  0.00    -0.221 N 
ATOM      8  C   LIG    1       -1.022   7.459  -0.561  0.00  0.00    +0.118 A 
ATOM      9  C   LIG    1       -2.070   8.211  -0.213  0.00  0.00    +0.063 A 
ENDROOT
BRANCH   1  11
ATOM     10  C   LIG    1       -5.943   8.037  -0.508  0.00  0.00    +0.108 C 
ATOM     11  N   LIG    1       -4.554   8.482  -0.248  0.00  0.00    -0.308 N 
ATOM     12  C   LIG    1       -4.508   9.943  -0.231  0.00  0.00    +0.107 C 
ATOM     13  C   LIG    1       -5.608  10.337  -1.196  0.00  0.00    +0.021 C 
ATOM     14  C   LIG    1       -6.700   9.337  -0.870  0.00  0.00    +0.029 C 
BRANCH  10  18
ATOM     15  F   LIG    1       -5.873   6.397   4.140  0.00  0.00    -0.205 F 
ATOM     16  C   LIG    1       -6.536   6.556   2.987  0.00  0.00    +0.124 A 
ATOM     17  C   LIG    1       -5.893   7.157   1.907  0.00  0.00    +0.046 A 
ATOM     18  C   LIG    1       -6.571   7.352   0.692  0.00  0.00    +0.011 A 
ATOM     19  C   LIG    1       -7.897   6.901   0.611  0.00  0.00    +0.129 A 
ATOM     20  F   LIG    1       -8.583   7.060  -0.530  0.00  0.00    -0.205 F 
ATOM     21  C   LIG    1       -8.540   6.300   1.694  0.00  0.00    +0.041 A 
ATOM     22  C   LIG    1       -7.855   6.130   2.893  0.00  0.00    +0.041 A 
ENDBRANCH  10  18
ENDBRANCH   1  11
BRANCH   4  23
ATOM     23  C   LIG    1       -3.345   3.556  -2.429  0.00  0.00    +0.249 C 
ATOM     24  N   LIG    1       -4.653   3.963  -2.272  0.00  0.00    -0.308 N 
ATOM     25  H   LIG    1       -4.813   4.880  -1.857  0.00  0.00    +0.149 HD
ATOM     26  O   LIG    1       -3.033   2.469  -2.895  0.00  0.00    -0.270 OA
BRANCH  24  27
ATOM     27  C   LIG    1       -5.764   3.140  -2.701  0.00  0.00    +0.077 C 
ATOM     28  C   LIG    1       -7.128   3.798  -2.390  0.00  0.00    +0.010 C 
ATOM     29  C   LIG    1       -7.400   3.330  -0.958  0.00  0.00    +0.009 C 
ATOM     30  C   LIG    1       -7.259   1.851  -1.313  0.00  0.00    -0.009 C 
ATOM     31  C   LIG    1       -8.291   1.692  -2.442  0.00  0.00    +0.004 C 
ATOM     32  C   LIG    1       -8.221   3.044  -3.169  0.00  0.00    +0.005 C 
ATOM     33  C   LIG    1       -5.847   1.811  -1.917  0.00  0.00    +0.026 C 
ENDBRANCH  24  27
ENDBRANCH   4  23
TORSDOF 4
