REMARK  Name = pdb/CHEMBL3976441.pdb
REMARK                            x       y       z     vdW  Elec       q    Type
REMARK                         _______ _______ _______ _____ _____    ______ ____
ROOT
ATOM      1  C   LIG    1       -0.483  -6.507  -0.899  0.00  0.00    +0.323 A 
ATOM      2  N   LIG    1       -0.468  -5.697  -1.961  0.00  0.00    -0.201 NA
ATOM      3  C   LIG    1       -1.543  -5.798  -2.790  0.00  0.00    +0.145 A 
ATOM      4  C   LIG    1       -2.594  -6.691  -2.640  0.00  0.00    +0.105 A 
ATOM      5  C   LIG    1       -2.509  -7.425  -1.486  0.00  0.00    +0.145 A 
ATOM      6  N   LIG    1       -1.482  -7.359  -0.620  0.00  0.00    -0.201 NA
ENDROOT
BRANCH   4   7
ATOM      7  N   LIG    1       -3.683  -6.888  -3.510  0.00  0.00    -0.196 NA
ATOM      8  C   LIG    1       -3.519  -6.815  -4.787  0.00  0.00    +0.285 C 
BRANCH   8   9
ATOM      9  N   LIG    1       -4.476  -7.049  -5.722  0.00  0.00    -0.267 N 
ATOM     10  H   LIG    1       -5.050  -7.885  -5.591  0.00  0.00    +0.157 HD
BRANCH   9  11
ATOM     11  C   LIG    1       -4.685  -6.365  -6.934  0.00  0.00    +0.060 A 
ATOM     12  C   LIG    1       -5.245  -6.988  -8.072  0.00  0.00    +0.087 A 
ATOM     13  C   LIG    1       -5.351  -6.262  -9.275  0.00  0.00    +0.042 A 
ATOM     14  C   LIG    1       -4.908  -4.932  -9.374  0.00  0.00    +0.057 A 
ATOM     15  C   LIG    1       -4.356  -4.321  -8.248  0.00  0.00    +0.014 A 
ATOM     16  C   LIG    1       -4.250  -5.028  -7.051  0.00  0.00    +0.026 A 
BRANCH  12  17
ATOM     17  N   LIG    1       -5.700  -8.343  -8.039  0.00  0.00    -0.238 N 
ATOM     18  N   LIG    1       -5.614  -9.097  -6.906  0.00  0.00    -0.175 NA
ATOM     19  C   LIG    1       -6.115 -10.286  -7.248  0.00  0.00    +0.135 A 
ATOM     20  C   LIG    1       -6.546 -10.324  -8.579  0.00  0.00    +0.041 A 
ATOM     21  C   LIG    1       -6.268  -9.070  -9.067  0.00  0.00    +0.114 A 
ENDBRANCH  12  17
BRANCH  14  22
ATOM     22  C   LIG    1       -5.043  -4.192 -10.683  0.00  0.00    +0.417 C 
ATOM     23  F   LIG    1       -6.339  -4.103 -11.089  0.00  0.00    -0.166 F 
ATOM     24  F   LIG    1       -4.376  -4.815 -11.693  0.00  0.00    -0.166 F 
ATOM     25  F   LIG    1       -4.568  -2.918 -10.646  0.00  0.00    -0.166 F 
ENDBRANCH  14  22
ENDBRANCH   9  11
ENDBRANCH   8   9
BRANCH   8  26
ATOM     26  O   LIG    1       -2.313  -6.558  -5.328  0.00  0.00    -0.481 OA
ATOM     27  H   LIG    1       -2.353  -6.686  -6.290  0.00  0.00    +0.295 HD
ENDBRANCH   8  26
ENDBRANCH   4   7
BRANCH   1  28
ATOM     28  O   LIG    1        0.664  -6.484  -0.101  0.00  0.00    -0.424 OA
BRANCH  28  32
ATOM     29  C   LIG    1        0.485  -7.595   3.969  0.00  0.00    -0.014 A 
ATOM     30  C   LIG    1        1.430  -6.678   3.474  0.00  0.00    +0.012 A 
ATOM     31  C   LIG    1        1.477  -6.334   2.111  0.00  0.00    +0.047 A 
ATOM     32  C   LIG    1        0.607  -6.932   1.199  0.00  0.00    +0.132 A 
ATOM     33  C   LIG    1       -0.223  -7.944   1.664  0.00  0.00    +0.047 A 
ATOM     34  C   LIG    1       -0.337  -8.216   3.022  0.00  0.00    +0.012 A 
BRANCH  29  36
ATOM     35  C   LIG    1        0.602  -7.072   6.471  0.00  0.00    +0.124 A 
ATOM     36  C   LIG    1        0.358  -7.953   5.403  0.00  0.00    +0.023 A 
ATOM     37  C   LIG    1       -0.053  -9.257   5.764  0.00  0.00    +0.033 A 
ATOM     38  C   LIG    1       -0.189  -9.622   7.095  0.00  0.00    +0.060 A 
ATOM     39 CL   LIG    1       -0.713 -11.201   7.524  0.00  0.00    -0.082 Cl
ATOM     40  C   LIG    1        0.108  -8.679   8.054  0.00  0.00    +0.133 A 
ATOM     41  N   LIG    1        0.502  -7.419   7.769  0.00  0.00    -0.239 NA
BRANCH  35  42
ATOM     42  N   LIG    1        0.949  -5.735   6.301  0.00  0.00    -0.343 N 
ATOM     43  H   LIG    1        0.243  -5.258   5.751  0.00  0.00    +0.144 HD
ATOM     44  H   LIG    1        1.014  -5.351   7.241  0.00  0.00    +0.144 HD
ENDBRANCH  35  42
ENDBRANCH  29  36
ENDBRANCH  28  32
ENDBRANCH   1  28
TORSDOF 10
