REMARK  Name = pdb/CHEMBL3671467.pdb
REMARK                            x       y       z     vdW  Elec       q    Type
REMARK                         _______ _______ _______ _____ _____    ______ ____
ROOT
ATOM      1  N   LIG    1        7.856   0.054  -0.156  0.00  0.00    -0.254 N 
ATOM      2  H   LIG    1        7.266  -0.523   0.414  0.00  0.00    +0.158 HD
ATOM      3  C   LIG    1        9.176  -0.370  -0.445  0.00  0.00    +0.309 C 
ATOM      4  N   LIG    1        9.430  -1.627   0.020  0.00  0.00    -0.268 N 
ATOM      5  H   LIG    1        8.697  -2.130   0.513  0.00  0.00    +0.156 HD
ATOM      6  O   LIG    1        9.949   0.383  -1.019  0.00  0.00    -0.252 OA
ENDROOT
BRANCH   4   7
ATOM      7  C   LIG    1       10.679  -2.282  -0.102  0.00  0.00    +0.054 A 
ATOM      8  C   LIG    1       10.851  -3.545   0.475  0.00  0.00    +0.038 A 
ATOM      9  C   LIG    1       12.088  -4.208   0.367  0.00  0.00    +0.042 A 
ATOM     10  C   LIG    1       13.128  -3.536  -0.256  0.00  0.00    +0.122 A 
ATOM     11  N   LIG    1       12.991  -2.330  -0.847  0.00  0.00    -0.261 NA
ATOM     12  C   LIG    1       11.776  -1.741  -0.773  0.00  0.00    +0.134 A 
BRANCH   9  13
ATOM     13  C   LIG    1       12.274  -5.552   0.978  0.00  0.00    +0.197 C 
ATOM     14  O   LIG    1       11.567  -5.835   1.942  0.00  0.00    -0.287 OA
BRANCH  13  15
ATOM     15  C   LIG    1       13.271  -6.491   0.456  0.00  0.00    +0.051 A 
ATOM     16  C   LIG    1       13.934  -7.527   1.198  0.00  0.00    +0.048 A 
ATOM     17  C   LIG    1       13.906  -8.005   2.508  0.00  0.00    +0.124 A 
ATOM     18  N   LIG    1       14.713  -9.031   2.868  0.00  0.00    -0.243 NA
ATOM     19  C   LIG    1       15.527  -9.553   1.930  0.00  0.00    +0.223 A 
ATOM     20  N   LIG    1       15.652  -9.175   0.646  0.00  0.00    -0.218 NA
ATOM     21  C   LIG    1       14.823  -8.162   0.340  0.00  0.00    +0.144 A 
ATOM     22  N   LIG    1       14.710  -7.568  -0.887  0.00  0.00    -0.334 N 
ATOM     23  C   LIG    1       15.527  -7.898  -2.034  0.00  0.00    +0.150 C 
ATOM     24  C   LIG    1       13.722  -6.612  -0.853  0.00  0.00    +0.099 A 
ENDBRANCH  13  15
ENDBRANCH   9  13
ENDBRANCH   4   7
BRANCH   1  26
ATOM     25  N   LIG    1        6.265   2.003  -0.046  0.00  0.00    -0.215 N 
ATOM     26  C   LIG    1        7.360   1.304  -0.554  0.00  0.00    +0.130 A 
ATOM     27  C   LIG    1        7.866   2.087  -1.565  0.00  0.00    +0.069 A 
ATOM     28  C   LIG    1        7.088   3.260  -1.591  0.00  0.00    +0.071 A 
ATOM     29  N   LIG    1        6.097   3.192  -0.692  0.00  0.00    -0.169 NA
BRANCH  25  34
ATOM     30  C   LIG    1        4.030  -0.317   3.733  0.00  0.00    +0.172 C 
ATOM     31  N   LIG    1        4.406   0.621   2.702  0.00  0.00    -0.272 N 
ATOM     32  N   LIG    1        3.693   1.739   2.509  0.00  0.00    -0.178 NA
ATOM     33  C   LIG    1        4.318   2.352   1.499  0.00  0.00    +0.162 A 
ATOM     34  C   LIG    1        5.419   1.610   1.027  0.00  0.00    +0.105 A 
ATOM     35  C   LIG    1        5.464   0.497   1.840  0.00  0.00    +0.135 A 
ENDBRANCH  25  34
BRANCH  28  36
ATOM     36  C   LIG    1        7.283   4.479  -2.488  0.00  0.00    +0.006 C 
ATOM     37  C   LIG    1        8.508   4.295  -3.418  0.00  0.00    +0.017 C 
ATOM     38  C   LIG    1        7.531   5.742  -1.642  0.00  0.00    +0.017 C 
ATOM     39  C   LIG    1        6.043   4.706  -3.371  0.00  0.00    +0.017 C 
ENDBRANCH  28  36
ENDBRANCH   1  26
TORSDOF 6
