REMARK  Name = pdb/CHEMBL3675913.pdb
REMARK                            x       y       z     vdW  Elec       q    Type
REMARK                         _______ _______ _______ _____ _____    ______ ____
ROOT
ATOM      1  C   LIG    1        2.689  -3.062  -6.076  0.00  0.00    +0.100 A 
ATOM      2  C   LIG    1        2.631  -4.247  -6.789  0.00  0.00    +0.170 A 
ATOM      3  N   LIG    1        2.827  -5.555  -6.418  0.00  0.00    -0.212 NA
ATOM      4  C   LIG    1        2.802  -6.479  -7.357  0.00  0.00    +0.126 A 
ATOM      5  C   LIG    1        2.545  -6.135  -8.806  0.00  0.00    +0.063 A 
ATOM      6  C   LIG    1        2.311  -4.852  -9.102  0.00  0.00    +0.118 A 
ATOM      7  N   LIG    1        2.345  -3.890  -8.107  0.00  0.00    -0.221 N 
ATOM      8  N   LIG    1        2.145  -2.559  -8.244  0.00  0.00    -0.173 NA
ATOM      9  C   LIG    1        2.362  -2.070  -7.023  0.00  0.00    +0.150 A 
ENDROOT
BRANCH   4  10
ATOM     10  N   LIG    1        3.001  -7.804  -7.008  0.00  0.00    -0.308 N 
ATOM     11  C   LIG    1        2.947  -8.282  -5.621  0.00  0.00    +0.105 C 
ATOM     12  C   LIG    1        3.954  -9.441  -5.608  0.00  0.00    +0.029 C 
ATOM     13  C   LIG    1        3.833 -10.029  -7.004  0.00  0.00    +0.021 C 
ATOM     14  C   LIG    1        3.621  -8.800  -7.882  0.00  0.00    +0.107 C 
BRANCH  11  15
ATOM     15  C   LIG    1        1.538  -8.727  -5.242  0.00  0.00    -0.024 A 
ATOM     16  C   LIG    1        0.610  -9.180  -6.196  0.00  0.00    +0.043 A 
ATOM     17  C   LIG    1       -0.659  -9.598  -5.812  0.00  0.00    +0.124 A 
ATOM     18  F   LIG    1       -1.517 -10.032  -6.745  0.00  0.00    -0.205 F 
ATOM     19  C   LIG    1       -1.045  -9.576  -4.481  0.00  0.00    +0.038 A 
ATOM     20  C   LIG    1       -0.144  -9.130  -3.517  0.00  0.00    +0.003 A 
ATOM     21  C   LIG    1        1.140  -8.713  -3.893  0.00  0.00    +0.005 A 
ENDBRANCH  11  15
ENDBRANCH   4  10
BRANCH   1  24
ATOM     22  N   LIG    1        3.319  -3.995  -3.977  0.00  0.00    -0.308 N 
ATOM     23  H   LIG    1        3.139  -4.878  -4.453  0.00  0.00    +0.149 HD
ATOM     24  C   LIG    1        3.034  -2.847  -4.683  0.00  0.00    +0.249 C 
ATOM     25  O   LIG    1        3.094  -1.728  -4.195  0.00  0.00    -0.270 OA
BRANCH  22  29
ATOM     26  C   LIG    1        3.847  -5.290   0.057  0.00  0.00    +0.115 C 
ATOM     27  C   LIG    1        2.977  -4.057  -0.179  0.00  0.00    +0.033 C 
ATOM     28  C   LIG    1        2.547  -3.954  -1.640  0.00  0.00    +0.025 C 
ATOM     29  C   LIG    1        3.750  -3.982  -2.592  0.00  0.00    +0.073 C 
ATOM     30  C   LIG    1        4.661  -5.187  -2.324  0.00  0.00    +0.025 C 
ATOM     31  C   LIG    1        5.069  -5.283  -0.858  0.00  0.00    +0.033 C 
BRANCH  26  32
ATOM     32  O   LIG    1        4.266  -5.337   1.415  0.00  0.00    -0.392 OA
ATOM     33  H   LIG    1        4.767  -4.526   1.608  0.00  0.00    +0.210 HD
ENDBRANCH  26  32
ENDBRANCH  22  29
ENDBRANCH   1  24
TORSDOF 5
