REMARK  Name = pdb/CHEMBL3940552.pdb
REMARK                            x       y       z     vdW  Elec       q    Type
REMARK                         _______ _______ _______ _____ _____    ______ ____
ROOT
ATOM      1  C   LIG    1        6.434  -2.740  -0.183  0.00  0.00    +0.149 A 
ATOM      2  N   LIG    1        7.276  -3.783  -0.181  0.00  0.00    -0.160 NA
ATOM      3  N   LIG    1        8.519  -3.260   0.002  0.00  0.00    -0.218 N 
ATOM      4  C   LIG    1        8.465  -1.868   0.211  0.00  0.00    +0.129 A 
ATOM      5  C   LIG    1        7.132  -1.542   0.080  0.00  0.00    +0.078 A 
ENDROOT
BRANCH   3   6
ATOM      6  C   LIG    1        9.641  -4.145   0.024  0.00  0.00    +0.067 A 
ATOM      7  C   LIG    1       10.944  -3.713  -0.247  0.00  0.00    +0.028 A 
ATOM      8  C   LIG    1       12.009  -4.621  -0.227  0.00  0.00    +0.002 A 
ATOM      9  C   LIG    1       11.782  -5.967   0.046  0.00  0.00    +0.000 A 
ATOM     10  C   LIG    1       10.490  -6.410   0.314  0.00  0.00    +0.002 A 
ATOM     11  C   LIG    1        9.423  -5.508   0.298  0.00  0.00    +0.028 A 
ENDBRANCH   3   6
BRANCH   4  12
ATOM     12  N   LIG    1        9.504  -0.989   0.538  0.00  0.00    -0.266 N 
ATOM     13  H   LIG    1       10.455  -1.316   0.492  0.00  0.00    +0.157 HD
ATOM     14  C   LIG    1        9.278   0.325   1.076  0.00  0.00    +0.251 C 
ATOM     15  O   LIG    1        8.156   0.729   1.301  0.00  0.00    -0.270 OA
BRANCH  14  16
ATOM     16  C   LIG    1       10.443   1.198   1.366  0.00  0.00    +0.056 A 
ATOM     17  C   LIG    1       11.687   0.750   1.794  0.00  0.00    +0.054 A 
ATOM     18 CL   LIG    1       12.098  -0.917   1.944  0.00  0.00    -0.083 Cl
ATOM     19  C   LIG    1       12.658   1.681   2.166  0.00  0.00    +0.041 A 
ATOM     20  C   LIG    1       12.400   3.062   2.109  0.00  0.00    +0.052 A 
ATOM     21 CL   LIG    1       13.664   4.064   2.747  0.00  0.00    -0.083 Cl
ATOM     22  C   LIG    1       11.172   3.561   1.622  0.00  0.00    +0.022 A 
ATOM     23  C   LIG    1       10.209   2.588   1.266  0.00  0.00    +0.026 A 
BRANCH  22  24
ATOM     24  C   LIG    1       10.867   5.009   1.454  0.00  0.00    +0.107 A 
ATOM     25  C   LIG    1        9.584   5.561   1.545  0.00  0.00    +0.149 A 
ATOM     26  F   LIG    1        8.509   4.809   1.823  0.00  0.00    -0.203 F 
ATOM     27  C   LIG    1        9.393   6.926   1.347  0.00  0.00    +0.042 A 
ATOM     28  C   LIG    1       10.490   7.734   1.084  0.00  0.00    +0.023 A 
ATOM     29  C   LIG    1       11.730   7.129   1.001  0.00  0.00    +0.111 A 
ATOM     30  N   LIG    1       11.928   5.798   1.147  0.00  0.00    -0.252 NA
ENDBRANCH  22  24
ENDBRANCH  14  16
ENDBRANCH   4  12
BRANCH   1  32
ATOM     31  N   LIG    1        4.319  -1.881  -0.865  0.00  0.00    -0.249 NA
ATOM     32  C   LIG    1        4.992  -2.875  -0.409  0.00  0.00    +0.236 C 
BRANCH  32  33
ATOM     33  O   LIG    1        4.466  -4.073  -0.086  0.00  0.00    -0.491 OA
ATOM     34  H   LIG    1        3.507  -4.078  -0.185  0.00  0.00    +0.294 HD
ENDBRANCH  32  33
BRANCH  31  35
ATOM     35  C   LIG    1        2.887  -2.001  -1.148  0.00  0.00    +0.151 C 
BRANCH  35  37
ATOM     36  C   LIG    1        3.079  -0.338  -3.048  0.00  0.00    +0.012 C 
ATOM     37  C   LIG    1        2.343  -0.673  -1.740  0.00  0.00    -0.018 C 
ATOM     38  C   LIG    1        0.839  -0.820  -2.048  0.00  0.00    +0.012 C 
ATOM     39  C   LIG    1        2.531   0.485  -0.745  0.00  0.00    +0.012 C 
ENDBRANCH  35  37
ENDBRANCH  31  35
ENDBRANCH   1  32
TORSDOF 8
