REMARK  Name = pdb/CHEMBL1794056.pdb
REMARK                            x       y       z     vdW  Elec       q    Type
REMARK                         _______ _______ _______ _____ _____    ______ ____
ROOT
ATOM      1  C   LIG    1        2.917  -3.531  -0.505  0.00  0.00    +0.078 C 
ATOM      2  N   LIG    1        1.834  -3.392   0.324  0.00  0.00    -0.363 N 
ATOM      3  H   LIG    1        2.027  -2.958   1.227  0.00  0.00    +0.165 HD
ENDROOT
BRANCH   1   6
ATOM      4  O   LIG    1        4.266  -2.520   2.026  0.00  0.00    -0.274 OA
ATOM      5  C   LIG    1        4.829  -2.780   0.985  0.00  0.00    +0.235 C 
ATOM      6  C   LIG    1        4.209  -3.270  -0.290  0.00  0.00    +0.129 C 
ATOM      7  C   LIG    1        5.278  -3.420  -1.277  0.00  0.00    -0.004 A 
ATOM      8  C   LIG    1        5.291  -3.795  -2.609  0.00  0.00    +0.007 A 
ATOM      9  C   LIG    1        6.517  -3.786  -3.280  0.00  0.00    +0.000 A 
ATOM     10  C   LIG    1        7.698  -3.410  -2.614  0.00  0.00    +0.002 A 
ATOM     11  C   LIG    1        7.676  -3.038  -1.265  0.00  0.00    +0.023 A 
ATOM     12  C   LIG    1        6.455  -3.048  -0.624  0.00  0.00    +0.038 A 
ATOM     13  N   LIG    1        6.188  -2.689   0.698  0.00  0.00    -0.284 N 
ATOM     14  H   LIG    1        6.870  -2.379   1.372  0.00  0.00    +0.155 HD
ENDBRANCH   1   6
BRANCH   2  15
ATOM     15  C   LIG    1        0.499  -3.748   0.056  0.00  0.00    +0.039 A 
ATOM     16  C   LIG    1        0.078  -4.277  -1.173  0.00  0.00    +0.027 A 
ATOM     17  C   LIG    1       -1.248  -4.662  -1.392  0.00  0.00    +0.030 A 
ATOM     18  C   LIG    1       -2.193  -4.526  -0.373  0.00  0.00    +0.067 A 
ATOM     19  C   LIG    1       -1.796  -3.996   0.859  0.00  0.00    +0.030 A 
ATOM     20  C   LIG    1       -0.462  -3.617   1.067  0.00  0.00    +0.027 A 
BRANCH  18  21
ATOM     21  N   LIG    1       -3.528  -4.944  -0.598  0.00  0.00    -0.220 N 
ATOM     22  N   LIG    1       -3.928  -5.494  -1.774  0.00  0.00    -0.154 NA
ATOM     23  C   LIG    1       -5.211  -5.766  -1.534  0.00  0.00    +0.245 A 
ATOM     24  N   LIG    1       -5.666  -5.418  -0.300  0.00  0.00    -0.222 NA
ATOM     25  C   LIG    1       -4.598  -4.901   0.262  0.00  0.00    +0.225 A 
ENDBRANCH  18  21
ENDBRANCH   2  15
TORSDOF 3
