REMARK  Name = pdb/CHEMBL3904287.pdb
REMARK                            x       y       z     vdW  Elec       q    Type
REMARK                         _______ _______ _______ _____ _____    ______ ____
ROOT
ATOM      1  C   LIG    1        0.649  -2.294   9.000  0.00  0.00    +0.149 A 
ATOM      2  N   LIG    1        1.293  -2.768  10.077  0.00  0.00    -0.160 NA
ATOM      3  N   LIG    1        1.189  -4.113   9.994  0.00  0.00    -0.218 N 
ATOM      4  C   LIG    1        0.629  -4.512   8.781  0.00  0.00    +0.129 A 
ATOM      5  C   LIG    1        0.202  -3.354   8.170  0.00  0.00    +0.078 A 
ENDROOT
BRANCH   3   6
ATOM      6  C   LIG    1        1.643  -4.921  11.071  0.00  0.00    +0.067 A 
ATOM      7  C   LIG    1        1.085  -6.179  11.314  0.00  0.00    +0.028 A 
ATOM      8  C   LIG    1        1.540  -6.956  12.382  0.00  0.00    +0.002 A 
ATOM      9  C   LIG    1        2.532  -6.467  13.229  0.00  0.00    +0.000 A 
ATOM     10  C   LIG    1        3.073  -5.202  13.008  0.00  0.00    +0.002 A 
ATOM     11  C   LIG    1        2.629  -4.425  11.936  0.00  0.00    +0.028 A 
ENDBRANCH   3   6
BRANCH   4  12
ATOM     12  N   LIG    1        0.608  -5.804   8.241  0.00  0.00    -0.266 N 
ATOM     13  H   LIG    1        1.216  -6.499   8.679  0.00  0.00    +0.157 HD
ATOM     14  C   LIG    1       -0.183  -6.181   7.109  0.00  0.00    +0.251 C 
ATOM     15  O   LIG    1       -0.957  -5.372   6.589  0.00  0.00    -0.270 OA
BRANCH  14  16
ATOM     16  C   LIG    1       -0.040  -7.538   6.560  0.00  0.00    +0.056 A 
ATOM     17  C   LIG    1        0.299  -8.672   7.314  0.00  0.00    +0.056 A 
ATOM     18 CL   LIG    1        0.505  -8.662   9.018  0.00  0.00    -0.083 Cl
ATOM     19  C   LIG    1        0.439  -9.909   6.691  0.00  0.00    +0.059 A 
ATOM     20  C   LIG    1        0.199 -10.037   5.327  0.00  0.00    +0.134 A 
ATOM     21  F   LIG    1        0.379 -11.250   4.788  0.00  0.00    -0.205 F 
ATOM     22  C   LIG    1       -0.218  -8.952   4.544  0.00  0.00    +0.036 A 
ATOM     23  C   LIG    1       -0.308  -7.709   5.182  0.00  0.00    +0.027 A 
BRANCH  22  24
ATOM     24  C   LIG    1       -0.597  -9.093   3.124  0.00  0.00    +0.074 A 
ATOM     25  N   LIG    1       -0.480  -7.966   2.376  0.00  0.00    -0.255 NA
ATOM     26  C   LIG    1       -0.881  -8.022   1.085  0.00  0.00    +0.111 A 
ATOM     27  C   LIG    1       -1.404  -9.154   0.488  0.00  0.00    +0.020 A 
ATOM     28  C   LIG    1       -1.519 -10.302   1.257  0.00  0.00    +0.004 A 
ATOM     29  C   LIG    1       -1.116 -10.272   2.589  0.00  0.00    +0.028 A 
ENDBRANCH  22  24
ENDBRANCH  14  16
ENDBRANCH   4  12
BRANCH   1  31
ATOM     30  N   LIG    1       -0.383  -0.441   7.941  0.00  0.00    -0.245 NA
ATOM     31  C   LIG    1        0.527  -0.860   8.737  0.00  0.00    +0.236 C 
BRANCH  31  32
ATOM     32  O   LIG    1        1.452  -0.098   9.358  0.00  0.00    -0.491 OA
ATOM     33  H   LIG    1        1.380   0.839   9.147  0.00  0.00    +0.294 HD
ENDBRANCH  31  32
BRANCH  30  34
ATOM     34  C   LIG    1       -0.597   0.963   7.629  0.00  0.00    +0.180 C 
BRANCH  34  38
ATOM     35  C   LIG    1       -4.853   1.461   6.858  0.00  0.00    +0.297 C 
ATOM     36  C   LIG    1       -3.920   1.084   5.738  0.00  0.00    +0.078 C 
ATOM     37  C   LIG    1       -2.608   0.965   6.025  0.00  0.00    +0.062 C 
ATOM     38  C   LIG    1       -2.072   1.174   7.374  0.00  0.00    -0.003 C 
ATOM     39  C   LIG    1       -2.941   1.538   8.338  0.00  0.00    +0.189 C 
ATOM     40  N   LIG    1       -4.283   1.689   8.091  0.00  0.00    -0.209 N 
ATOM     41  H   LIG    1       -4.918   1.860   8.859  0.00  0.00    +0.298 HD
BRANCH  35  43
ATOM     42  C   LIG    1       -6.788   1.371   5.480  0.00  0.00    +0.332 C 
ATOM     43  N   LIG    1       -6.137   1.582   6.763  0.00  0.00    -0.057 NA
ENDBRANCH  35  43
ENDBRANCH  34  38
ENDBRANCH  30  34
ENDBRANCH   1  31
TORSDOF 9
