REMARK  Name = pdb/CHEMBL3948987.pdb
REMARK                            x       y       z     vdW  Elec       q    Type
REMARK                         _______ _______ _______ _____ _____    ______ ____
ROOT
ATOM      1  C   LIG    1        3.449  -5.652  -1.251  0.00  0.00    +0.149 A 
ATOM      2  N   LIG    1        2.167  -5.744  -0.852  0.00  0.00    -0.160 NA
ATOM      3  N   LIG    1        1.879  -7.069  -0.878  0.00  0.00    -0.218 N 
ATOM      4  C   LIG    1        3.029  -7.841  -1.071  0.00  0.00    +0.129 A 
ATOM      5  C   LIG    1        4.009  -6.945  -1.428  0.00  0.00    +0.078 A 
ENDROOT
BRANCH   3   6
ATOM      6  C   LIG    1        0.547  -7.524  -0.658  0.00  0.00    +0.067 A 
ATOM      7  C   LIG    1       -0.344  -6.728   0.078  0.00  0.00    +0.028 A 
ATOM      8  C   LIG    1       -1.641  -7.182   0.336  0.00  0.00    +0.002 A 
ATOM      9  C   LIG    1       -2.067  -8.410  -0.167  0.00  0.00    +0.000 A 
ATOM     10  C   LIG    1       -1.200  -9.185  -0.935  0.00  0.00    +0.002 A 
ATOM     11  C   LIG    1        0.104  -8.746  -1.184  0.00  0.00    +0.028 A 
ENDBRANCH   3   6
BRANCH   4  12
ATOM     12  N   LIG    1        3.161  -9.222  -0.851  0.00  0.00    -0.266 N 
ATOM     13  H   LIG    1        2.355  -9.701  -0.474  0.00  0.00    +0.157 HD
ATOM     14  C   LIG    1        4.405  -9.946  -0.987  0.00  0.00    +0.251 C 
ATOM     15  O   LIG    1        5.418  -9.379  -1.320  0.00  0.00    -0.270 OA
BRANCH  14  16
ATOM     16  C   LIG    1        4.343 -11.413  -0.727  0.00  0.00    +0.056 A 
ATOM     17  C   LIG    1        5.451 -12.114  -0.237  0.00  0.00    +0.053 A 
ATOM     18 CL   LIG    1        6.918 -11.365   0.276  0.00  0.00    -0.083 Cl
ATOM     19  C   LIG    1        5.377 -13.502  -0.084  0.00  0.00    +0.021 A 
ATOM     20  C   LIG    1        4.194 -14.186  -0.374  0.00  0.00    +0.011 A 
ATOM     21  C   LIG    1        3.050 -13.513  -0.828  0.00  0.00    +0.004 A 
ATOM     22  C   LIG    1        3.162 -12.120  -1.027  0.00  0.00    +0.024 A 
BRANCH  21  23
ATOM     23  C   LIG    1        1.765 -14.209  -1.065  0.00  0.00    +0.106 A 
ATOM     24  C   LIG    1        1.665 -15.556  -1.427  0.00  0.00    +0.149 A 
ATOM     25  F   LIG    1        2.751 -16.318  -1.616  0.00  0.00    -0.203 F 
ATOM     26  C   LIG    1        0.415 -16.131  -1.617  0.00  0.00    +0.042 A 
ATOM     27  C   LIG    1       -0.722 -15.356  -1.434  0.00  0.00    +0.023 A 
ATOM     28  C   LIG    1       -0.556 -14.030  -1.066  0.00  0.00    +0.111 A 
ATOM     29  N   LIG    1        0.651 -13.437  -0.889  0.00  0.00    -0.252 NA
ENDBRANCH  21  23
ENDBRANCH  14  16
ENDBRANCH   4  12
BRANCH   1  31
ATOM     30  N   LIG    1        5.169  -4.299  -2.191  0.00  0.00    -0.243 NA
ATOM     31  C   LIG    1        4.156  -4.375  -1.405  0.00  0.00    +0.236 C 
BRANCH  31  32
ATOM     32  O   LIG    1        3.687  -3.362  -0.646  0.00  0.00    -0.491 OA
ATOM     33  H   LIG    1        4.339  -2.648  -0.566  0.00  0.00    +0.294 HD
ENDBRANCH  31  32
BRANCH  30  34
ATOM     34  C   LIG    1        5.825  -3.009  -2.415  0.00  0.00    +0.200 C 
BRANCH  34  37
ATOM     35  C   LIG    1        7.737  -1.845   0.514  0.00  0.00    +0.116 A 
ATOM     36  N   LIG    1        6.701  -2.110  -0.307  0.00  0.00    -0.235 NA
ATOM     37  C   LIG    1        6.981  -2.746  -1.477  0.00  0.00    +0.065 A 
ATOM     38  C   LIG    1        8.268  -3.152  -1.827  0.00  0.00    +0.025 A 
ATOM     39  C   LIG    1        9.318  -2.865  -0.964  0.00  0.00    +0.005 A 
ATOM     40  C   LIG    1        9.050  -2.193   0.222  0.00  0.00    +0.043 A 
BRANCH  35  41
ATOM     41  N   LIG    1        7.450  -1.140   1.680  0.00  0.00    -0.343 N 
ATOM     42  H   LIG    1        6.444  -1.021   1.734  0.00  0.00    +0.144 HD
ATOM     43  H   LIG    1        7.827  -1.599   2.501  0.00  0.00    +0.144 HD
ENDBRANCH  35  41
ENDBRANCH  34  37
ENDBRANCH  30  34
ENDBRANCH   1  31
TORSDOF 9
