REMARK  Name = pdb/CHEMBL3678301.pdb
REMARK                            x       y       z     vdW  Elec       q    Type
REMARK                         _______ _______ _______ _____ _____    ______ ____
ROOT
ATOM      1  C   LIG    1        2.381  -0.791  -3.156  0.00  0.00    +0.162 A 
ATOM      2  C   LIG    1        2.697  -1.772  -2.201  0.00  0.00    +0.162 A 
ATOM      3  C   LIG    1        3.907  -2.474  -2.318  0.00  0.00    +0.050 A 
ATOM      4  C   LIG    1        4.779  -2.234  -3.381  0.00  0.00    +0.009 A 
ATOM      5  C   LIG    1        4.453  -1.280  -4.346  0.00  0.00    -0.021 A 
ATOM      6  C   LIG    1        3.298  -0.511  -4.169  0.00  0.00    +0.055 A 
ENDROOT
BRANCH   1   8
ATOM      7  C   LIG    1        0.656   0.256  -4.378  0.00  0.00    +0.277 C 
ATOM      8  O   LIG    1        1.168  -0.145  -3.099  0.00  0.00    -0.491 OA
ENDBRANCH   1   8
BRANCH   5   9
ATOM      9  C   LIG    1        5.256  -1.035  -5.614  0.00  0.00    +0.119 C 
ATOM     10  C   LIG    1        6.274   0.076  -5.315  0.00  0.00    +0.036 C 
BRANCH   9  11
ATOM     11  N   LIG    1        5.769  -2.261  -6.224  0.00  0.00    -0.290 N 
ATOM     12  C   LIG    1        7.004  -2.398  -6.807  0.00  0.00    +0.162 A 
ATOM     13  N   LIG    1        7.949  -1.454  -6.976  0.00  0.00    -0.234 NA
ATOM     14  C   LIG    1        9.063  -1.918  -7.570  0.00  0.00    +0.130 A 
ATOM     15  C   LIG    1        9.257  -3.234  -7.984  0.00  0.00    +0.045 A 
ATOM     16  C   LIG    1        8.244  -4.184  -7.784  0.00  0.00    +0.050 A 
ATOM     17  C   LIG    1        7.077  -3.731  -7.183  0.00  0.00    +0.111 A 
ATOM     18  N   LIG    1        5.920  -4.391  -6.897  0.00  0.00    -0.213 NA
ATOM     19  C   LIG    1        5.122  -3.474  -6.408  0.00  0.00    +0.196 A 
BRANCH  19  20
ATOM     20  N   LIG    1        3.831  -3.705  -6.105  0.00  0.00    -0.329 N 
ATOM     21  H   LIG    1        3.595  -4.692  -6.210  0.00  0.00    +0.145 HD
ATOM     22  H   LIG    1        3.147  -3.164  -6.625  0.00  0.00    +0.145 HD
ENDBRANCH  19  20
BRANCH  15  23
ATOM     23  C   LIG    1       10.456  -3.632  -8.595  0.00  0.00    -0.065 C 
ATOM     24  C   LIG    1       11.408  -4.145  -9.105  0.00  0.00    -0.095 C 
BRANCH  24  25
ATOM     25  C   LIG    1       12.504  -4.941  -9.668  0.00  0.00    +0.117 C 
BRANCH  25  26
ATOM     26  C   LIG    1       12.781  -6.164  -8.781  0.00  0.00    +0.168 C 
BRANCH  26  27
ATOM     27  O   LIG    1       11.648  -7.026  -8.716  0.00  0.00    -0.394 OA
ATOM     28  H   LIG    1       10.912  -6.511  -8.338  0.00  0.00    +0.209 HD
ENDBRANCH  26  27
ENDBRANCH  25  26
ENDBRANCH  24  25
ENDBRANCH  15  23
ENDBRANCH   9  11
ENDBRANCH   5   9
BRANCH   2  29
ATOM     29  O   LIG    1        1.820  -1.967  -1.161  0.00  0.00    -0.484 OA
BRANCH  29  30
ATOM     30  C   LIG    1        1.812  -3.261  -0.550  0.00  0.00    +0.266 C 
BRANCH  30  31
ATOM     31  C   LIG    1        2.532  -3.331   0.778  0.00  0.00    +0.008 A 
ATOM     32  C   LIG    1        2.181  -4.326   1.682  0.00  0.00    +0.118 A 
ATOM     33  N   LIG    1        2.828  -4.569   2.843  0.00  0.00    -0.251 NA
ATOM     34  C   LIG    1        3.905  -3.792   3.151  0.00  0.00    +0.144 A 
ATOM     35  C   LIG    1        4.303  -2.742   2.323  0.00  0.00    +0.033 A 
ATOM     36  C   LIG    1        3.611  -2.516   1.130  0.00  0.00    +0.010 A 
BRANCH  34  37
ATOM     37  C   LIG    1        4.664  -4.093   4.435  0.00  0.00    +0.434 C 
ATOM     38  F   LIG    1        4.783  -5.429   4.690  0.00  0.00    -0.164 F 
ATOM     39  F   LIG    1        4.076  -3.551   5.540  0.00  0.00    -0.164 F 
ATOM     40  F   LIG    1        5.944  -3.614   4.431  0.00  0.00    -0.164 F 
ENDBRANCH  34  37
ENDBRANCH  30  31
ENDBRANCH  29  30
ENDBRANCH   2  29
TORSDOF 12
