REMARK  Name = pdb/CHEMBL3671432.pdb
REMARK                            x       y       z     vdW  Elec       q    Type
REMARK                         _______ _______ _______ _____ _____    ______ ____
ROOT
ATOM      1  C   LIG    1        3.747  -4.144   4.361  0.00  0.00    +0.042 A 
ATOM      2  C   LIG    1        3.608  -5.440   4.893  0.00  0.00    +0.038 A 
ATOM      3  C   LIG    1        4.280  -5.794   6.071  0.00  0.00    +0.052 A 
ATOM      4  C   LIG    1        5.083  -4.815   6.654  0.00  0.00    +0.134 A 
ATOM      5  N   LIG    1        5.217  -3.550   6.182  0.00  0.00    -0.261 NA
ATOM      6  C   LIG    1        4.529  -3.238   5.063  0.00  0.00    +0.122 A 
ENDROOT
BRANCH   3   7
ATOM      7  N   LIG    1        4.107  -7.093   6.609  0.00  0.00    -0.284 N 
ATOM      8  H   LIG    1        3.536  -7.744   6.076  0.00  0.00    +0.155 HD
ATOM      9  C   LIG    1        4.697  -7.576   7.770  0.00  0.00    +0.225 C 
ATOM     10  O   LIG    1        5.475  -6.961   8.497  0.00  0.00    -0.275 OA
BRANCH   9  11
ATOM     11  C   LIG    1        4.327  -9.002   8.118  0.00  0.00    +0.170 C 
BRANCH  11  12
ATOM     12  C   LIG    1        5.314  -9.902   7.474  0.00  0.00    +0.117 A 
ATOM     13  N   LIG    1        6.513 -10.232   8.060  0.00  0.00    -0.341 N 
ATOM     14  H   LIG    1        6.844  -9.908   8.959  0.00  0.00    +0.167 HD
ATOM     15  C   LIG    1        7.204 -11.039   7.194  0.00  0.00    +0.066 A 
ATOM     16  C   LIG    1        8.459 -11.648   7.269  0.00  0.00    +0.028 A 
ATOM     17  C   LIG    1        8.860 -12.398   6.156  0.00  0.00    +0.002 A 
ATOM     18  C   LIG    1        8.038 -12.529   5.033  0.00  0.00    +0.002 A 
ATOM     19  C   LIG    1        6.779 -11.916   4.990  0.00  0.00    +0.030 A 
ATOM     20  C   LIG    1        6.363 -11.158   6.093  0.00  0.00    +0.089 A 
ATOM     21  N   LIG    1        5.197 -10.457   6.285  0.00  0.00    -0.232 NA
ENDBRANCH  11  12
ENDBRANCH   9  11
ENDBRANCH   3   7
BRANCH   1  22
ATOM     22  C   LIG    1        3.017  -3.738   3.138  0.00  0.00    +0.197 C 
ATOM     23  O   LIG    1        1.921  -4.277   2.919  0.00  0.00    -0.287 OA
BRANCH  22  31
ATOM     24  N   LIG    1        5.019  -1.638   0.856  0.00  0.00    -0.323 N 
ATOM     25  C   LIG    1        3.743  -1.259   0.493  0.00  0.00    +0.147 A 
ATOM     26  N   LIG    1        3.429  -0.406  -0.494  0.00  0.00    -0.197 NA
ATOM     27  C   LIG    1        2.117  -0.202  -0.634  0.00  0.00    +0.214 A 
ATOM     28  N   LIG    1        1.147  -0.754   0.104  0.00  0.00    -0.222 NA
ATOM     29  C   LIG    1        1.490  -1.642   1.068  0.00  0.00    +0.126 A 
ATOM     30  C   LIG    1        2.834  -1.925   1.302  0.00  0.00    +0.048 A 
ATOM     31  C   LIG    1        3.568  -2.759   2.198  0.00  0.00    +0.051 A 
ATOM     32  C   LIG    1        4.907  -2.476   1.957  0.00  0.00    +0.100 A 
BRANCH  24  34
ATOM     33  C   LIG    1        7.510  -1.838   0.914  0.00  0.00    +0.036 C 
ATOM     34  C   LIG    1        6.281  -1.214   0.195  0.00  0.00    +0.064 C 
ATOM     35  C   LIG    1        6.451   0.318   0.256  0.00  0.00    +0.036 C 
BRANCH  34  36
ATOM     36  C   LIG    1        6.378  -1.693  -1.290  0.00  0.00    +0.183 C 
BRANCH  36  37
ATOM     37  O   LIG    1        5.491  -1.070  -2.208  0.00  0.00    -0.393 OA
ATOM     38  H   LIG    1        4.581  -1.353  -1.991  0.00  0.00    +0.209 HD
ENDBRANCH  36  37
ENDBRANCH  34  36
ENDBRANCH  24  34
BRANCH  27  39
ATOM     39  N   LIG    1        1.734   0.682  -1.623  0.00  0.00    -0.327 N 
ATOM     40  H   LIG    1        2.498   1.313  -1.825  0.00  0.00    +0.145 HD
ATOM     41  H   LIG    1        0.841   1.092  -1.392  0.00  0.00    +0.145 HD
ENDBRANCH  27  39
ENDBRANCH  22  31
ENDBRANCH   1  22
TORSDOF 9
