REMARK  Name = pdb/CHEMBL3960393.pdb
REMARK                            x       y       z     vdW  Elec       q    Type
REMARK                         _______ _______ _______ _____ _____    ______ ____
ROOT
ATOM      1  C   LIG    1        3.006  -4.152  -1.028  0.00  0.00    +0.126 A 
ATOM      2  N   LIG    1        2.254  -3.159  -1.459  0.00  0.00    -0.211 NA
ATOM      3  C   LIG    1        1.154  -3.465  -2.225  0.00  0.00    +0.179 A 
ATOM      4  C   LIG    1        0.193  -2.683  -2.838  0.00  0.00    +0.098 A 
ATOM      5  C   LIG    1       -0.640  -3.594  -3.519  0.00  0.00    +0.160 A 
ATOM      6  N   LIG    1       -0.267  -4.863  -3.352  0.00  0.00    -0.171 NA
ATOM      7  N   LIG    1        0.830  -4.780  -2.565  0.00  0.00    -0.220 N 
ATOM      8  C   LIG    1        1.596  -5.832  -2.099  0.00  0.00    +0.118 A 
ATOM      9  C   LIG    1        2.667  -5.595  -1.336  0.00  0.00    +0.063 A 
ENDROOT
BRANCH   1  11
ATOM     10  C   LIG    1        4.599  -2.520   0.058  0.00  0.00    +0.108 C 
ATOM     11  N   LIG    1        4.152  -3.879  -0.290  0.00  0.00    -0.308 N 
ATOM     12  C   LIG    1        4.970  -4.891   0.374  0.00  0.00    +0.107 C 
ATOM     13  C   LIG    1        6.041  -4.123   1.133  0.00  0.00    +0.021 C 
ATOM     14  C   LIG    1        5.411  -2.759   1.348  0.00  0.00    +0.029 C 
BRANCH  10  18
ATOM     15  F   LIG    1        6.476  -2.389  -4.498  0.00  0.00    -0.205 F 
ATOM     16  C   LIG    1        6.318  -1.800  -3.306  0.00  0.00    +0.124 A 
ATOM     17  C   LIG    1        5.600  -2.458  -2.311  0.00  0.00    +0.046 A 
ATOM     18  C   LIG    1        5.415  -1.868  -1.048  0.00  0.00    +0.011 A 
ATOM     19  C   LIG    1        5.972  -0.596  -0.846  0.00  0.00    +0.129 A 
ATOM     20  F   LIG    1        5.812   0.026   0.331  0.00  0.00    -0.205 F 
ATOM     21  C   LIG    1        6.698   0.060  -1.843  0.00  0.00    +0.041 A 
ATOM     22  C   LIG    1        6.871  -0.547  -3.084  0.00  0.00    +0.041 A 
ENDBRANCH  10  18
ENDBRANCH   1  11
BRANCH   4  23
ATOM     23  N   LIG    1        0.129  -1.304  -2.759  0.00  0.00    -0.276 N 
ATOM     24  H   LIG    1        0.758  -0.838  -2.109  0.00  0.00    +0.155 HD
ATOM     25  C   LIG    1       -0.667  -0.528  -3.573  0.00  0.00    +0.267 C 
ATOM     26  O   LIG    1       -1.395  -0.943  -4.479  0.00  0.00    -0.268 OA
BRANCH  25  27
ATOM     27  C   LIG    1       -0.583   0.941  -3.314  0.00  0.00    +0.127 A 
ATOM     28  N   LIG    1        0.266   1.340  -2.326  0.00  0.00    -0.250 NA
ATOM     29  C   LIG    1        0.340   2.668  -2.094  0.00  0.00    +0.113 A 
ATOM     30  C   LIG    1       -0.390   3.613  -2.792  0.00  0.00    +0.040 A 
ATOM     31  C   LIG    1       -1.245   3.164  -3.791  0.00  0.00    +0.045 A 
ATOM     32 CL   LIG    1       -2.180   4.298  -4.685  0.00  0.00    -0.083 Cl
ATOM     33  C   LIG    1       -1.353   1.811  -4.070  0.00  0.00    +0.053 A 
ENDBRANCH  25  27
ENDBRANCH   4  23
TORSDOF 4
