REMARK  Name = pdb/CHEMBL3675929.pdb
REMARK                            x       y       z     vdW  Elec       q    Type
REMARK                         _______ _______ _______ _____ _____    ______ ____
ROOT
ATOM      1  C   LIG    1        3.173  -5.304  -1.182  0.00  0.00    +0.126 A 
ATOM      2  N   LIG    1        2.817  -4.107  -1.595  0.00  0.00    -0.212 NA
ATOM      3  C   LIG    1        2.032  -4.017  -2.717  0.00  0.00    +0.170 A 
ATOM      4  C   LIG    1        1.502  -2.927  -3.384  0.00  0.00    +0.100 A 
ATOM      5  C   LIG    1        0.821  -3.489  -4.483  0.00  0.00    +0.150 A 
ATOM      6  N   LIG    1        0.890  -4.821  -4.519  0.00  0.00    -0.173 NA
ATOM      7  N   LIG    1        1.615  -5.145  -3.423  0.00  0.00    -0.221 N 
ATOM      8  C   LIG    1        1.938  -6.411  -2.968  0.00  0.00    +0.118 A 
ATOM      9  C   LIG    1        2.675  -6.559  -1.862  0.00  0.00    +0.063 A 
ENDROOT
BRANCH   1  11
ATOM     10  C   LIG    1        4.468  -4.241   0.692  0.00  0.00    +0.107 C 
ATOM     11  N   LIG    1        4.014  -5.418  -0.081  0.00  0.00    -0.308 N 
ATOM     12  C   LIG    1        4.967  -6.515   0.071  0.00  0.00    +0.107 C 
ATOM     13  C   LIG    1        6.269  -5.815   0.415  0.00  0.00    +0.021 C 
ATOM     14  C   LIG    1        5.802  -4.692   1.323  0.00  0.00    +0.029 C 
BRANCH  10  18
ATOM     15  F   LIG    1        2.983  -1.236   4.282  0.00  0.00    -0.204 F 
ATOM     16  C   LIG    1        2.760  -2.295   3.494  0.00  0.00    +0.142 A 
ATOM     17  C   LIG    1        3.721  -2.700   2.574  0.00  0.00    +0.046 A 
ATOM     18  C   LIG    1        3.466  -3.799   1.740  0.00  0.00    -0.006 A 
ATOM     19  C   LIG    1        2.235  -4.436   1.914  0.00  0.00    +0.116 A 
ATOM     20  N   LIG    1        1.288  -4.069   2.814  0.00  0.00    -0.260 NA
ATOM     21  C   LIG    1        1.571  -2.994   3.579  0.00  0.00    +0.149 A 
ENDBRANCH  10  18
ENDBRANCH   1  11
BRANCH   4  22
ATOM     22  C   LIG    1        1.617  -1.521  -3.047  0.00  0.00    +0.249 C 
ATOM     23  N   LIG    1        2.346  -1.271  -1.900  0.00  0.00    -0.308 N 
ATOM     24  H   LIG    1        2.718  -2.081  -1.408  0.00  0.00    +0.149 HD
ATOM     25  O   LIG    1        1.101  -0.648  -3.731  0.00  0.00    -0.270 OA
BRANCH  23  26
ATOM     26  C   LIG    1        2.580   0.036  -1.386  0.00  0.00    +0.073 C 
ATOM     27  C   LIG    1        3.954   0.642  -1.453  0.00  0.00    +0.024 C 
ATOM     28  C   LIG    1        3.384   0.227  -0.129  0.00  0.00    +0.024 C 
ENDBRANCH  23  26
ENDBRANCH   4  22
TORSDOF 4
