REMARK  Name = pdb/CHEMBL3675940.pdb
REMARK                            x       y       z     vdW  Elec       q    Type
REMARK                         _______ _______ _______ _____ _____    ______ ____
ROOT
ATOM      1  N   LIG    1        1.404   5.287   0.278  0.00  0.00    -0.308 N 
ATOM      2  C   LIG    1        1.823   6.693   0.484  0.00  0.00    +0.106 C 
ATOM      3  C   LIG    1        1.100   7.426  -0.660  0.00  0.00    +0.029 C 
ATOM      4  C   LIG    1        1.062   6.406  -1.780  0.00  0.00    +0.021 C 
ATOM      5  C   LIG    1        0.773   5.112  -1.035  0.00  0.00    +0.107 C 
ENDROOT
BRANCH   1   9
ATOM      6  C   LIG    1        0.060   0.948   2.001  0.00  0.00    +0.100 A 
ATOM      7  C   LIG    1        0.672   2.192   1.948  0.00  0.00    +0.170 A 
ATOM      8  N   LIG    1        0.675   3.188   0.997  0.00  0.00    -0.212 NA
ATOM      9  C   LIG    1        1.342   4.298   1.254  0.00  0.00    +0.126 A 
ATOM     10  C   LIG    1        2.065   4.495   2.566  0.00  0.00    +0.063 A 
ATOM     11  C   LIG    1        2.063   3.481   3.435  0.00  0.00    +0.118 A 
ATOM     12  N   LIG    1        1.379   2.316   3.144  0.00  0.00    -0.221 N 
ATOM     13  N   LIG    1        1.290   1.207   3.915  0.00  0.00    -0.173 NA
ATOM     14  C   LIG    1        0.502   0.391   3.219  0.00  0.00    +0.150 A 
BRANCH   6  18
ATOM     15  N   LIG    1       -1.146   1.079  -0.042  0.00  0.00    -0.325 N 
ATOM     16  H   LIG    1       -0.760   2.012  -0.150  0.00  0.00    +0.145 HD
ATOM     17  H   LIG    1       -1.780   0.702  -0.728  0.00  0.00    +0.145 HD
ATOM     18  C   LIG    1       -0.828   0.330   1.047  0.00  0.00    +0.247 C 
ATOM     19  O   LIG    1       -1.294  -0.801   1.199  0.00  0.00    -0.270 OA
ENDBRANCH   6  18
ENDBRANCH   1   9
BRANCH   2  20
ATOM     20  C   LIG    1        3.352   6.881   0.486  0.00  0.00    -0.013 A 
ATOM     21  C   LIG    1        3.995   8.123   0.757  0.00  0.00    +0.060 A 
ATOM     22  C   LIG    1        5.414   8.179   0.801  0.00  0.00    +0.015 A 
ATOM     23  C   LIG    1        6.198   7.048   0.605  0.00  0.00    +0.039 A 
ATOM     24  C   LIG    1        5.575   5.844   0.349  0.00  0.00    +0.124 A 
ATOM     25  F   LIG    1        6.313   4.740   0.178  0.00  0.00    -0.205 F 
ATOM     26  C   LIG    1        4.188   5.758   0.278  0.00  0.00    +0.044 A 
BRANCH  21  27
ATOM     27  C   LIG    1        3.314   9.455   1.025  0.00  0.00    +0.418 C 
ATOM     28  F   LIG    1        3.681  10.400   0.113  0.00  0.00    -0.166 F 
ATOM     29  F   LIG    1        3.661   9.967   2.240  0.00  0.00    -0.166 F 
ATOM     30  F   LIG    1        1.958   9.430   1.016  0.00  0.00    -0.166 F 
ENDBRANCH  21  27
ENDBRANCH   2  20
TORSDOF 4
