REMARK  Name = pdb/CHEMBL3676024.pdb
REMARK                            x       y       z     vdW  Elec       q    Type
REMARK                         _______ _______ _______ _____ _____    ______ ____
ROOT
ATOM      1  C   LIG    1        4.491  -0.379  -0.582  0.00  0.00    +0.100 A 
ATOM      2  C   LIG    1        5.189   0.660   0.026  0.00  0.00    +0.170 A 
ATOM      3  N   LIG    1        5.095   2.030  -0.065  0.00  0.00    -0.212 NA
ATOM      4  C   LIG    1        5.889   2.759   0.696  0.00  0.00    +0.126 A 
ATOM      5  C   LIG    1        6.924   2.122   1.594  0.00  0.00    +0.063 A 
ATOM      6  C   LIG    1        6.985   0.791   1.630  0.00  0.00    +0.118 A 
ATOM      7  N   LIG    1        6.117   0.038   0.867  0.00  0.00    -0.221 N 
ATOM      8  N   LIG    1        6.048  -1.311   0.815  0.00  0.00    -0.173 NA
ATOM      9  C   LIG    1        5.064  -1.549  -0.043  0.00  0.00    +0.150 A 
ENDROOT
BRANCH   1  13
ATOM     10  C   LIG    1        2.464   0.981  -3.397  0.00  0.00    +0.128 C 
ATOM     11  N   LIG    1        3.413   0.802  -2.333  0.00  0.00    -0.314 N 
ATOM     12  H   LIG    1        4.114   1.520  -2.144  0.00  0.00    +0.149 HD
ATOM     13  C   LIG    1        3.426  -0.327  -1.558  0.00  0.00    +0.249 C 
ATOM     14  O   LIG    1        2.631  -1.262  -1.708  0.00  0.00    -0.270 OA
ENDBRANCH   1  13
BRANCH   4  15
ATOM     15  N   LIG    1        5.797   4.148   0.669  0.00  0.00    -0.308 N 
ATOM     16  C   LIG    1        6.111   4.987   1.850  0.00  0.00    +0.110 C 
ATOM     17  C   LIG    1        5.246   6.244   1.672  0.00  0.00    +0.029 C 
ATOM     18  C   LIG    1        5.005   6.309   0.173  0.00  0.00    +0.021 C 
ATOM     19  C   LIG    1        4.825   4.838  -0.183  0.00  0.00    +0.107 C 
BRANCH  16  20
ATOM     20  C   LIG    1        7.590   5.294   1.977  0.00  0.00    +0.037 A 
ATOM     21  C   LIG    1        8.163   5.505   3.238  0.00  0.00    +0.220 A 
ATOM     22  N   LIG    1        9.489   5.679   3.456  0.00  0.00    -0.218 NA
ATOM     23  C   LIG    1       10.288   5.680   2.365  0.00  0.00    +0.153 A 
ATOM     24  C   LIG    1        9.815   5.533   1.075  0.00  0.00    +0.142 A 
ATOM     25  F   LIG    1       10.655   5.558   0.034  0.00  0.00    -0.204 F 
ATOM     26  C   LIG    1        8.455   5.341   0.874  0.00  0.00    +0.050 A 
BRANCH  21  27
ATOM     27  O   LIG    1        7.327   5.459   4.334  0.00  0.00    -0.479 OA
ATOM     28  C   LIG    1        7.801   6.269   5.407  0.00  0.00    +0.279 C 
ENDBRANCH  21  27
ENDBRANCH  16  20
ENDBRANCH   4  15
TORSDOF 4
