REMARK  Name = pdb/CHEMBL3922194.pdb
REMARK                            x       y       z     vdW  Elec       q    Type
REMARK                         _______ _______ _______ _____ _____    ______ ____
ROOT
ATOM      1  C   LIG    1        4.430  -5.867   0.609  0.00  0.00    +0.149 A 
ATOM      2  N   LIG    1        4.510  -7.114   0.133  0.00  0.00    -0.160 NA
ATOM      3  N   LIG    1        5.824  -7.443   0.179  0.00  0.00    -0.218 N 
ATOM      4  C   LIG    1        6.611  -6.337   0.530  0.00  0.00    +0.129 A 
ATOM      5  C   LIG    1        5.718  -5.351   0.870  0.00  0.00    +0.078 A 
ENDROOT
BRANCH   3   6
ATOM      6  C   LIG    1        6.200  -8.768  -0.174  0.00  0.00    +0.067 A 
ATOM      7  C   LIG    1        7.363  -9.369   0.314  0.00  0.00    +0.028 A 
ATOM      8  C   LIG    1        7.678 -10.681  -0.057  0.00  0.00    +0.002 A 
ATOM      9  C   LIG    1        6.835 -11.397  -0.909  0.00  0.00    +0.000 A 
ATOM     10  C   LIG    1        5.663 -10.813  -1.377  0.00  0.00    +0.002 A 
ATOM     11  C   LIG    1        5.338  -9.511  -1.001  0.00  0.00    +0.028 A 
ENDBRANCH   3   6
BRANCH   4  12
ATOM     12  N   LIG    1        8.014  -6.216   0.460  0.00  0.00    -0.266 N 
ATOM     13  H   LIG    1        8.541  -7.017   0.146  0.00  0.00    +0.157 HD
ATOM     14  C   LIG    1        8.724  -4.989   0.732  0.00  0.00    +0.251 C 
ATOM     15  O   LIG    1        8.117  -3.965   1.040  0.00  0.00    -0.270 OA
BRANCH  14  16
ATOM     16  C   LIG    1       10.192  -4.940   0.568  0.00  0.00    +0.056 A 
ATOM     17  C   LIG    1       11.028  -6.027   0.793  0.00  0.00    +0.054 A 
ATOM     18 CL   LIG    1       10.479  -7.547   1.386  0.00  0.00    -0.083 Cl
ATOM     19  C   LIG    1       12.397  -5.901   0.561  0.00  0.00    +0.041 A 
ATOM     20  C   LIG    1       12.953  -4.683   0.139  0.00  0.00    +0.052 A 
ATOM     21 CL   LIG    1       14.618  -4.774  -0.328  0.00  0.00    -0.083 Cl
ATOM     22  C   LIG    1       12.165  -3.522   0.022  0.00  0.00    +0.022 A 
ATOM     23  C   LIG    1       10.768  -3.700   0.205  0.00  0.00    +0.026 A 
BRANCH  22  24
ATOM     24  C   LIG    1       12.685  -2.160  -0.283  0.00  0.00    +0.107 A 
ATOM     25  C   LIG    1       13.919  -1.667   0.154  0.00  0.00    +0.149 A 
ATOM     26  F   LIG    1       14.703  -2.360   0.990  0.00  0.00    -0.203 F 
ATOM     27  C   LIG    1       14.343  -0.398  -0.225  0.00  0.00    +0.042 A 
ATOM     28  C   LIG    1       13.492   0.406  -0.967  0.00  0.00    +0.023 A 
ATOM     29  C   LIG    1       12.248  -0.103  -1.297  0.00  0.00    +0.111 A 
ATOM     30  N   LIG    1       11.834  -1.360  -0.990  0.00  0.00    -0.252 NA
ENDBRANCH  22  24
ENDBRANCH  14  16
ENDBRANCH   4  12
BRANCH   1  32
ATOM     31  N   LIG    1        3.053  -4.224   1.623  0.00  0.00    -0.243 NA
ATOM     32  C   LIG    1        3.152  -5.178   0.772  0.00  0.00    +0.236 C 
BRANCH  32  33
ATOM     33  O   LIG    1        2.166  -5.625  -0.032  0.00  0.00    -0.491 OA
ATOM     34  H   LIG    1        1.324  -5.185   0.122  0.00  0.00    +0.294 HD
ENDBRANCH  32  33
BRANCH  31  35
ATOM     35  C   LIG    1        1.805  -3.512   1.834  0.00  0.00    +0.202 C 
BRANCH  35  38
ATOM     36  C   LIG    1        2.556  -4.088   4.833  0.00  0.00    +0.174 C 
ATOM     37  N   LIG    1        1.341  -4.443   4.146  0.00  0.00    -0.250 N 
ATOM     38  C   LIG    1        0.979  -4.211   2.843  0.00  0.00    +0.080 A 
ATOM     39  C   LIG    1       -0.286  -4.757   2.769  0.00  0.00    +0.161 A 
ATOM     40  N   LIG    1       -0.630  -5.298   3.972  0.00  0.00    -0.138 NA
ATOM     41  N   LIG    1        0.375  -5.100   4.811  0.00  0.00    -0.066 NA
ENDBRANCH  35  38
ENDBRANCH  31  35
ENDBRANCH   1  32
TORSDOF 8
