REMARK  Name = pdb/CHEMBL3675958.pdb
REMARK                            x       y       z     vdW  Elec       q    Type
REMARK                         _______ _______ _______ _____ _____    ______ ____
ROOT
ATOM      1  C   LIG    1        6.618  -4.588  -5.086  0.00  0.00    +0.102 A 
ATOM      2  C   LIG    1        6.644  -3.259  -4.700  0.00  0.00    +0.170 A 
ATOM      3  N   LIG    1        6.698  -2.080  -5.412  0.00  0.00    -0.212 NA
ATOM      4  C   LIG    1        6.791  -0.951  -4.737  0.00  0.00    +0.126 A 
ATOM      5  C   LIG    1        6.737  -0.924  -3.225  0.00  0.00    +0.063 A 
ATOM      6  C   LIG    1        6.677  -2.095  -2.585  0.00  0.00    +0.118 A 
ATOM      7  N   LIG    1        6.648  -3.275  -3.302  0.00  0.00    -0.221 N 
ATOM      8  N   LIG    1        6.612  -4.527  -2.798  0.00  0.00    -0.173 NA
ATOM      9  C   LIG    1        6.622  -5.312  -3.876  0.00  0.00    +0.150 A 
ENDROOT
BRANCH   4  10
ATOM     10  N   LIG    1        6.938   0.258  -5.411  0.00  0.00    -0.308 N 
ATOM     11  C   LIG    1        7.030   0.336  -6.882  0.00  0.00    +0.107 C 
ATOM     12  C   LIG    1        7.890   1.585  -7.151  0.00  0.00    +0.029 C 
ATOM     13  C   LIG    1        7.717   2.437  -5.908  0.00  0.00    +0.021 C 
ATOM     14  C   LIG    1        7.626   1.401  -4.803  0.00  0.00    +0.107 C 
BRANCH  11  15
ATOM     15  C   LIG    1        5.663   0.410  -7.543  0.00  0.00    -0.001 A 
ATOM     16  CA  LIG    1        5.449  -0.076  -8.850  0.00  0.00    +0.072 A 
ATOM     17  N   LIG    1        4.222  -0.069  -9.456  0.00  0.00    -0.254 NA
ATOM     18  C   LIG    1        3.186   0.456  -8.757  0.00  0.00    +0.149 A 
ATOM     19  C   LIG    1        3.312   0.984  -7.489  0.00  0.00    +0.142 A 
ATOM     20  F   LIG    1        2.252   1.492  -6.848  0.00  0.00    -0.204 F 
ATOM     21  C   LIG    1        4.556   0.968  -6.878  0.00  0.00    +0.047 A 
BRANCH  16  22
ATOM     22  C   LIG    1        6.590  -0.637  -9.684  0.00  0.00    +0.211 C 
BRANCH  22  23
ATOM     23  O   LIG    1        6.158  -1.117 -10.956  0.00  0.00    -0.389 OA
ATOM     24  H   LIG    1        5.183  -1.033 -10.952  0.00  0.00    +0.210 HD
ENDBRANCH  22  23
ENDBRANCH  16  22
ENDBRANCH  11  15
ENDBRANCH   4  10
BRANCH   1  27
ATOM     25  N   LIG    1        6.045  -4.363  -7.374  0.00  0.00    -0.191 N 
ATOM     26  H   LIG    1        5.655  -3.454  -7.167  0.00  0.00    +0.183 HD
ATOM     27  C   LIG    1        6.615  -5.171  -6.414  0.00  0.00    +0.272 C 
ATOM     28  O   LIG    1        7.036  -6.296  -6.609  0.00  0.00    -0.268 OA
BRANCH  25  30
ATOM     29  C   LIG    1        4.756  -4.471  -9.294  0.00  0.00    +0.226 C 
ATOM     30  O   LIG    1        5.965  -4.896  -8.677  0.00  0.00    -0.283 OA
ENDBRANCH  25  30
ENDBRANCH   1  27
TORSDOF 6
