REMARK  Name = pdb/CHEMBL3678286.pdb
REMARK                            x       y       z     vdW  Elec       q    Type
REMARK                         _______ _______ _______ _____ _____    ______ ____
ROOT
ATOM      1  C   LIG    1        2.863   0.986   1.952  0.00  0.00    +0.162 A 
ATOM      2  C   LIG    1        3.242  -0.364   1.994  0.00  0.00    +0.162 A 
ATOM      3  C   LIG    1        4.303  -0.755   2.819  0.00  0.00    +0.050 A 
ATOM      4  C   LIG    1        5.008   0.179   3.563  0.00  0.00    +0.009 A 
ATOM      5  C   LIG    1        4.637   1.525   3.551  0.00  0.00    -0.024 A 
ATOM      6  C   LIG    1        3.565   1.918   2.736  0.00  0.00    +0.054 A 
ENDROOT
BRANCH   1   8
ATOM      7  C   LIG    1        1.416   0.901   0.048  0.00  0.00    +0.277 C 
ATOM      8  O   LIG    1        1.819   1.538   1.254  0.00  0.00    -0.491 OA
ENDBRANCH   1   8
BRANCH   2   9
ATOM      9  O   LIG    1        2.541  -1.288   1.270  0.00  0.00    -0.484 OA
BRANCH   9  10
ATOM     10  C   LIG    1        3.281  -2.447   0.895  0.00  0.00    +0.264 C 
BRANCH  10  11
ATOM     11  C   LIG    1        2.713  -2.960  -0.394  0.00  0.00    -0.010 A 
ATOM     12  C   LIG    1        3.193  -2.460  -1.610  0.00  0.00    +0.007 A 
ATOM     13  C   LIG    1        2.677  -2.933  -2.813  0.00  0.00    +0.004 A 
ATOM     14  C   LIG    1        1.675  -3.913  -2.816  0.00  0.00    -0.039 A 
ATOM     15  C   LIG    1        1.179  -4.392  -1.596  0.00  0.00    +0.004 A 
ATOM     16  C   LIG    1        1.691  -3.914  -0.393  0.00  0.00    +0.007 A 
BRANCH  14  17
ATOM     17  C   LIG    1        1.112  -4.427  -4.115  0.00  0.00    +0.148 C 
BRANCH  17  18
ATOM     18  C   LIG    1        2.113  -5.113  -5.035  0.00  0.00    +0.394 C 
ATOM     19  F   LIG    1        2.173  -4.466  -6.225  0.00  0.00    -0.170 F 
ATOM     20  F   LIG    1        1.730  -6.386  -5.292  0.00  0.00    -0.170 F 
ATOM     21  F   LIG    1        3.370  -5.164  -4.549  0.00  0.00    -0.170 F 
ENDBRANCH  17  18
ENDBRANCH  14  17
ENDBRANCH  10  11
ENDBRANCH   9  10
ENDBRANCH   2   9
BRANCH   5  22
ATOM     22  C   LIG    1        5.360   2.499   4.451  0.00  0.00    +0.161 C 
BRANCH  22  23
ATOM     23  N   LIG    1        4.730   2.635   5.749  0.00  0.00    -0.293 N 
ATOM     24  C   LIG    1        4.236   3.810   6.264  0.00  0.00    +0.162 A 
ATOM     25  N   LIG    1        4.244   5.033   5.696  0.00  0.00    -0.235 NA
ATOM     26  C   LIG    1        3.684   5.976   6.505  0.00  0.00    +0.121 A 
ATOM     27  C   LIG    1        3.146   5.771   7.783  0.00  0.00    +0.005 A 
ATOM     28  C   LIG    1        3.169   4.470   8.300  0.00  0.00    +0.041 A 
ATOM     29  C   LIG    1        3.737   3.465   7.514  0.00  0.00    +0.110 A 
ATOM     30  N   LIG    1        3.922   2.132   7.766  0.00  0.00    -0.213 NA
ATOM     31  C   LIG    1        4.555   1.672   6.724  0.00  0.00    +0.195 A 
BRANCH  27  32
ATOM     32  C   LIG    1        2.587   6.868   8.552  0.00  0.00    +0.021 A 
ATOM     33  C   LIG    1        2.582   6.944   9.931  0.00  0.00    +0.116 A 
ATOM     34  N   LIG    1        1.976   8.124  10.251  0.00  0.00    -0.274 N 
ATOM     35  C   LIG    1        1.761   8.646  11.579  0.00  0.00    +0.172 C 
ATOM     36  N   LIG    1        1.590   8.835   9.176  0.00  0.00    -0.179 NA
ATOM     37  C   LIG    1        1.956   8.067   8.146  0.00  0.00    +0.143 A 
ENDBRANCH  27  32
BRANCH  31  38
ATOM     38  N   LIG    1        4.999   0.403   6.602  0.00  0.00    -0.329 N 
ATOM     39  H   LIG    1        4.619  -0.197   7.330  0.00  0.00    +0.145 HD
ATOM     40  H   LIG    1        6.005   0.297   6.600  0.00  0.00    +0.145 HD
ENDBRANCH  31  38
ENDBRANCH  22  23
ENDBRANCH   5  22
TORSDOF 10
