REMARK  Name = pdb/CHEMBL3676040.pdb
REMARK                            x       y       z     vdW  Elec       q    Type
REMARK                         _______ _______ _______ _____ _____    ______ ____
ROOT
ATOM      1  C   LIG    1        8.906   1.740  -4.241  0.00  0.00    +0.100 A 
ATOM      2  C   LIG    1        9.927   2.639  -3.977  0.00  0.00    +0.170 A 
ATOM      3  N   LIG    1        9.946   4.009  -3.839  0.00  0.00    -0.212 NA
ATOM      4  C   LIG    1       11.095   4.594  -3.566  0.00  0.00    +0.126 A 
ATOM      5  C   LIG    1       12.385   3.805  -3.500  0.00  0.00    +0.063 A 
ATOM      6  C   LIG    1       12.307   2.477  -3.627  0.00  0.00    +0.118 A 
ATOM      7  N   LIG    1       11.084   1.871  -3.841  0.00  0.00    -0.221 N 
ATOM      8  N   LIG    1       10.839   0.545  -3.944  0.00  0.00    -0.173 NA
ATOM      9  C   LIG    1        9.528   0.475  -4.175  0.00  0.00    +0.150 A 
ENDROOT
BRANCH   4  10
ATOM     10  N   LIG    1       11.128   5.965  -3.333  0.00  0.00    -0.308 N 
ATOM     11  C   LIG    1       12.156   6.621  -2.501  0.00  0.00    +0.108 C 
ATOM     12  C   LIG    1       11.361   7.689  -1.731  0.00  0.00    +0.029 C 
ATOM     13  C   LIG    1       10.295   8.108  -2.724  0.00  0.00    +0.021 C 
ATOM     14  C   LIG    1        9.910   6.786  -3.380  0.00  0.00    +0.107 C 
BRANCH  11  15
ATOM     15  C   LIG    1       13.278   7.224  -3.328  0.00  0.00    +0.011 A 
ATOM     16  C   LIG    1       14.283   7.956  -2.678  0.00  0.00    +0.129 A 
ATOM     17  F   LIG    1       14.262   8.075  -1.342  0.00  0.00    -0.205 F 
ATOM     18  C   LIG    1       15.309   8.585  -3.379  0.00  0.00    +0.041 A 
ATOM     19  C   LIG    1       15.362   8.471  -4.765  0.00  0.00    +0.041 A 
ATOM     20  C   LIG    1       14.397   7.717  -5.423  0.00  0.00    +0.124 A 
ATOM     21  F   LIG    1       14.451   7.601  -6.756  0.00  0.00    -0.205 F 
ATOM     22  C   LIG    1       13.367   7.093  -4.724  0.00  0.00    +0.046 A 
ENDBRANCH  11  15
ENDBRANCH   4  10
BRANCH   1  25
ATOM     23  N   LIG    1        7.140   3.311  -4.498  0.00  0.00    -0.310 N 
ATOM     24  H   LIG    1        7.859   4.012  -4.325  0.00  0.00    +0.149 HD
ATOM     25  C   LIG    1        7.504   1.984  -4.519  0.00  0.00    +0.249 C 
ATOM     26  O   LIG    1        6.718   1.079  -4.755  0.00  0.00    -0.270 OA
BRANCH  23  27
ATOM     27  C   LIG    1        5.804   3.735  -4.853  0.00  0.00    +0.120 C 
BRANCH  27  28
ATOM     28  C   LIG    1        5.639   5.267  -4.839  0.00  0.00    +0.103 C 
BRANCH  28  33
ATOM     29  C   LIG    1        5.189   8.418  -8.519  0.00  0.00    +0.105 C 
ATOM     30  N   LIG    1        4.567   7.592  -7.487  0.00  0.00    -0.303 NA
ATOM     31  C   LIG    1        4.975   8.012  -6.131  0.00  0.00    +0.099 C 
ATOM     32  C   LIG    1        6.340   7.467  -5.638  0.00  0.00    +0.100 C 
ATOM     33  N   LIG    1        6.513   6.003  -5.784  0.00  0.00    -0.298 NA
ATOM     34  C   LIG    1        6.229   5.671  -7.198  0.00  0.00    +0.100 C 
ATOM     35  C   LIG    1        4.848   6.158  -7.704  0.00  0.00    +0.099 C 
ENDBRANCH  28  33
ENDBRANCH  27  28
ENDBRANCH  23  27
ENDBRANCH   1  25
TORSDOF 6
