REMARK  Name = pdb/CHEMBL3582432.pdb
REMARK                            x       y       z     vdW  Elec       q    Type
REMARK                         _______ _______ _______ _____ _____    ______ ____
ROOT
ATOM      1  C   LIG    1        4.404  -4.963  -2.371  0.00  0.00    +0.140 A 
ATOM      2  N   LIG    1        3.761  -5.705  -1.511  0.00  0.00    -0.150 NA
ATOM      3  N   LIG    1        4.505  -6.695  -0.929  0.00  0.00    -0.211 N 
ATOM      4  C   LIG    1        4.062  -7.615   0.009  0.00  0.00    +0.093 A 
ATOM      5  C   LIG    1        5.183  -8.394   0.263  0.00  0.00    +0.141 A 
ATOM      6  N   LIG    1        6.271  -7.995  -0.463  0.00  0.00    -0.234 NA
ATOM      7  C   LIG    1        5.842  -6.973  -1.167  0.00  0.00    +0.155 A 
ATOM      8  C   LIG    1        6.519  -6.154  -2.090  0.00  0.00    +0.051 A 
ATOM      9  C   LIG    1        5.855  -5.164  -2.693  0.00  0.00    +0.049 A 
ENDROOT
BRANCH   4  10
ATOM     10  C   LIG    1        2.713  -7.726   0.570  0.00  0.00    +0.002 A 
ATOM     11  C   LIG    1        1.561  -7.441  -0.173  0.00  0.00    +0.012 A 
ATOM     12  C   LIG    1        0.284  -7.668   0.363  0.00  0.00    +0.024 A 
ATOM     13  C   LIG    1        0.136  -8.213   1.641  0.00  0.00    +0.033 A 
ATOM     14  C   LIG    1        1.277  -8.438   2.408  0.00  0.00    +0.024 A 
ATOM     15  C   LIG    1        2.549  -8.201   1.877  0.00  0.00    +0.012 A 
BRANCH  13  16
ATOM     16  N   LIG    1       -1.167  -8.542   2.077  0.00  0.00    -0.285 N 
ATOM     17  H   LIG    1       -1.923  -8.257   1.469  0.00  0.00    +0.155 HD
ATOM     18  C   LIG    1       -1.478  -9.417   3.106  0.00  0.00    +0.220 C 
ATOM     19  O   LIG    1       -0.658 -10.035   3.787  0.00  0.00    -0.275 OA
BRANCH  18  20
ATOM     20  C   LIG    1       -2.983  -9.650   3.282  0.00  0.00    +0.080 C 
ATOM     21  C   LIG    1       -3.753  -8.350   3.545  0.00  0.00    +0.041 C 
ATOM     22  C   LIG    1       -3.572  -7.870   4.980  0.00  0.00    +0.160 C 
ATOM     23  O   LIG    1       -3.944  -8.893   5.898  0.00  0.00    -0.380 OA
ATOM     24  C   LIG    1       -3.107 -10.043   5.782  0.00  0.00    +0.160 C 
ATOM     25  C   LIG    1       -3.261 -10.668   4.400  0.00  0.00    +0.041 C 
ENDBRANCH  18  20
ENDBRANCH  13  16
ENDBRANCH   4  10
BRANCH   1  26
ATOM     26  N   LIG    1        3.741  -3.959  -3.037  0.00  0.00    -0.324 N 
ATOM     27  H   LIG    1        4.269  -3.322  -3.619  0.00  0.00    +0.148 HD
BRANCH  26  28
ATOM     28  C   LIG    1        2.354  -3.608  -2.828  0.00  0.00    +0.138 C 
BRANCH  28  32
ATOM     29  F   LIG    1        2.185   1.095  -1.505  0.00  0.00    -0.205 F 
ATOM     30  C   LIG    1        2.148  -0.197  -1.151  0.00  0.00    +0.124 A 
ATOM     31  C   LIG    1        2.256  -1.177  -2.133  0.00  0.00    +0.043 A 
ATOM     32  C   LIG    1        2.218  -2.533  -1.779  0.00  0.00    -0.028 A 
ATOM     33  C   LIG    1        2.070  -2.871  -0.423  0.00  0.00    +0.005 A 
ATOM     34  C   LIG    1        1.963  -1.878   0.555  0.00  0.00    +0.003 A 
ATOM     35  C   LIG    1        2.004  -0.534   0.190  0.00  0.00    +0.038 A 
ENDBRANCH  28  32
ENDBRANCH  26  28
ENDBRANCH   1  26
TORSDOF 6
