REMARK  Name = pdb/CHEMBL456802.pdb
REMARK                            x       y       z     vdW  Elec       q    Type
REMARK                         _______ _______ _______ _____ _____    ______ ____
ROOT
ATOM      1  C   LIG    1        2.515   2.521   1.618  0.00  0.00    +0.219 A 
ATOM      2  N   LIG    1        3.318   3.281   0.881  0.00  0.00    -0.198 NA
ATOM      3  C   LIG    1        3.331   4.619   1.110  0.00  0.00    +0.149 A 
ATOM      4  C   LIG    1        2.502   5.201   2.073  0.00  0.00    +0.121 A 
ATOM      5 CL   LIG    1        2.492   6.906   2.356  0.00  0.00    -0.076 Cl
ATOM      6  C   LIG    1        1.658   4.342   2.761  0.00  0.00    +0.144 A 
ATOM      7  N   LIG    1        1.701   3.021   2.546  0.00  0.00    -0.198 NA
ENDROOT
BRANCH   1   8
ATOM      8  N   LIG    1        2.510   1.158   1.393  0.00  0.00    -0.307 N 
ATOM      9  H   LIG    1        2.965   0.947   0.515  0.00  0.00    +0.149 HD
BRANCH   8  11
ATOM     10  C   LIG    1        0.624  -0.154   0.493  0.00  0.00    +0.033 C 
ATOM     11  C   LIG    1        1.294   0.432   1.739  0.00  0.00    +0.100 C 
BRANCH  11  12
ATOM     12  C   LIG    1        1.614  -0.608   2.806  0.00  0.00    -0.027 A 
ATOM     13  C   LIG    1        2.189  -1.854   2.504  0.00  0.00    +0.008 A 
ATOM     14  C   LIG    1        2.465  -2.775   3.520  0.00  0.00    +0.038 A 
ATOM     15  C   LIG    1        2.184  -2.449   4.840  0.00  0.00    +0.123 A 
ATOM     16  F   LIG    1        2.455  -3.331   5.811  0.00  0.00    -0.205 F 
ATOM     17  C   LIG    1        1.632  -1.219   5.169  0.00  0.00    +0.038 A 
ATOM     18  C   LIG    1        1.353  -0.301   4.156  0.00  0.00    +0.008 A 
ENDBRANCH  11  12
ENDBRANCH   8  11
ENDBRANCH   1   8
BRANCH   3  19
ATOM     19  N   LIG    1        4.137   5.443   0.293  0.00  0.00    -0.282 N 
ATOM     20  H   LIG    1        4.655   6.135   0.819  0.00  0.00    +0.155 HD
BRANCH  19  21
ATOM     21  C   LIG    1        4.618   5.146  -0.941  0.00  0.00    +0.146 A 
ATOM     22  N   LIG    1        5.759   5.616  -1.447  0.00  0.00    -0.158 NA
ATOM     23  N   LIG    1        5.806   5.078  -2.679  0.00  0.00    -0.280 N 
ATOM     24  H   LIG    1        6.615   5.269  -3.263  0.00  0.00    +0.189 HD
ATOM     25  C   LIG    1        4.694   4.363  -3.007  0.00  0.00    +0.041 A 
ATOM     26  C   LIG    1        3.901   4.375  -1.886  0.00  0.00    +0.068 A 
BRANCH  25  27
ATOM     27  C   LIG    1        4.348   3.689  -4.312  0.00  0.00    +0.037 C 
ATOM     28  C   LIG    1        5.450   2.999  -5.087  0.00  0.00    +0.010 C 
ATOM     29  C   LIG    1        4.885   4.280  -5.599  0.00  0.00    +0.010 C 
ENDBRANCH  25  27
ENDBRANCH  19  21
ENDBRANCH   3  19
BRANCH   6  30
ATOM     30  N   LIG    1        0.664   4.821   3.650  0.00  0.00    -0.326 N 
ATOM     31  H   LIG    1        1.110   5.426   4.338  0.00  0.00    +0.148 HD
BRANCH  30  32
ATOM     32  C   LIG    1       -0.143   3.748   4.265  0.00  0.00    +0.130 C 
BRANCH  32  33
ATOM     33  C   LIG    1       -1.524   4.263   4.674  0.00  0.00    +0.174 C 
BRANCH  33  34
ATOM     34  O   LIG    1       -2.254   4.731   3.541  0.00  0.00    -0.393 OA
ATOM     35  H   LIG    1       -1.684   5.401   3.118  0.00  0.00    +0.209 HD
ENDBRANCH  33  34
ENDBRANCH  32  33
ENDBRANCH  30  32
ENDBRANCH   6  30
TORSDOF 10
