REMARK  Name = pdb/CHEMBL3659497.pdb
REMARK                            x       y       z     vdW  Elec       q    Type
REMARK                         _______ _______ _______ _____ _____    ______ ____
ROOT
ATOM      1  N   LIG    1        7.568   2.563  -2.000  0.00  0.00    -0.266 N 
ATOM      2  C   LIG    1        7.547   3.944  -1.885  0.00  0.00    +0.168 A 
ATOM      3  N   LIG    1        6.489   4.761  -1.673  0.00  0.00    -0.213 NA
ATOM      4  C   LIG    1        6.783   6.080  -1.689  0.00  0.00    +0.122 A 
ATOM      5  C   LIG    1        8.077   6.570  -1.905  0.00  0.00    +0.046 A 
ATOM      6  C   LIG    1        9.152   5.697  -2.097  0.00  0.00    +0.035 A 
ATOM      7  C   LIG    1        8.870   4.332  -2.074  0.00  0.00    +0.108 A 
ATOM      8  N   LIG    1        9.700   3.255  -2.215  0.00  0.00    -0.234 NA
ATOM      9  C   LIG    1        8.897   2.215  -2.151  0.00  0.00    +0.207 A 
ENDROOT
BRANCH   1  14
ATOM     10  C   LIG    1        4.467   0.718  -1.952  0.00  0.00    +0.213 A 
ATOM     11  N   LIG    1        5.464  -0.180  -2.222  0.00  0.00    -0.245 N 
ATOM     12  H   LIG    1        5.360  -1.177  -2.388  0.00  0.00    +0.192 HD
ATOM     13  N   LIG    1        6.704   0.353  -2.219  0.00  0.00    -0.153 NA
ATOM     14  C   LIG    1        6.471   1.658  -2.008  0.00  0.00    +0.165 A 
ATOM     15  C   LIG    1        5.103   1.943  -1.845  0.00  0.00    +0.115 A 
BRANCH  10  16
ATOM     16  O   LIG    1        3.205   0.307  -1.868  0.00  0.00    -0.474 OA
BRANCH  16  18
ATOM     17  C   LIG    1        1.677   2.213  -1.769  0.00  0.00    +0.051 C 
ATOM     18  C   LIG    1        2.340   1.067  -1.011  0.00  0.00    +0.169 C 
ATOM     19  C   LIG    1        1.266   0.110  -0.496  0.00  0.00    +0.051 C 
ENDBRANCH  16  18
ENDBRANCH  10  16
ENDBRANCH   1  14
BRANCH   4  20
ATOM     20  N   LIG    1        5.793   7.034  -1.405  0.00  0.00    -0.319 N 
ATOM     21  H   LIG    1        5.787   7.771  -2.111  0.00  0.00    +0.148 HD
BRANCH  20  22
ATOM     22  C   LIG    1        4.423   6.553  -1.156  0.00  0.00    +0.136 C 
ATOM     23  C   LIG    1        4.005   7.013   0.242  0.00  0.00    +0.036 C 
BRANCH  22  24
ATOM     24  C   LIG    1        3.432   7.067  -2.209  0.00  0.00    +0.149 A 
ATOM     25  N   LIG    1        3.731   8.209  -2.883  0.00  0.00    -0.236 NA
ATOM     26  C   LIG    1        2.840   8.598  -3.828  0.00  0.00    +0.152 A 
ATOM     27  C   LIG    1        1.691   7.904  -4.117  0.00  0.00    +0.159 A 
ATOM     28  F   LIG    1        0.837   8.307  -5.064  0.00  0.00    -0.202 F 
ATOM     29  C   LIG    1        1.471   6.769  -3.379  0.00  0.00    +0.152 A 
ATOM     30  N   LIG    1        2.313   6.331  -2.418  0.00  0.00    -0.236 NA
ENDBRANCH  22  24
ENDBRANCH  20  22
ENDBRANCH   4  20
TORSDOF 6
