REMARK  Name = pdb/CHEMBL175321.pdb
REMARK                            x       y       z     vdW  Elec       q    Type
REMARK                         _______ _______ _______ _____ _____    ______ ____
ROOT
ATOM      1  C   LIG    1        2.250  -0.065   0.055  0.00  0.00    +0.117 A 
ATOM      2  C   LIG    1        2.860   1.177   0.058  0.00  0.00    +0.049 A 
ATOM      3  C   LIG    1        4.251   1.231   0.052  0.00  0.00    -0.036 A 
ATOM      4  C   LIG    1        5.025   2.498   0.062  0.00  0.00    +0.040 C 
ATOM      5  C   LIG    1        6.464   2.009   0.033  0.00  0.00    +0.041 C 
ATOM      6  C   LIG    1        6.488   0.485   0.036  0.00  0.00    -0.027 C 
ATOM      7  C   LIG    1        7.650  -0.213   0.031  0.00  0.00    +0.050 C 
ATOM      8  C   LIG    1        9.030   0.360   0.021  0.00  0.00    +0.009 A 
ATOM      9  C   LIG    1        9.563   1.643   0.013  0.00  0.00    +0.010 A 
ATOM     10  C   LIG    1       10.953   1.813   0.008  0.00  0.00    +0.001 A 
ATOM     11  C   LIG    1       11.812   0.707   0.009  0.00  0.00    +0.002 A 
ATOM     12  C   LIG    1       11.291  -0.585   0.015  0.00  0.00    +0.024 A 
ATOM     13  C   LIG    1        9.914  -0.722   0.021  0.00  0.00    +0.042 A 
ATOM     14  N   LIG    1        9.220  -1.920   0.027  0.00  0.00    -0.281 N 
ATOM     15  H   LIG    1        9.630  -2.841   0.027  0.00  0.00    +0.155 HD
ATOM     16  C   LIG    1        7.850  -1.721   0.033  0.00  0.00    +0.249 C 
ATOM     17  O   LIG    1        7.035  -2.621   0.040  0.00  0.00    -0.270 OA
ATOM     18  C   LIG    1        5.059   0.083   0.044  0.00  0.00    -0.018 A 
ATOM     19  C   LIG    1        4.421  -1.152   0.042  0.00  0.00    +0.012 A 
ATOM     20  C   LIG    1        3.017  -1.227   0.049  0.00  0.00    +0.046 A 
ENDROOT
BRANCH   1  21
ATOM     21  O   LIG    1        0.888  -0.102   0.061  0.00  0.00    -0.507 OA
ATOM     22  H   LIG    1        0.607  -1.031   0.059  0.00  0.00    +0.292 HD
ENDBRANCH   1  21
TORSDOF 1
