REMARK  Name = pdb/CHEMBL2152288.pdb
REMARK                            x       y       z     vdW  Elec       q    Type
REMARK                         _______ _______ _______ _____ _____    ______ ____
ROOT
ATOM      1  C   LIG    1        2.114  -0.050   0.446  0.00  0.00    +0.027 A 
ATOM      2  C   LIG    1        2.736  -1.306   0.509  0.00  0.00    +0.031 A 
ATOM      3  C   LIG    1        4.138  -1.458   0.448  0.00  0.00    -0.013 A 
ATOM      4  C   LIG    1        4.899  -0.280   0.342  0.00  0.00    +0.033 A 
ATOM      5  C   LIG    1        4.294   0.978   0.373  0.00  0.00    +0.050 A 
ATOM      6  C   LIG    1        2.909   1.095   0.457  0.00  0.00    +0.047 A 
ENDROOT
BRANCH   3   7
ATOM      7  C   LIG    1        4.784  -2.794   0.514  0.00  0.00    +0.001 A 
ATOM      8  C   LIG    1        6.059  -2.978   1.086  0.00  0.00    +0.022 A 
ATOM      9  C   LIG    1        6.638  -4.266   1.128  0.00  0.00    +0.027 A 
ATOM     10  C   LIG    1        7.861  -4.854   1.608  0.00  0.00    +0.009 A 
ATOM     11  C   LIG    1        7.774  -6.213   1.342  0.00  0.00    +0.093 A 
ATOM     12  N   LIG    1        6.570  -6.462   0.738  0.00  0.00    -0.345 N 
ATOM     13  H   LIG    1        6.225  -7.360   0.431  0.00  0.00    +0.167 HD
ATOM     14  C   LIG    1        5.871  -5.299   0.603  0.00  0.00    +0.139 A 
ATOM     15  N   LIG    1        4.649  -5.219   0.052  0.00  0.00    -0.237 NA
ATOM     16  C   LIG    1        4.162  -3.952   0.030  0.00  0.00    +0.121 A 
BRANCH  10  17
ATOM     17  C   LIG    1        9.028  -4.253   2.252  0.00  0.00    -0.013 A 
ATOM     18  C   LIG    1        9.796  -4.980   3.169  0.00  0.00    +0.028 A 
ATOM     19  C   LIG    1       10.899  -4.374   3.751  0.00  0.00    +0.111 A 
ATOM     20  N   LIG    1       11.282  -3.108   3.492  0.00  0.00    -0.263 NA
ATOM     21  C   LIG    1       10.532  -2.422   2.605  0.00  0.00    +0.111 A 
ATOM     22  C   LIG    1        9.417  -2.944   1.965  0.00  0.00    +0.028 A 
ENDBRANCH  10  17
ENDBRANCH   3   7
BRANCH   1  23
ATOM     23  N   LIG    1        0.724   0.053   0.600  0.00  0.00    -0.358 N 
ATOM     24  H   LIG    1        0.215  -0.755   0.254  0.00  0.00    +0.142 HD
ATOM     25  H   LIG    1        0.337   0.918   0.229  0.00  0.00    +0.142 HD
ENDBRANCH   1  23
BRANCH   5  26
ATOM     26  N   LIG    1        5.111   2.140   0.285  0.00  0.00    -0.216 N 
ATOM     27  H   LIG    1        4.943   2.878   0.973  0.00  0.00    +0.174 HD
BRANCH  26  28
ATOM     28  S   LIG    1        5.385   2.821  -1.240  0.00  0.00    +0.072 S 
ATOM     29  O   LIG    1        5.879   4.156  -1.001  0.00  0.00    -0.150 OA
ATOM     30  O   LIG    1        4.228   2.593  -2.085  0.00  0.00    -0.150 OA
BRANCH  28  31
ATOM     31  C   LIG    1        6.735   1.851  -1.875  0.00  0.00    +0.109 A 
ATOM     32  C   LIG    1        6.482   0.750  -2.701  0.00  0.00    +0.041 A 
ATOM     33  C   LIG    1        7.549   0.002  -3.226  0.00  0.00    +0.057 A 
ATOM     34  C   LIG    1        8.865   0.399  -2.934  0.00  0.00    +0.012 A 
ATOM     35  C   LIG    1        9.112   1.515  -2.131  0.00  0.00    +0.002 A 
ATOM     36  C   LIG    1        8.048   2.245  -1.600  0.00  0.00    +0.029 A 
BRANCH  33  37
ATOM     37  C   LIG    1        7.278  -1.214  -4.081  0.00  0.00    +0.417 C 
ATOM     38  F   LIG    1        6.572  -0.917  -5.206  0.00  0.00    -0.166 F 
ATOM     39  F   LIG    1        6.551  -2.155  -3.418  0.00  0.00    -0.166 F 
ATOM     40  F   LIG    1        8.408  -1.845  -4.504  0.00  0.00    -0.166 F 
ENDBRANCH  33  37
ENDBRANCH  28  31
ENDBRANCH  26  28
ENDBRANCH   5  26
TORSDOF 7
