REMARK  Name = pdb/CHEMBL3671443.pdb
REMARK                            x       y       z     vdW  Elec       q    Type
REMARK                         _______ _______ _______ _____ _____    ______ ____
ROOT
ATOM      1  C   LIG    1        2.956   2.864  -4.319  0.00  0.00    +0.042 A 
ATOM      2  C   LIG    1        3.148   3.854  -5.292  0.00  0.00    +0.038 A 
ATOM      3  C   LIG    1        2.694   5.163  -5.070  0.00  0.00    +0.052 A 
ATOM      4  C   LIG    1        2.027   5.412  -3.873  0.00  0.00    +0.134 A 
ATOM      5  N   LIG    1        1.760   4.457  -2.945  0.00  0.00    -0.261 NA
ATOM      6  C   LIG    1        2.215   3.207  -3.196  0.00  0.00    +0.122 A 
ENDROOT
BRANCH   3   7
ATOM      7  N   LIG    1        2.961   6.127  -6.070  0.00  0.00    -0.284 N 
ATOM      8  H   LIG    1        3.440   5.791  -6.895  0.00  0.00    +0.155 HD
ATOM      9  C   LIG    1        2.588   7.459  -6.059  0.00  0.00    +0.222 C 
ATOM     10  O   LIG    1        1.948   7.997  -5.157  0.00  0.00    -0.275 OA
BRANCH   9  11
ATOM     11  C   LIG    1        3.114   8.309  -7.213  0.00  0.00    +0.131 C 
BRANCH  11  12
ATOM     12  C   LIG    1        3.283   7.615  -8.545  0.00  0.00    -0.039 A 
ATOM     13  C   LIG    1        4.491   6.988  -8.881  0.00  0.00    +0.004 A 
ATOM     14  C   LIG    1        4.626   6.320 -10.100  0.00  0.00    +0.012 A 
ATOM     15  C   LIG    1        3.562   6.281 -11.014  0.00  0.00    +0.055 A 
ATOM     16  C   LIG    1        2.361   6.925 -10.683  0.00  0.00    +0.012 A 
ATOM     17  C   LIG    1        2.222   7.581  -9.458  0.00  0.00    +0.004 A 
BRANCH  15  18
ATOM     18  C   LIG    1        3.717   5.550 -12.326  0.00  0.00    +0.417 C 
ATOM     19  F   LIG    1        4.005   4.231 -12.145  0.00  0.00    -0.166 F 
ATOM     20  F   LIG    1        4.727   6.052 -13.088  0.00  0.00    -0.166 F 
ATOM     21  F   LIG    1        2.603   5.586 -13.107  0.00  0.00    -0.166 F 
ENDBRANCH  15  18
ENDBRANCH  11  12
ENDBRANCH   9  11
ENDBRANCH   3   7
BRANCH   1  22
ATOM     22  C   LIG    1        3.467   1.472  -4.431  0.00  0.00    +0.197 C 
ATOM     23  O   LIG    1        2.845   0.577  -3.855  0.00  0.00    -0.287 OA
BRANCH  22  31
ATOM     24  N   LIG    1        6.677   1.344  -6.231  0.00  0.00    -0.321 N 
ATOM     25  C   LIG    1        6.278   0.031  -6.372  0.00  0.00    +0.145 A 
ATOM     26  N   LIG    1        6.938  -0.948  -7.014  0.00  0.00    -0.218 NA
ATOM     27  C   LIG    1        6.262  -2.105  -7.041  0.00  0.00    +0.223 A 
ATOM     28  N   LIG    1        5.063  -2.364  -6.494  0.00  0.00    -0.243 NA
ATOM     29  C   LIG    1        4.443  -1.363  -5.829  0.00  0.00    +0.124 A 
ATOM     30  C   LIG    1        5.037  -0.101  -5.756  0.00  0.00    +0.048 A 
ATOM     31  C   LIG    1        4.681   1.164  -5.189  0.00  0.00    +0.051 A 
ATOM     32  C   LIG    1        5.757   2.002  -5.438  0.00  0.00    +0.100 A 
BRANCH  24  34
ATOM     33  C   LIG    1        7.717   3.509  -6.959  0.00  0.00    +0.039 C 
ATOM     34  C   LIG    1        7.849   1.993  -6.808  0.00  0.00    +0.090 C 
ATOM     35  C   LIG    1        9.156   1.553  -6.110  0.00  0.00    +0.190 C 
ATOM     36  O   LIG    1        9.799   1.332  -7.392  0.00  0.00    -0.375 OA
ATOM     37  C   LIG    1        8.500   1.327  -8.042  0.00  0.00    +0.190 C 
ENDBRANCH  24  34
ENDBRANCH  22  31
ENDBRANCH   1  22
TORSDOF 7
