REMARK  Name = pdb/CHEMBL3671444.pdb
REMARK                            x       y       z     vdW  Elec       q    Type
REMARK                         _______ _______ _______ _____ _____    ______ ____
ROOT
ATOM      1  C   LIG    1        2.890   3.011  -4.454  0.00  0.00    +0.042 A 
ATOM      2  C   LIG    1        3.241   3.950  -5.433  0.00  0.00    +0.038 A 
ATOM      3  C   LIG    1        2.762   5.256  -5.359  0.00  0.00    +0.052 A 
ATOM      4  C   LIG    1        1.895   5.553  -4.310  0.00  0.00    +0.134 A 
ATOM      5  N   LIG    1        1.490   4.648  -3.376  0.00  0.00    -0.261 NA
ATOM      6  C   LIG    1        1.990   3.393  -3.472  0.00  0.00    +0.122 A 
ENDROOT
BRANCH   3   7
ATOM      7  N   LIG    1        3.166   6.157  -6.371  0.00  0.00    -0.284 N 
ATOM      8  H   LIG    1        3.609   5.758  -7.190  0.00  0.00    +0.155 HD
ATOM      9  C   LIG    1        3.065   7.533  -6.306  0.00  0.00    +0.222 C 
ATOM     10  O   LIG    1        2.702   8.156  -5.307  0.00  0.00    -0.275 OA
BRANCH   9  11
ATOM     11  C   LIG    1        3.420   8.262  -7.600  0.00  0.00    +0.131 C 
BRANCH  11  12
ATOM     12  C   LIG    1        2.176   8.616  -8.380  0.00  0.00    -0.038 A 
ATOM     13  C   LIG    1        1.954   8.106  -9.667  0.00  0.00    +0.016 A 
ATOM     14  C   LIG    1        0.760   8.390 -10.356  0.00  0.00    +0.055 A 
ATOM     15  C   LIG    1       -0.203   9.204  -9.743  0.00  0.00    +0.012 A 
ATOM     16  C   LIG    1        0.017   9.725  -8.470  0.00  0.00    +0.001 A 
ATOM     17  C   LIG    1        1.200   9.438  -7.797  0.00  0.00    +0.004 A 
BRANCH  14  18
ATOM     18  C   LIG    1        0.518   7.807 -11.726  0.00  0.00    +0.417 C 
ATOM     19  F   LIG    1        0.550   6.444 -11.720  0.00  0.00    -0.166 F 
ATOM     20  F   LIG    1        1.458   8.196 -12.632  0.00  0.00    -0.166 F 
ATOM     21  F   LIG    1       -0.685   8.149 -12.264  0.00  0.00    -0.166 F 
ENDBRANCH  14  18
ENDBRANCH  11  12
ENDBRANCH   9  11
ENDBRANCH   3   7
BRANCH   1  22
ATOM     22  C   LIG    1        3.413   1.629  -4.490  0.00  0.00    +0.197 C 
ATOM     23  O   LIG    1        2.699   0.712  -4.077  0.00  0.00    -0.287 OA
BRANCH  22  31
ATOM     24  N   LIG    1        6.901   1.544  -5.630  0.00  0.00    -0.321 N 
ATOM     25  C   LIG    1        6.475   0.327  -6.101  0.00  0.00    +0.145 A 
ATOM     26  N   LIG    1        7.217  -0.569  -6.777  0.00  0.00    -0.218 NA
ATOM     27  C   LIG    1        6.518  -1.675  -7.081  0.00  0.00    +0.223 A 
ATOM     28  N   LIG    1        5.227  -1.937  -6.806  0.00  0.00    -0.243 NA
ATOM     29  C   LIG    1        4.522  -1.005  -6.126  0.00  0.00    +0.124 A 
ATOM     30  C   LIG    1        5.141   0.184  -5.741  0.00  0.00    +0.048 A 
ATOM     31  C   LIG    1        4.738   1.371  -5.054  0.00  0.00    +0.051 A 
ATOM     32  C   LIG    1        5.853   2.205  -5.030  0.00  0.00    +0.100 A 
BRANCH  24  34
ATOM     33  C   LIG    1        8.404   2.914  -7.031  0.00  0.00    +0.039 C 
ATOM     34  C   LIG    1        8.239   2.072  -5.769  0.00  0.00    +0.090 C 
ATOM     35  C   LIG    1        8.797   2.737  -4.503  0.00  0.00    +0.190 C 
ATOM     36  O   LIG    1       10.016   1.950  -4.608  0.00  0.00    -0.375 OA
ATOM     37  C   LIG    1        9.365   1.050  -5.552  0.00  0.00    +0.190 C 
ENDBRANCH  24  34
ENDBRANCH  22  31
ENDBRANCH   1  22
TORSDOF 7
