REMARK  Name = pdb/CHEMBL3971680.pdb
REMARK                            x       y       z     vdW  Elec       q    Type
REMARK                         _______ _______ _______ _____ _____    ______ ____
ROOT
ATOM      1  C   LIG    1       -0.353  -0.599   1.500  0.00  0.00    +0.126 A 
ATOM      2  N   LIG    1        0.334   0.246   0.753  0.00  0.00    -0.212 NA
ATOM      3  C   LIG    1       -0.283   1.381   0.316  0.00  0.00    +0.170 A 
ATOM      4  C   LIG    1        0.179   2.418  -0.499  0.00  0.00    +0.100 A 
ATOM      5  C   LIG    1       -0.997   3.155  -0.753  0.00  0.00    +0.150 A 
ATOM      6  N   LIG    1       -2.066   2.720  -0.085  0.00  0.00    -0.173 NA
ATOM      7  N   LIG    1       -1.618   1.641   0.595  0.00  0.00    -0.221 N 
ATOM      8  C   LIG    1       -2.322   0.812   1.459  0.00  0.00    +0.118 A 
ATOM      9  C   LIG    1       -1.739  -0.273   1.989  0.00  0.00    +0.063 A 
ENDROOT
BRANCH   1  11
ATOM     10  C   LIG    1        0.258  -2.449   3.128  0.00  0.00    +0.107 C 
ATOM     11  N   LIG    1        0.197  -1.854   1.756  0.00  0.00    -0.308 N 
ATOM     12  C   LIG    1        1.399  -2.256   1.008  0.00  0.00    +0.107 C 
ATOM     13  C   LIG    1        2.454  -2.335   2.085  0.00  0.00    +0.021 C 
ATOM     14  C   LIG    1        1.690  -3.040   3.198  0.00  0.00    +0.029 C 
BRANCH  10  16
ATOM     15  C   LIG    1       -1.320  -3.887   4.634  0.00  0.00    +0.046 A 
ATOM     16  C   LIG    1       -0.808  -3.522   3.367  0.00  0.00    -0.003 A 
ATOM     17  C   LIG    1       -1.298  -4.261   2.269  0.00  0.00    +0.047 A 
ATOM     18  C   LIG    1       -2.246  -5.261   2.439  0.00  0.00    +0.142 A 
ATOM     19  F   LIG    1       -2.696  -5.956   1.388  0.00  0.00    -0.204 F 
ATOM     20  C   LIG    1       -2.709  -5.523   3.704  0.00  0.00    +0.149 A 
ATOM     21  N   LIG    1       -2.273  -4.856   4.790  0.00  0.00    -0.257 NA
BRANCH  15  23
ATOM     22  C   LIG    1       -0.342  -4.323   6.914  0.00  0.00    +0.010 C 
ATOM     23  C   LIG    1       -0.924  -3.278   5.958  0.00  0.00    +0.052 C 
ENDBRANCH  15  23
ENDBRANCH  10  16
ENDBRANCH   1  11
BRANCH   4  24
ATOM     24  C   LIG    1        1.527   2.531  -1.005  0.00  0.00    +0.221 C 
ATOM     25  N   LIG    1        2.158   3.575  -1.420  0.00  0.00    -0.247 NA
BRANCH  25  26
ATOM     26  C   LIG    1        1.673   4.934  -1.474  0.00  0.00    +0.109 C 
ATOM     27  C   LIG    1        1.093   5.200  -2.863  0.00  0.00    +0.029 C 
ATOM     28  C   LIG    1        2.135   5.038  -3.973  0.00  0.00    +0.033 C 
ATOM     29  C   LIG    1        3.395   5.866  -3.735  0.00  0.00    +0.115 C 
ATOM     30  C   LIG    1        3.956   5.710  -2.322  0.00  0.00    +0.033 C 
ATOM     31  C   LIG    1        2.879   5.869  -1.242  0.00  0.00    +0.029 C 
BRANCH  29  32
ATOM     32  O   LIG    1        3.083   7.240  -3.969  0.00  0.00    -0.392 OA
ATOM     33  H   LIG    1        3.930   7.718  -4.005  0.00  0.00    +0.210 HD
ENDBRANCH  29  32
ENDBRANCH  25  26
BRANCH  24  34
ATOM     34  O   LIG    1        2.226   1.376  -1.052  0.00  0.00    -0.492 OA
ATOM     35  H   LIG    1        1.697   0.634  -0.675  0.00  0.00    +0.294 HD
ENDBRANCH  24  34
ENDBRANCH   4  24
TORSDOF 7
