REMARK  Name = pdb/CHEMBL3659494.pdb
REMARK                            x       y       z     vdW  Elec       q    Type
REMARK                         _______ _______ _______ _____ _____    ______ ____
ROOT
ATOM      1  C   LIG    1        3.306  -4.314   1.101  0.00  0.00    +0.122 A 
ATOM      2  N   LIG    1        2.676  -3.717   2.139  0.00  0.00    -0.213 NA
ATOM      3  C   LIG    1        2.245  -4.561   3.109  0.00  0.00    +0.168 A 
ATOM      4  N   LIG    1        1.573  -4.267   4.286  0.00  0.00    -0.266 N 
ATOM      5  C   LIG    1        1.413  -5.470   4.949  0.00  0.00    +0.207 A 
ATOM      6  N   LIG    1        1.898  -6.495   4.280  0.00  0.00    -0.234 NA
ATOM      7  C   LIG    1        2.406  -5.944   3.138  0.00  0.00    +0.108 A 
ATOM      8  C   LIG    1        3.035  -6.542   2.050  0.00  0.00    +0.035 A 
ATOM      9  C   LIG    1        3.451  -5.703   1.011  0.00  0.00    +0.046 A 
ENDROOT
BRANCH   4  10
ATOM     10  C   LIG    1        1.141  -3.001   4.760  0.00  0.00    +0.162 A 
ATOM     11  N   LIG    1        0.565  -2.917   5.971  0.00  0.00    -0.155 NA
ATOM     12  N   LIG    1        0.330  -1.598   6.106  0.00  0.00    -0.279 N 
ATOM     13  H   LIG    1       -0.098  -1.269   6.970  0.00  0.00    +0.189 HD
ATOM     14  C   LIG    1        0.708  -0.861   5.024  0.00  0.00    +0.041 A 
ATOM     15  C   LIG    1        1.240  -1.753   4.116  0.00  0.00    +0.071 A 
BRANCH  14  16
ATOM     16  C   LIG    1        0.559   0.639   4.890  0.00  0.00    +0.037 C 
ATOM     17  C   LIG    1        0.171   1.212   3.545  0.00  0.00    +0.010 C 
ATOM     18  C   LIG    1        1.562   1.405   4.050  0.00  0.00    +0.010 C 
ENDBRANCH  14  16
ENDBRANCH   4  10
BRANCH   1  19
ATOM     19  N   LIG    1        3.743  -3.459   0.094  0.00  0.00    -0.321 N 
ATOM     20  H   LIG    1        3.680  -2.501   0.439  0.00  0.00    +0.148 HD
BRANCH  19  22
ATOM     21  C   LIG    1        4.791  -3.228  -2.123  0.00  0.00    +0.034 C 
ATOM     22  C   LIG    1        4.962  -3.725  -0.681  0.00  0.00    +0.117 C 
BRANCH  22  23
ATOM     23  C   LIG    1        6.200  -3.121  -0.016  0.00  0.00    +0.061 A 
ATOM     24  N   LIG    1        6.490  -1.808  -0.233  0.00  0.00    -0.255 NA
ATOM     25  C   LIG    1        7.581  -1.298   0.395  0.00  0.00    +0.149 A 
ATOM     26  C   LIG    1        8.387  -2.030   1.247  0.00  0.00    +0.141 A 
ATOM     27  F   LIG    1        9.436  -1.464   1.856  0.00  0.00    -0.204 F 
ATOM     28  C   LIG    1        8.086  -3.363   1.467  0.00  0.00    +0.042 A 
ATOM     29  C   LIG    1        6.980  -3.920   0.827  0.00  0.00    +0.028 A 
ENDBRANCH  22  23
ENDBRANCH  19  22
ENDBRANCH   1  19
TORSDOF 5
