REMARK  Name = pdb/CHEMBL3675973.pdb
REMARK                            x       y       z     vdW  Elec       q    Type
REMARK                         _______ _______ _______ _____ _____    ______ ____
ROOT
ATOM      1  C   LIG    1        3.450  -4.431  -1.122  0.00  0.00    +0.126 A 
ATOM      2  N   LIG    1        3.063  -3.390  -1.836  0.00  0.00    -0.212 NA
ATOM      3  C   LIG    1        2.375  -3.632  -3.000  0.00  0.00    +0.170 A 
ATOM      4  C   LIG    1        1.860  -2.783  -3.968  0.00  0.00    +0.100 A 
ATOM      5  C   LIG    1        1.370  -3.660  -4.967  0.00  0.00    +0.150 A 
ATOM      6  N   LIG    1        1.484  -4.945  -4.645  0.00  0.00    -0.173 NA
ATOM      7  N   LIG    1        2.083  -4.928  -3.434  0.00  0.00    -0.221 N 
ATOM      8  C   LIG    1        2.397  -6.017  -2.644  0.00  0.00    +0.118 A 
ATOM      9  C   LIG    1        3.043  -5.840  -1.490  0.00  0.00    +0.063 A 
ENDROOT
BRANCH   1  11
ATOM     10  C   LIG    1        4.861  -5.297   0.799  0.00  0.00    +0.107 C 
ATOM     11  N   LIG    1        4.252  -4.228  -0.009  0.00  0.00    -0.308 N 
ATOM     12  C   LIG    1        4.291  -2.958   0.713  0.00  0.00    +0.107 C 
ATOM     13  C   LIG    1        4.449  -3.388   2.167  0.00  0.00    +0.021 C 
ATOM     14  C   LIG    1        5.372  -4.589   2.059  0.00  0.00    +0.029 C 
BRANCH  10  18
ATOM     15  F   LIG    1        8.523  -5.665  -2.477  0.00  0.00    -0.204 F 
ATOM     16  C   LIG    1        7.746  -6.214  -1.536  0.00  0.00    +0.142 A 
ATOM     17  C   LIG    1        6.766  -5.457  -0.907  0.00  0.00    +0.046 A 
ATOM     18  C   LIG    1        5.957  -6.045   0.075  0.00  0.00    -0.006 A 
ATOM     19  C   LIG    1        6.209  -7.385   0.378  0.00  0.00    +0.116 A 
ATOM     20  N   LIG    1        7.157  -8.145  -0.224  0.00  0.00    -0.260 NA
ATOM     21  C   LIG    1        7.905  -7.538  -1.174  0.00  0.00    +0.149 A 
ENDBRANCH  10  18
ENDBRANCH   1  11
BRANCH   4  22
ATOM     22  C   LIG    1        1.826  -1.332  -3.996  0.00  0.00    +0.250 C 
ATOM     23  N   LIG    1        2.270  -0.719  -2.850  0.00  0.00    -0.297 N 
ATOM     24  H   LIG    1        2.605  -1.321  -2.093  0.00  0.00    +0.150 HD
ATOM     25  O   LIG    1        1.410  -0.705  -4.974  0.00  0.00    -0.270 OA
BRANCH  23  26
ATOM     26  C   LIG    1        2.258   0.729  -2.667  0.00  0.00    +0.130 C 
ATOM     27  C   LIG    1        3.464   1.500  -3.196  0.00  0.00    +0.037 C 
ATOM     28  C   LIG    1        3.302   1.326  -1.723  0.00  0.00    +0.037 C 
BRANCH  26  29
ATOM     29  C   LIG    1        0.890   1.438  -2.707  0.00  0.00    +0.411 C 
ATOM     30  F   LIG    1        0.847   2.386  -3.674  0.00  0.00    -0.168 F 
ATOM     31  F   LIG    1        0.653   2.065  -1.524  0.00  0.00    -0.168 F 
ATOM     32  F   LIG    1       -0.138   0.580  -2.906  0.00  0.00    -0.168 F 
ENDBRANCH  26  29
ENDBRANCH  23  26
ENDBRANCH   4  22
TORSDOF 5
