REMARK  Name = pdb/CHEMBL3676003.pdb
REMARK                            x       y       z     vdW  Elec       q    Type
REMARK                         _______ _______ _______ _____ _____    ______ ____
ROOT
ATOM      1  C   LIG    1        3.846   2.238   5.435  0.00  0.00    +0.100 A 
ATOM      2  C   LIG    1        4.363   3.405   5.974  0.00  0.00    +0.170 A 
ATOM      3  N   LIG    1        4.342   4.704   5.532  0.00  0.00    -0.212 NA
ATOM      4  C   LIG    1        4.894   5.627   6.291  0.00  0.00    +0.126 A 
ATOM      5  C   LIG    1        5.532   5.291   7.620  0.00  0.00    +0.063 A 
ATOM      6  C   LIG    1        5.540   4.006   7.991  0.00  0.00    +0.118 A 
ATOM      7  N   LIG    1        4.961   3.044   7.182  0.00  0.00    -0.221 N 
ATOM      8  N   LIG    1        4.864   1.716   7.422  0.00  0.00    -0.173 NA
ATOM      9  C   LIG    1        4.172   1.247   6.383  0.00  0.00    +0.150 A 
ENDROOT
BRANCH   4  10
ATOM     10  N   LIG    1        4.880   6.946   5.865  0.00  0.00    -0.308 N 
ATOM     11  C   LIG    1        4.236   7.372   4.614  0.00  0.00    +0.107 C 
ATOM     12  C   LIG    1        5.285   8.329   4.025  0.00  0.00    +0.029 C 
ATOM     13  C   LIG    1        5.833   9.039   5.251  0.00  0.00    +0.021 C 
ATOM     14  C   LIG    1        5.863   7.940   6.306  0.00  0.00    +0.107 C 
BRANCH  11  15
ATOM     15  C   LIG    1        2.885   8.025   4.860  0.00  0.00    -0.006 A 
ATOM     16  C   LIG    1        2.158   8.602   3.807  0.00  0.00    +0.046 A 
ATOM     17  C   LIG    1        0.925   9.193   4.059  0.00  0.00    +0.142 A 
ATOM     18  F   LIG    1        0.232   9.757   3.062  0.00  0.00    -0.204 F 
ATOM     19  C   LIG    1        0.429   9.193   5.348  0.00  0.00    +0.149 A 
ATOM     20  N   LIG    1        1.081   8.636   6.391  0.00  0.00    -0.260 NA
ATOM     21  C   LIG    1        2.280   8.059   6.119  0.00  0.00    +0.116 A 
ENDBRANCH  11  15
ENDBRANCH   4  10
BRANCH   1  24
ATOM     22  N   LIG    1        2.932   3.205   3.458  0.00  0.00    -0.300 N 
ATOM     23  H   LIG    1        3.320   4.064   3.847  0.00  0.00    +0.150 HD
ATOM     24  C   LIG    1        3.124   2.060   4.192  0.00  0.00    +0.250 C 
ATOM     25  O   LIG    1        2.724   0.959   3.814  0.00  0.00    -0.270 OA
BRANCH  22  27
ATOM     26  C   LIG    1        2.251   4.649   1.615  0.00  0.00    +0.037 C 
ATOM     27  C   LIG    1        2.239   3.219   2.162  0.00  0.00    +0.174 C 
BRANCH  27  28
ATOM     28  C   LIG    1        0.801   2.627   2.148  0.00  0.00    +0.407 C 
ATOM     29  F   LIG    1        0.357   2.277   3.374  0.00  0.00    -0.169 F 
ATOM     30  F   LIG    1        0.740   1.532   1.352  0.00  0.00    -0.169 F 
ATOM     31  F   LIG    1       -0.098   3.514   1.653  0.00  0.00    -0.169 F 
ENDBRANCH  27  28
ENDBRANCH  22  27
ENDBRANCH   1  24
TORSDOF 5
