REMARK  Name = pdb/CHEMBL1276446.pdb
REMARK                            x       y       z     vdW  Elec       q    Type
REMARK                         _______ _______ _______ _____ _____    ______ ____
ROOT
ATOM      1  C   LIG    1        1.658  -1.830   0.754  0.00  0.00    +0.078 C 
ATOM      2  N   LIG    1        1.771  -2.557   1.917  0.00  0.00    -0.363 N 
ATOM      3  H   LIG    1        2.274  -2.096   2.678  0.00  0.00    +0.165 HD
ENDROOT
BRANCH   1   6
ATOM      4  O   LIG    1        2.418   0.373   2.670  0.00  0.00    -0.274 OA
ATOM      5  C   LIG    1        2.203   0.520   1.487  0.00  0.00    +0.235 C 
ATOM      6  C   LIG    1        1.839  -0.536   0.474  0.00  0.00    +0.130 C 
ATOM      7  C   LIG    1        1.735   0.187  -0.835  0.00  0.00    +0.011 A 
ATOM      8  C   LIG    1        1.464  -0.108  -2.133  0.00  0.00    +0.045 A 
ATOM      9  S   LIG    1        1.047  -1.652  -2.608  0.00  0.00    -0.075 S 
ATOM     10  C   LIG    1        0.899  -1.054  -4.220  0.00  0.00    +0.157 A 
ATOM     11  N   LIG    1        1.158   0.230  -4.395  0.00  0.00    -0.247 NA
ATOM     12  C   LIG    1        1.477   0.798  -3.175  0.00  0.00    +0.079 A 
ATOM     13  C   LIG    1        1.796   2.143  -2.877  0.00  0.00    +0.031 A 
ATOM     14  C   LIG    1        2.058   2.549  -1.551  0.00  0.00    +0.026 A 
ATOM     15  C   LIG    1        2.016   1.556  -0.581  0.00  0.00    +0.039 A 
ATOM     16  N   LIG    1        2.246   1.731   0.765  0.00  0.00    -0.284 N 
ATOM     17  H   LIG    1        2.457   2.611   1.210  0.00  0.00    +0.155 HD
ENDBRANCH   1   6
BRANCH   2  18
ATOM     18  C   LIG    1        1.475  -3.925   2.088  0.00  0.00    +0.039 A 
ATOM     19  C   LIG    1        2.089  -4.624   3.137  0.00  0.00    +0.027 A 
ATOM     20  C   LIG    1        1.915  -6.003   3.290  0.00  0.00    +0.031 A 
ATOM     21  C   LIG    1        1.081  -6.698   2.420  0.00  0.00    +0.109 A 
ATOM     22  C   LIG    1        0.416  -6.022   1.389  0.00  0.00    +0.031 A 
ATOM     23  C   LIG    1        0.629  -4.645   1.224  0.00  0.00    +0.027 A 
BRANCH  21  24
ATOM     24  S   LIG    1        0.881  -8.464   2.620  0.00  0.00    +0.073 S 
ATOM     25  O   LIG    1       -0.556  -8.680   2.732  0.00  0.00    -0.150 OA
ATOM     26  O   LIG    1        1.778  -8.923   3.647  0.00  0.00    -0.150 OA
BRANCH  24  27
ATOM     27  N   LIG    1        1.341  -9.124   1.125  0.00  0.00    -0.199 N 
ATOM     28  H   LIG    1        0.754  -8.720   0.396  0.00  0.00    +0.175 HD
BRANCH  27  29
ATOM     29  C   LIG    1        2.690  -8.875   0.817  0.00  0.00    +0.138 A 
ATOM     30  N   LIG    1        2.865  -7.675   0.242  0.00  0.00    -0.239 NA
ATOM     31  C   LIG    1        4.136  -7.241   0.139  0.00  0.00    +0.113 A 
ATOM     32  C   LIG    1        5.233  -7.984   0.541  0.00  0.00    +0.020 A 
ATOM     33  C   LIG    1        5.015  -9.254   1.070  0.00  0.00    +0.005 A 
ATOM     34  C   LIG    1        3.711  -9.712   1.227  0.00  0.00    +0.045 A 
ENDBRANCH  27  29
ENDBRANCH  24  27
ENDBRANCH  21  24
ENDBRANCH   2  18
TORSDOF 5
