REMARK  Name = pdb/CHEMBL3673463.pdb
REMARK                            x       y       z     vdW  Elec       q    Type
REMARK                         _______ _______ _______ _____ _____    ______ ____
ROOT
ATOM      1  N   LIG    1        1.643   4.432   0.876  0.00  0.00    -0.311 N 
ATOM      2  C   LIG    1        1.485   5.608   0.206  0.00  0.00    +0.161 A 
ATOM      3  N   LIG    1        2.433   6.420  -0.269  0.00  0.00    -0.235 NA
ATOM      4  C   LIG    1        1.913   7.532  -0.862  0.00  0.00    +0.121 A 
ATOM      5  C   LIG    1        0.551   7.842  -0.995  0.00  0.00    +0.005 A 
ATOM      6  C   LIG    1       -0.381   6.921  -0.498  0.00  0.00    +0.041 A 
ATOM      7  C   LIG    1        0.097   5.774   0.132  0.00  0.00    +0.108 A 
ATOM      8  N   LIG    1       -0.556   4.733   0.727  0.00  0.00    -0.234 NA
ATOM      9  C   LIG    1        0.402   3.938   1.172  0.00  0.00    +0.201 A 
ENDROOT
BRANCH   5  10
ATOM     10  C   LIG    1        0.133   9.093  -1.604  0.00  0.00    +0.021 A 
ATOM     11  C   LIG    1       -1.177   9.522  -1.746  0.00  0.00    +0.117 A 
ATOM     12  N   LIG    1       -1.125  10.759  -2.330  0.00  0.00    -0.268 N 
ATOM     13  N   LIG    1        0.134  11.159  -2.579  0.00  0.00    -0.179 NA
ATOM     14  C   LIG    1        0.888  10.156  -2.140  0.00  0.00    +0.143 A 
BRANCH  12  15
ATOM     15  C   LIG    1       -2.273  11.604  -2.661  0.00  0.00    +0.110 C 
ATOM     16  C   LIG    1       -2.861  11.250  -4.031  0.00  0.00    +0.042 C 
ATOM     17  C   LIG    1       -2.007  11.797  -5.171  0.00  0.00    +0.083 C 
ATOM     18  N   LIG    1       -1.814  13.244  -5.050  0.00  0.00    -0.316 NA
ATOM     19  H   LIG    1       -1.208  13.550  -5.813  0.00  0.00    +0.122 HD
ATOM     20  C   LIG    1       -1.164  13.599  -3.785  0.00  0.00    +0.083 C 
ATOM     21  C   LIG    1       -1.975  13.109  -2.586  0.00  0.00    +0.042 C 
ENDBRANCH  12  15
ENDBRANCH   5  10
BRANCH   1  22
ATOM     22  C   LIG    1        2.920   3.800   1.158  0.00  0.00    +0.160 C 
BRANCH  22  27
ATOM     23  C   LIG    1        3.365   1.812   4.381  0.00  0.00    +0.162 A 
ATOM     24  C   LIG    1        3.442   2.835   5.347  0.00  0.00    +0.162 A 
ATOM     25  C   LIG    1        3.249   4.164   4.946  0.00  0.00    +0.050 A 
ATOM     26  C   LIG    1        3.069   4.489   3.599  0.00  0.00    +0.009 A 
ATOM     27  C   LIG    1        3.092   3.489   2.623  0.00  0.00    -0.024 A 
ATOM     28  C   LIG    1        3.269   2.160   3.027  0.00  0.00    +0.054 A 
BRANCH  23  30
ATOM     29  C   LIG    1        2.848  -0.458   3.895  0.00  0.00    +0.277 C 
ATOM     30  O   LIG    1        3.417   0.501   4.795  0.00  0.00    -0.491 OA
ENDBRANCH  23  30
BRANCH  24  31
ATOM     31  O   LIG    1        3.694   2.497   6.660  0.00  0.00    -0.484 OA
BRANCH  31  32
ATOM     32  C   LIG    1        4.428   3.485   7.414  0.00  0.00    +0.266 C 
BRANCH  32  33
ATOM     33  C   LIG    1        5.198   2.897   8.575  0.00  0.00    +0.008 A 
ATOM     34  C   LIG    1        5.223   1.533   8.829  0.00  0.00    +0.118 A 
ATOM     35  N   LIG    1        5.822   0.964   9.906  0.00  0.00    -0.260 NA
ATOM     36  C   LIG    1        6.451   1.785  10.776  0.00  0.00    +0.038 A 
ATOM     37  C   LIG    1        6.946   1.187  12.060  0.00  0.00    +0.065 C 
ATOM     38  C   LIG    1        6.587   3.148  10.547  0.00  0.00    +0.023 A 
ATOM     39  C   LIG    1        5.932   3.712   9.451  0.00  0.00    +0.010 A 
ENDBRANCH  32  33
ENDBRANCH  31  32
ENDBRANCH  24  31
ENDBRANCH  22  27
ENDBRANCH   1  22
TORSDOF 8
