REMARK  Name = pdb/CHEMBL3890123.pdb
REMARK                            x       y       z     vdW  Elec       q    Type
REMARK                         _______ _______ _______ _____ _____    ______ ____
ROOT
ATOM      1  C   LIG    1       -0.862  -6.338  -0.938  0.00  0.00    +0.323 A 
ATOM      2  N   LIG    1       -1.435  -6.011  -2.106  0.00  0.00    -0.201 NA
ATOM      3  C   LIG    1       -2.713  -6.427  -2.291  0.00  0.00    +0.145 A 
ATOM      4  C   LIG    1       -3.423  -7.255  -1.424  0.00  0.00    +0.105 A 
ATOM      5  C   LIG    1       -2.697  -7.529  -0.282  0.00  0.00    +0.145 A 
ATOM      6  N   LIG    1       -1.442  -7.091   0.000  0.00  0.00    -0.201 NA
ENDROOT
BRANCH   4   7
ATOM      7  N   LIG    1       -4.672  -7.816  -1.830  0.00  0.00    -0.196 NA
ATOM      8  C   LIG    1       -5.464  -8.433  -1.022  0.00  0.00    +0.285 C 
BRANCH   8   9
ATOM      9  N   LIG    1       -6.565  -9.187  -1.407  0.00  0.00    -0.267 N 
ATOM     10  H   LIG    1       -6.678  -9.182  -2.414  0.00  0.00    +0.157 HD
BRANCH   9  11
ATOM     11  C   LIG    1       -7.769  -9.490  -0.705  0.00  0.00    +0.061 A 
ATOM     12  C   LIG    1       -8.546 -10.668  -0.892  0.00  0.00    +0.087 A 
ATOM     13  C   LIG    1       -9.721 -10.859  -0.122  0.00  0.00    +0.030 A 
ATOM     14  C   LIG    1      -10.120  -9.948   0.853  0.00  0.00    +0.014 A 
ATOM     15  C   LIG    1       -9.373  -8.790   1.069  0.00  0.00    +0.057 A 
ATOM     16  C   LIG    1       -8.225  -8.573   0.274  0.00  0.00    +0.037 A 
BRANCH  12  17
ATOM     17  N   LIG    1       -8.214 -11.755  -1.768  0.00  0.00    -0.238 N 
ATOM     18  N   LIG    1       -8.933 -12.921  -1.726  0.00  0.00    -0.162 NA
ATOM     19  C   LIG    1       -8.348 -13.752  -2.609  0.00  0.00    +0.166 A 
ATOM     20  C   LIG    1       -7.232 -13.127  -3.206  0.00  0.00    +0.054 A 
ATOM     21  C   LIG    1       -7.224 -11.847  -2.714  0.00  0.00    +0.115 A 
BRANCH  19  22
ATOM     22  C   LIG    1       -8.871 -15.129  -2.942  0.00  0.00    +0.436 C 
ATOM     23  F   LIG    1      -10.122 -15.086  -3.473  0.00  0.00    -0.164 F 
ATOM     24  F   LIG    1       -8.919 -15.961  -1.869  0.00  0.00    -0.164 F 
ATOM     25  F   LIG    1       -8.085 -15.743  -3.871  0.00  0.00    -0.164 F 
ENDBRANCH  19  22
ENDBRANCH  12  17
BRANCH  15  26
ATOM     26  C   LIG    1       -9.795  -7.804   2.141  0.00  0.00    +0.417 C 
ATOM     27  F   LIG    1       -9.901  -8.388   3.368  0.00  0.00    -0.166 F 
ATOM     28  F   LIG    1      -11.009  -7.232   1.895  0.00  0.00    -0.166 F 
ATOM     29  F   LIG    1       -8.924  -6.770   2.302  0.00  0.00    -0.166 F 
ENDBRANCH  15  26
ENDBRANCH   9  11
ENDBRANCH   8   9
BRANCH   8  30
ATOM     30  O   LIG    1       -5.236  -8.472   0.300  0.00  0.00    -0.481 OA
ATOM     31  H   LIG    1       -5.786  -9.165   0.724  0.00  0.00    +0.295 HD
ENDBRANCH   8  30
ENDBRANCH   4   7
BRANCH   1  32
ATOM     32  O   LIG    1        0.390  -5.840  -0.609  0.00  0.00    -0.424 OA
BRANCH  32  36
ATOM     33  C   LIG    1        1.973  -2.354  -2.398  0.00  0.00    -0.014 A 
ATOM     34  C   LIG    1        2.770  -3.427  -1.951  0.00  0.00    +0.012 A 
ATOM     35  C   LIG    1        2.212  -4.581  -1.381  0.00  0.00    +0.047 A 
ATOM     36  C   LIG    1        0.835  -4.694  -1.226  0.00  0.00    +0.132 A 
ATOM     37  C   LIG    1        0.025  -3.636  -1.629  0.00  0.00    +0.047 A 
ATOM     38  C   LIG    1        0.584  -2.510  -2.245  0.00  0.00    +0.012 A 
BRANCH  33  40
ATOM     39  C   LIG    1        2.001   0.167  -2.901  0.00  0.00    +0.124 A 
ATOM     40  C   LIG    1        2.566  -1.123  -3.002  0.00  0.00    +0.022 A 
ATOM     41  C   LIG    1        3.770  -1.194  -3.733  0.00  0.00    +0.025 A 
ATOM     42  C   LIG    1        4.350  -0.055  -4.311  0.00  0.00    +0.074 A 
ATOM     43  C   LIG    1        3.680   1.141  -4.162  0.00  0.00    +0.125 A 
ATOM     44  N   LIG    1        2.527   1.270  -3.476  0.00  0.00    -0.240 NA
BRANCH  42  45
ATOM     45  C   LIG    1        5.643  -0.114  -5.061  0.00  0.00    +0.419 C 
ATOM     46  F   LIG    1        5.588  -0.953  -6.131  0.00  0.00    -0.166 F 
ATOM     47  F   LIG    1        6.672  -0.561  -4.290  0.00  0.00    -0.166 F 
ATOM     48  F   LIG    1        6.045   1.091  -5.552  0.00  0.00    -0.166 F 
ENDBRANCH  42  45
BRANCH  39  49
ATOM     49  N   LIG    1        0.842   0.445  -2.179  0.00  0.00    -0.343 N 
ATOM     50  H   LIG    1        0.946   0.162  -1.210  0.00  0.00    +0.144 HD
ATOM     51  H   LIG    1        0.684   1.446  -2.263  0.00  0.00    +0.144 HD
ENDBRANCH  39  49
ENDBRANCH  33  40
ENDBRANCH  32  36
ENDBRANCH   1  32
TORSDOF 12
