REMARK  Name = pdb/CHEMBL3962152.pdb
REMARK                            x       y       z     vdW  Elec       q    Type
REMARK                         _______ _______ _______ _____ _____    ______ ____
ROOT
ATOM      1  C   LIG    1        6.314   0.286   3.092  0.00  0.00    +0.131 C 
ATOM      2  N   LIG    1        5.573   0.857   4.058  0.00  0.00    -0.141 NA
ATOM      3  N   LIG    1        5.476   2.177   3.697  0.00  0.00    -0.201 N 
ATOM      4  C   LIG    1        5.973   2.376   2.400  0.00  0.00    +0.185 C 
ATOM      5  C   LIG    1        6.687   1.238   2.116  0.00  0.00    +0.056 C 
ENDROOT
BRANCH   3   6
ATOM      6  C   LIG    1        4.923   3.118   4.618  0.00  0.00    +0.052 A 
ATOM      7  C   LIG    1        4.027   2.663   5.602  0.00  0.00    +0.025 A 
ATOM      8  C   LIG    1        3.496   3.546   6.548  0.00  0.00    +0.002 A 
ATOM      9  C   LIG    1        3.864   4.888   6.532  0.00  0.00    +0.000 A 
ATOM     10  C   LIG    1        4.774   5.345   5.579  0.00  0.00    +0.002 A 
ATOM     11  C   LIG    1        5.308   4.467   4.622  0.00  0.00    +0.025 A 
ENDBRANCH   3   6
BRANCH   4  12
ATOM     12  N   LIG    1        5.739   3.456   1.529  0.00  0.00    -0.282 N 
ATOM     13  H   LIG    1        5.223   4.248   1.892  0.00  0.00    +0.152 HD
ATOM     14  C   LIG    1        6.004   3.390   0.097  0.00  0.00    +0.247 C 
ATOM     15  O   LIG    1        6.487   2.398  -0.392  0.00  0.00    -0.270 OA
BRANCH  14  16
ATOM     16  C   LIG    1        5.581   4.533  -0.780  0.00  0.00    +0.056 A 
ATOM     17  C   LIG    1        4.873   5.652  -0.342  0.00  0.00    +0.056 A 
ATOM     18 CL   LIG    1        4.691   6.098   1.315  0.00  0.00    -0.083 Cl
ATOM     19  C   LIG    1        4.282   6.508  -1.270  0.00  0.00    +0.059 A 
ATOM     20  C   LIG    1        4.503   6.329  -2.632  0.00  0.00    +0.134 A 
ATOM     21  F   LIG    1        3.835   7.133  -3.470  0.00  0.00    -0.205 F 
ATOM     22  C   LIG    1        5.367   5.344  -3.119  0.00  0.00    +0.039 A 
ATOM     23  C   LIG    1        5.854   4.414  -2.171  0.00  0.00    +0.027 A 
BRANCH  22  24
ATOM     24  C   LIG    1        5.744   5.275  -4.549  0.00  0.00    +0.109 A 
ATOM     25  C   LIG    1        5.872   6.407  -5.365  0.00  0.00    +0.149 A 
ATOM     26  F   LIG    1        5.718   7.647  -4.878  0.00  0.00    -0.203 F 
ATOM     27  C   LIG    1        6.214   6.267  -6.704  0.00  0.00    +0.042 A 
ATOM     28  C   LIG    1        6.460   4.998  -7.207  0.00  0.00    +0.023 A 
ATOM     29  C   LIG    1        6.359   3.923  -6.338  0.00  0.00    +0.111 A 
ATOM     30  N   LIG    1        6.010   4.030  -5.030  0.00  0.00    -0.252 NA
ENDBRANCH  22  24
ENDBRANCH  14  16
ENDBRANCH   4  12
BRANCH   1  31
ATOM     31  C   LIG    1        6.644  -1.142   3.107  0.00  0.00    +0.233 C 
ATOM     32  N   LIG    1        6.902  -1.768   2.014  0.00  0.00    -0.245 NA
BRANCH  31  33
ATOM     33  O   LIG    1        6.683  -1.729   4.325  0.00  0.00    -0.491 OA
ATOM     34  H   LIG    1        6.487  -1.081   5.022  0.00  0.00    +0.294 HD
ENDBRANCH  31  33
BRANCH  32  35
ATOM     35  C   LIG    1        7.220  -3.202   2.145  0.00  0.00    +0.180 C 
BRANCH  35  36
ATOM     36  C   LIG    1        8.701  -3.451   2.310  0.00  0.00    -0.002 C 
ATOM     37  C   LIG    1        9.145  -4.837   2.518  0.00  0.00    +0.013 C 
ATOM     38  C   LIG    1       10.443  -5.163   2.660  0.00  0.00    +0.096 C 
ATOM     39  C   LIG    1       11.439  -4.053   2.614  0.00  0.00    +0.294 C 
ATOM     40  N   LIG    1       10.984  -2.769   2.449  0.00  0.00    -0.225 N 
ATOM     41  H   LIG    1       11.631  -1.996   2.430  0.00  0.00    +0.292 HD
ATOM     42  C   LIG    1        9.649  -2.493   2.289  0.00  0.00    +0.240 C 
BRANCH  39  43
ATOM     43  N   LIG    1       12.695  -4.341   2.731  0.00  0.00    -0.071 NA
ATOM     44  H   LIG    1       13.247  -3.484   2.674  0.00  0.00    +0.348 HD
ENDBRANCH  39  43
ENDBRANCH  35  36
ENDBRANCH  32  35
ENDBRANCH   1  31
TORSDOF 9
