REMARK  Name = pdb/CHEMBL3908953.pdb
REMARK                            x       y       z     vdW  Elec       q    Type
REMARK                         _______ _______ _______ _____ _____    ______ ____
ROOT
ATOM      1  C   LIG    1       -1.037  -4.500   0.838  0.00  0.00    +0.132 C 
ATOM      2  N   LIG    1       -1.630  -5.417   0.048  0.00  0.00    -0.141 NA
ATOM      3  N   LIG    1       -0.918  -6.563   0.259  0.00  0.00    -0.201 N 
ATOM      4  C   LIG    1        0.304  -6.272   0.880  0.00  0.00    +0.185 C 
ATOM      5  C   LIG    1        0.147  -5.015   1.415  0.00  0.00    +0.056 C 
ENDROOT
BRANCH   3   6
ATOM      6  C   LIG    1       -1.388  -7.810  -0.255  0.00  0.00    +0.052 A 
ATOM      7  C   LIG    1       -0.991  -9.034   0.302  0.00  0.00    +0.025 A 
ATOM      8  C   LIG    1       -1.458 -10.240  -0.235  0.00  0.00    +0.002 A 
ATOM      9  C   LIG    1       -2.341 -10.234  -1.314  0.00  0.00    +0.000 A 
ATOM     10  C   LIG    1       -2.769  -9.021  -1.849  0.00  0.00    +0.002 A 
ATOM     11  C   LIG    1       -2.302  -7.814  -1.319  0.00  0.00    +0.025 A 
ENDBRANCH   3   6
BRANCH   4  12
ATOM     12  N   LIG    1        1.466  -7.050   0.877  0.00  0.00    -0.282 N 
ATOM     13  H   LIG    1        1.392  -7.987   0.496  0.00  0.00    +0.152 HD
ATOM     14  C   LIG    1        2.779  -6.558   1.241  0.00  0.00    +0.247 C 
ATOM     15  O   LIG    1        2.964  -5.398   1.522  0.00  0.00    -0.270 OA
BRANCH  14  16
ATOM     16  C   LIG    1        3.899  -7.546   1.169  0.00  0.00    +0.056 A 
ATOM     17  C   LIG    1        3.745  -8.901   1.408  0.00  0.00    +0.054 A 
ATOM     18 CL   LIG    1        2.256  -9.629   1.881  0.00  0.00    -0.083 Cl
ATOM     19  C   LIG    1        4.832  -9.762   1.283  0.00  0.00    +0.041 A 
ATOM     20  C   LIG    1        6.107  -9.288   0.929  0.00  0.00    +0.052 A 
ATOM     21 CL   LIG    1        7.272 -10.538   0.670  0.00  0.00    -0.083 Cl
ATOM     22  C   LIG    1        6.345  -7.914   0.728  0.00  0.00    +0.022 A 
ATOM     23  C   LIG    1        5.200  -7.064   0.843  0.00  0.00    +0.026 A 
BRANCH  22  24
ATOM     24  C   LIG    1        7.659  -7.293   0.368  0.00  0.00    +0.107 A 
ATOM     25  C   LIG    1        8.923  -7.720   0.794  0.00  0.00    +0.149 A 
ATOM     26  F   LIG    1        9.087  -8.747   1.637  0.00  0.00    -0.203 F 
ATOM     27  C   LIG    1       10.071  -7.033   0.398  0.00  0.00    +0.042 A 
ATOM     28  C   LIG    1        9.951  -5.897  -0.387  0.00  0.00    +0.023 A 
ATOM     29  C   LIG    1        8.677  -5.502  -0.749  0.00  0.00    +0.111 A 
ATOM     30  N   LIG    1        7.546  -6.169  -0.402  0.00  0.00    -0.252 NA
ENDBRANCH  22  24
ENDBRANCH  14  16
ENDBRANCH   4  12
BRANCH   1  32
ATOM     31  N   LIG    1       -1.221  -2.408   1.960  0.00  0.00    -0.208 NA
ATOM     32  C   LIG    1       -1.559  -3.134   0.948  0.00  0.00    +0.238 C 
BRANCH  31  35
ATOM     33  C   LIG    1       -1.544  -1.050   4.720  0.00  0.00    +0.070 C 
ATOM     34  C   LIG    1       -1.900  -0.510   3.386  0.00  0.00    +0.085 A 
ATOM     35  C   LIG    1       -1.750  -1.119   2.108  0.00  0.00    +0.111 A 
ATOM     36  C   LIG    1       -2.086  -0.135   1.203  0.00  0.00    +0.059 A 
ATOM     37  C   LIG    1       -2.068  -0.016  -0.271  0.00  0.00    +0.067 C 
ATOM     38  N   LIG    1       -2.506   0.922   1.967  0.00  0.00    -0.279 N 
ATOM     39  H   LIG    1       -2.848   1.822   1.647  0.00  0.00    +0.189 HD
ATOM     40  N   LIG    1       -2.386   0.734   3.287  0.00  0.00    -0.177 NA
ENDBRANCH  31  35
BRANCH  32  41
ATOM     41  O   LIG    1       -2.351  -2.763  -0.085  0.00  0.00    -0.491 OA
ATOM     42  H   LIG    1       -2.312  -3.434  -0.790  0.00  0.00    +0.294 HD
ENDBRANCH  32  41
ENDBRANCH   1  32
TORSDOF 7
