REMARK  Name = pdb/CHEMBL3671157.pdb
REMARK                            x       y       z     vdW  Elec       q    Type
REMARK                         _______ _______ _______ _____ _____    ______ ____
ROOT
ATOM      1  C   LIG    1        7.123   4.012  -3.361  0.00  0.00    +0.100 A 
ATOM      2  C   LIG    1        6.981   5.322  -3.797  0.00  0.00    +0.170 A 
ATOM      3  N   LIG    1        6.345   6.415  -3.251  0.00  0.00    -0.212 NA
ATOM      4  C   LIG    1        6.337   7.541  -3.940  0.00  0.00    +0.126 A 
ATOM      5  C   LIG    1        6.978   7.634  -5.305  0.00  0.00    +0.063 A 
ATOM      6  C   LIG    1        7.606   6.552  -5.773  0.00  0.00    +0.118 A 
ATOM      7  N   LIG    1        7.627   5.386  -5.033  0.00  0.00    -0.221 N 
ATOM      8  N   LIG    1        8.205   4.213  -5.374  0.00  0.00    -0.173 NA
ATOM      9  C   LIG    1        7.885   3.389  -4.376  0.00  0.00    +0.150 A 
ENDROOT
BRANCH   4  10
ATOM     10  N   LIG    1        5.722   8.664  -3.400  0.00  0.00    -0.308 N 
ATOM     11  C   LIG    1        5.956  10.049  -3.854  0.00  0.00    +0.108 C 
ATOM     12  C   LIG    1        6.071  10.804  -2.524  0.00  0.00    +0.029 C 
ATOM     13  C   LIG    1        5.028  10.130  -1.649  0.00  0.00    +0.021 C 
ATOM     14  C   LIG    1        5.116   8.659  -2.060  0.00  0.00    +0.107 C 
BRANCH  11  15
ATOM     15  C   LIG    1        4.824  10.548  -4.743  0.00  0.00    +0.011 A 
ATOM     16  C   LIG    1        5.032  11.583  -5.667  0.00  0.00    +0.129 A 
ATOM     17  F   LIG    1        6.250  12.127  -5.801  0.00  0.00    -0.205 F 
ATOM     18  C   LIG    1        3.995  12.073  -6.470  0.00  0.00    +0.041 A 
ATOM     19  C   LIG    1        2.714  11.535  -6.358  0.00  0.00    +0.041 A 
ATOM     20  C   LIG    1        2.492  10.511  -5.451  0.00  0.00    +0.124 A 
ATOM     21  F   LIG    1        1.268   9.985  -5.325  0.00  0.00    -0.205 F 
ATOM     22  C   LIG    1        3.524  10.020  -4.659  0.00  0.00    +0.046 A 
ENDBRANCH  11  15
ENDBRANCH   4  10
BRANCH   1  25
ATOM     23  N   LIG    1        5.914   4.238  -1.325  0.00  0.00    -0.309 N 
ATOM     24  H   LIG    1        5.733   5.178  -1.674  0.00  0.00    +0.149 HD
ATOM     25  C   LIG    1        6.623   3.390  -2.153  0.00  0.00    +0.249 C 
ATOM     26  O   LIG    1        6.828   2.218  -1.895  0.00  0.00    -0.270 OA
BRANCH  23  27
ATOM     27  C   LIG    1        5.295   3.795  -0.087  0.00  0.00    +0.138 C 
BRANCH  27  28
ATOM     28  C   LIG    1        5.850   4.561   1.119  0.00  0.00    +0.157 C 
BRANCH  28  29
ATOM     29  O   LIG    1        7.267   4.364   1.260  0.00  0.00    -0.388 OA
ATOM     30  H   LIG    1        7.648   4.436   0.366  0.00  0.00    +0.210 HD
ENDBRANCH  28  29
BRANCH  28  31
ATOM     31  C   LIG    1        5.195   4.096   2.420  0.00  0.00    +0.188 C 
BRANCH  31  32
ATOM     32  O   LIG    1        5.700   4.878   3.502  0.00  0.00    -0.392 OA
ATOM     33  H   LIG    1        6.670   4.889   3.369  0.00  0.00    +0.210 HD
ENDBRANCH  31  32
ENDBRANCH  28  31
ENDBRANCH  27  28
ENDBRANCH  23  27
ENDBRANCH   1  25
TORSDOF 8
