REMARK  Name = pdb/CHEMBL3892259.pdb
REMARK                            x       y       z     vdW  Elec       q    Type
REMARK                         _______ _______ _______ _____ _____    ______ ____
ROOT
ATOM      1  C   LIG    1        8.956  -0.907  -3.260  0.00  0.00    +0.149 A 
ATOM      2  N   LIG    1       10.159  -1.460  -3.029  0.00  0.00    -0.160 NA
ATOM      3  N   LIG    1       11.020  -0.401  -2.871  0.00  0.00    -0.218 N 
ATOM      4  C   LIG    1       10.326   0.832  -2.961  0.00  0.00    +0.129 A 
ATOM      5  C   LIG    1        9.026   0.501  -3.247  0.00  0.00    +0.078 A 
ENDROOT
BRANCH   3   6
ATOM      6  C   LIG    1       12.424  -0.668  -2.702  0.00  0.00    +0.067 A 
ATOM      7  C   LIG    1       13.382   0.343  -2.541  0.00  0.00    +0.028 A 
ATOM      8  C   LIG    1       14.743   0.040  -2.423  0.00  0.00    +0.002 A 
ATOM      9  C   LIG    1       15.177  -1.277  -2.478  0.00  0.00    +0.000 A 
ATOM     10  C   LIG    1       14.246  -2.298  -2.631  0.00  0.00    +0.002 A 
ATOM     11  C   LIG    1       12.880  -2.000  -2.738  0.00  0.00    +0.028 A 
ENDBRANCH   3   6
BRANCH   4  12
ATOM     12  N   LIG    1       10.815   2.122  -2.742  0.00  0.00    -0.266 N 
ATOM     13  H   LIG    1       11.620   2.226  -2.169  0.00  0.00    +0.157 HD
ATOM     14  C   LIG    1       10.209   3.338  -3.232  0.00  0.00    +0.251 C 
ATOM     15  O   LIG    1        9.210   3.297  -3.918  0.00  0.00    -0.270 OA
BRANCH  14  16
ATOM     16  C   LIG    1       10.935   4.614  -2.991  0.00  0.00    +0.056 A 
ATOM     17  C   LIG    1       11.760   4.831  -1.894  0.00  0.00    +0.054 A 
ATOM     18 CL   LIG    1       11.954   3.695  -0.605  0.00  0.00    -0.083 Cl
ATOM     19  C   LIG    1       12.476   6.024  -1.785  0.00  0.00    +0.041 A 
ATOM     20  C   LIG    1       12.365   7.028  -2.759  0.00  0.00    +0.052 A 
ATOM     21 CL   LIG    1       13.431   8.376  -2.535  0.00  0.00    -0.083 Cl
ATOM     22  C   LIG    1       11.488   6.887  -3.851  0.00  0.00    +0.019 A 
ATOM     23  C   LIG    1       10.793   5.645  -3.945  0.00  0.00    +0.026 A 
BRANCH  22  24
ATOM     24  C   LIG    1       11.266   7.912  -4.909  0.00  0.00    +0.073 A 
ATOM     25  N   LIG    1       10.975   7.407  -6.139  0.00  0.00    -0.252 NA
ATOM     26  C   LIG    1       10.760   8.284  -7.155  0.00  0.00    +0.149 A 
ATOM     27  C   LIG    1       10.840   9.655  -7.014  0.00  0.00    +0.141 A 
ATOM     28  F   LIG    1       10.641  10.469  -8.057  0.00  0.00    -0.204 F 
ATOM     29  C   LIG    1       11.120  10.173  -5.765  0.00  0.00    +0.042 A 
ATOM     30  C   LIG    1       11.306   9.295  -4.696  0.00  0.00    +0.031 A 
ENDBRANCH  22  24
ENDBRANCH  14  16
ENDBRANCH   4  12
BRANCH   1  32
ATOM     31  N   LIG    1        6.634  -1.152  -3.656  0.00  0.00    -0.246 NA
ATOM     32  C   LIG    1        7.760  -1.724  -3.465  0.00  0.00    +0.236 C 
BRANCH  31  37
ATOM     33  C   LIG    1        2.945   1.185  -2.054  0.00  0.00    +0.041 C 
ATOM     34  C   LIG    1        4.003   0.255  -2.661  0.00  0.00    +0.063 C 
ATOM     35  C   LIG    1        3.695  -0.005  -4.141  0.00  0.00    +0.036 C 
ATOM     36  C   LIG    1        4.506  -1.127  -4.811  0.00  0.00    +0.029 C 
ATOM     37  C   LIG    1        5.426  -1.934  -3.888  0.00  0.00    +0.109 C 
ATOM     38  C   LIG    1        4.718  -2.250  -2.574  0.00  0.00    +0.029 C 
ATOM     39  C   LIG    1        4.088  -1.051  -1.852  0.00  0.00    +0.036 C 
BRANCH  34  40
ATOM     40  O   LIG    1        5.236   0.978  -2.567  0.00  0.00    -0.389 OA
ATOM     41  H   LIG    1        5.458   1.057  -1.626  0.00  0.00    +0.210 HD
ENDBRANCH  34  40
ENDBRANCH  31  37
BRANCH  32  42
ATOM     42  O   LIG    1        7.942  -3.062  -3.421  0.00  0.00    -0.491 OA
ATOM     43  H   LIG    1        8.886  -3.247  -3.260  0.00  0.00    +0.294 HD
ENDBRANCH  32  42
ENDBRANCH   1  32
TORSDOF 8
