REMARK  Name = pdb/CHEMBL3671405.pdb
REMARK                            x       y       z     vdW  Elec       q    Type
REMARK                         _______ _______ _______ _____ _____    ______ ____
ROOT
ATOM      1  C   LIG    1        3.237  -3.667  -2.795  0.00  0.00    +0.197 C 
ATOM      2  O   LIG    1        3.368  -4.334  -1.764  0.00  0.00    -0.287 OA
ENDROOT
BRANCH   1  10
ATOM      3  N   LIG    1        4.175  -0.213  -3.664  0.00  0.00    -0.326 N 
ATOM      4  C   LIG    1        3.901  -0.048  -2.322  0.00  0.00    +0.147 A 
ATOM      5  N   LIG    1        3.980   1.103  -1.636  0.00  0.00    -0.197 NA
ATOM      6  C   LIG    1        3.638   0.994  -0.353  0.00  0.00    +0.214 A 
ATOM      7  N   LIG    1        3.209  -0.116   0.260  0.00  0.00    -0.222 NA
ATOM      8  C   LIG    1        3.150  -1.269  -0.449  0.00  0.00    +0.126 A 
ATOM      9  C   LIG    1        3.508  -1.274  -1.796  0.00  0.00    +0.048 A 
ATOM     10  C   LIG    1        3.562  -2.239  -2.844  0.00  0.00    +0.051 A 
ATOM     11  C   LIG    1        4.029  -1.554  -3.961  0.00  0.00    +0.100 A 
BRANCH   3  13
ATOM     12  C   LIG    1        4.017   0.500  -6.048  0.00  0.00    +0.034 C 
ATOM     13  C   LIG    1        4.583   0.825  -4.642  0.00  0.00    +0.039 C 
ATOM     14  C   LIG    1        4.068   2.241  -4.296  0.00  0.00    +0.034 C 
ATOM     15  C   LIG    1        6.119   0.886  -4.732  0.00  0.00    +0.034 C 
ENDBRANCH   3  13
BRANCH   6  16
ATOM     16  N   LIG    1        3.658   2.152   0.403  0.00  0.00    -0.327 N 
ATOM     17  H   LIG    1        3.503   2.948  -0.199  0.00  0.00    +0.145 HD
ATOM     18  H   LIG    1        3.030   2.039   1.187  0.00  0.00    +0.145 HD
ENDBRANCH   6  16
ENDBRANCH   1  10
BRANCH   1  19
ATOM     19  C   LIG    1        2.753  -4.339  -4.031  0.00  0.00    +0.042 A 
ATOM     20  C   LIG    1        3.041  -5.686  -4.300  0.00  0.00    +0.038 A 
ATOM     21  C   LIG    1        2.627  -6.261  -5.510  0.00  0.00    +0.052 A 
ATOM     22  C   LIG    1        1.957  -5.432  -6.409  0.00  0.00    +0.134 A 
ATOM     23  N   LIG    1        1.614  -4.144  -6.154  0.00  0.00    -0.261 NA
ATOM     24  C   LIG    1        1.989  -3.642  -4.961  0.00  0.00    +0.122 A 
BRANCH  21  25
ATOM     25  N   LIG    1        2.904  -7.631  -5.744  0.00  0.00    -0.284 N 
ATOM     26  H   LIG    1        3.353  -8.141  -4.990  0.00  0.00    +0.155 HD
ATOM     27  C   LIG    1        2.529  -8.362  -6.862  0.00  0.00    +0.223 C 
ATOM     28  O   LIG    1        1.908  -7.924  -7.829  0.00  0.00    -0.275 OA
BRANCH  27  29
ATOM     29  C   LIG    1        2.949  -9.816  -6.823  0.00  0.00    +0.151 C 
BRANCH  29  30
ATOM     30  C   LIG    1        1.884 -10.718  -6.259  0.00  0.00    +0.050 A 
ATOM     31  N   LIG    1        2.232 -11.458  -5.176  0.00  0.00    -0.258 NA
ATOM     32  C   LIG    1        1.314 -12.335  -4.699  0.00  0.00    +0.126 A 
ATOM     33  C   LIG    1        0.053 -12.505  -5.245  0.00  0.00    +0.036 A 
ATOM     34 BR   LIG    1       -1.152 -13.766  -4.530  0.00  0.00    -0.049 Br
ATOM     35  C   LIG    1       -0.300 -11.728  -6.341  0.00  0.00    +0.018 A 
ATOM     36  C   LIG    1        0.628 -10.824  -6.859  0.00  0.00    +0.025 A 
ENDBRANCH  29  30
ENDBRANCH  27  29
ENDBRANCH  21  25
ENDBRANCH   1  19
TORSDOF 7
