REMARK  Name = pdb/CHEMBL3930913.pdb
REMARK                            x       y       z     vdW  Elec       q    Type
REMARK                         _______ _______ _______ _____ _____    ______ ____
ROOT
ATOM      1  C   LIG    1        5.370   3.507   3.505  0.00  0.00    +0.042 A 
ATOM      2  C   LIG    1        5.171   4.330   4.634  0.00  0.00    +0.042 A 
ATOM      3  C   LIG    1        5.573   5.678   4.640  0.00  0.00    +0.086 A 
ATOM      4  C   LIG    1        6.165   6.142   3.462  0.00  0.00    +0.138 A 
ATOM      5  N   LIG    1        6.387   5.386   2.353  0.00  0.00    -0.260 NA
ATOM      6  C   LIG    1        5.971   4.096   2.400  0.00  0.00    +0.122 A 
ENDROOT
BRANCH   1   7
ATOM      7  C   LIG    1        4.879   2.090   3.446  0.00  0.00    +0.197 C 
ATOM      8  O   LIG    1        3.890   1.789   4.130  0.00  0.00    -0.287 OA
BRANCH   7  16
ATOM      9  N   LIG    1        7.229  -0.062   1.605  0.00  0.00    -0.343 N 
ATOM     10  C   LIG    1        6.079  -0.769   1.329  0.00  0.00    +0.053 A 
ATOM     11  C   LIG    1        5.881  -1.953   0.605  0.00  0.00    +0.046 A 
ATOM     12  C   LIG    1        4.577  -2.382   0.480  0.00  0.00    +0.113 A 
ATOM     13  N   LIG    1        3.518  -1.733   0.995  0.00  0.00    -0.263 NA
ATOM     14  C   LIG    1        3.718  -0.588   1.711  0.00  0.00    +0.121 A 
ATOM     15  C   LIG    1        5.011  -0.072   1.917  0.00  0.00    +0.029 A 
ATOM     16  C   LIG    1        5.559   1.083   2.605  0.00  0.00    +0.049 A 
ATOM     17  C   LIG    1        6.926   1.045   2.357  0.00  0.00    +0.099 A 
BRANCH   9  19
ATOM     18  C   LIG    1        9.052  -1.748   1.742  0.00  0.00    +0.030 C 
ATOM     19  C   LIG    1        8.584  -0.408   1.167  0.00  0.00    +0.081 C 
ATOM     20  C   LIG    1        8.729  -0.348  -0.356  0.00  0.00    +0.030 C 
ENDBRANCH   9  19
ENDBRANCH   7  16
ENDBRANCH   1   7
BRANCH   3  21
ATOM     21  N   LIG    1        5.303   6.460   5.792  0.00  0.00    -0.216 NA
ATOM     22  C   LIG    1        6.124   7.376   6.203  0.00  0.00    +0.193 C 
BRANCH  22  23
ATOM     23  O   LIG    1        7.260   7.670   5.537  0.00  0.00    -0.495 OA
ATOM     24  H   LIG    1        7.770   8.381   5.980  0.00  0.00    +0.293 HD
ENDBRANCH  22  23
BRANCH  22  25
ATOM     25  C   LIG    1        5.862   8.197   7.458  0.00  0.00    +0.150 C 
BRANCH  25  26
ATOM     26  C   LIG    1        7.137   8.652   8.133  0.00  0.00    +0.050 A 
ATOM     27  N   LIG    1        7.969   9.424   7.375  0.00  0.00    -0.258 NA
ATOM     28  C   LIG    1        9.147   9.812   7.927  0.00  0.00    +0.131 A 
ATOM     29  C   LIG    1        9.549   9.453   9.200  0.00  0.00    +0.059 A 
ATOM     30 CL   LIG    1       11.063   9.964   9.823  0.00  0.00    -0.082 Cl
ATOM     31  C   LIG    1        8.696   8.660   9.958  0.00  0.00    +0.023 A 
ATOM     32  C   LIG    1        7.472   8.251   9.422  0.00  0.00    +0.025 A 
ENDBRANCH  25  26
ENDBRANCH  22  25
ENDBRANCH   3  21
TORSDOF 7
