REMARK  Name = pdb/CHEMBL3937196.pdb
REMARK                            x       y       z     vdW  Elec       q    Type
REMARK                         _______ _______ _______ _____ _____    ______ ____
ROOT
ATOM      1  C   LIG    1        5.981   1.025   0.886  0.00  0.00    +0.149 A 
ATOM      2  N   LIG    1        5.688   1.956  -0.034  0.00  0.00    -0.160 NA
ATOM      3  N   LIG    1        5.073   2.957   0.645  0.00  0.00    -0.218 N 
ATOM      4  C   LIG    1        4.904   2.634   1.995  0.00  0.00    +0.129 A 
ATOM      5  C   LIG    1        5.525   1.421   2.163  0.00  0.00    +0.078 A 
ENDROOT
BRANCH   3   6
ATOM      6  C   LIG    1        4.650   4.125  -0.051  0.00  0.00    +0.067 A 
ATOM      7  C   LIG    1        4.479   5.345   0.614  0.00  0.00    +0.028 A 
ATOM      8  C   LIG    1        3.968   6.449  -0.076  0.00  0.00    +0.002 A 
ATOM      9  C   LIG    1        3.636   6.344  -1.427  0.00  0.00    +0.000 A 
ATOM     10  C   LIG    1        3.858   5.148  -2.106  0.00  0.00    +0.002 A 
ATOM     11  C   LIG    1        4.384   4.045  -1.428  0.00  0.00    +0.028 A 
ENDBRANCH   3   6
BRANCH   4  12
ATOM     12  N   LIG    1        4.142   3.291   2.966  0.00  0.00    -0.266 N 
ATOM     13  H   LIG    1        3.439   3.942   2.641  0.00  0.00    +0.157 HD
ATOM     14  C   LIG    1        4.239   2.989   4.376  0.00  0.00    +0.251 C 
ATOM     15  O   LIG    1        5.126   2.255   4.800  0.00  0.00    -0.270 OA
BRANCH  14  16
ATOM     16  C   LIG    1        3.334   3.678   5.322  0.00  0.00    +0.056 A 
ATOM     17  C   LIG    1        2.053   4.094   4.987  0.00  0.00    +0.054 A 
ATOM     18 CL   LIG    1        1.296   3.717   3.482  0.00  0.00    -0.083 Cl
ATOM     19  C   LIG    1        1.306   4.826   5.909  0.00  0.00    +0.041 A 
ATOM     20  C   LIG    1        1.828   5.154   7.171  0.00  0.00    +0.052 A 
ATOM     21 CL   LIG    1        0.831   6.207   8.120  0.00  0.00    -0.083 Cl
ATOM     22  C   LIG    1        3.095   4.689   7.582  0.00  0.00    +0.022 A 
ATOM     23  C   LIG    1        3.816   3.927   6.627  0.00  0.00    +0.026 A 
BRANCH  22  24
ATOM     24  C   LIG    1        3.685   4.954   8.925  0.00  0.00    +0.107 A 
ATOM     25  C   LIG    1        5.058   5.105   9.149  0.00  0.00    +0.149 A 
ATOM     26  F   LIG    1        5.943   5.044   8.143  0.00  0.00    -0.203 F 
ATOM     27  C   LIG    1        5.540   5.326  10.436  0.00  0.00    +0.042 A 
ATOM     28  C   LIG    1        4.640   5.416  11.489  0.00  0.00    +0.023 A 
ATOM     29  C   LIG    1        3.295   5.261  11.205  0.00  0.00    +0.111 A 
ATOM     30  N   LIG    1        2.811   5.012   9.963  0.00  0.00    -0.252 NA
ENDBRANCH  22  24
ENDBRANCH  14  16
ENDBRANCH   4  12
BRANCH   1  31
ATOM     31  C   LIG    1        6.667  -0.227   0.577  0.00  0.00    +0.236 C 
ATOM     32  N   LIG    1        6.888  -1.076   1.516  0.00  0.00    -0.241 NA
BRANCH  31  33
ATOM     33  O   LIG    1        7.037  -0.369  -0.711  0.00  0.00    -0.491 OA
ATOM     34  H   LIG    1        7.843  -0.910  -0.767  0.00  0.00    +0.294 HD
ENDBRANCH  31  33
BRANCH  32  35
ATOM     35  C   LIG    1        7.583  -2.342   1.226  0.00  0.00    +0.221 C 
BRANCH  35  36
ATOM     36  C   LIG    1        9.055  -2.210   0.867  0.00  0.00    +0.150 A 
ATOM     37  N   LIG    1        9.895  -3.196   1.224  0.00  0.00    -0.238 NA
ATOM     38  C   LIG    1       11.186  -3.035   0.872  0.00  0.00    +0.114 A 
ATOM     39  C   LIG    1       11.663  -1.943   0.186  0.00  0.00    +0.039 A 
ATOM     40  C   LIG    1       10.725  -1.003  -0.156  0.00  0.00    +0.114 A 
ATOM     41  N   LIG    1        9.419  -1.127   0.140  0.00  0.00    -0.238 NA
ENDBRANCH  35  36
ENDBRANCH  32  35
ENDBRANCH   1  31
TORSDOF 8
