REMARK  Name = pdb/CHEMBL3952185.pdb
REMARK                            x       y       z     vdW  Elec       q    Type
REMARK                         _______ _______ _______ _____ _____    ______ ____
ROOT
ATOM      1  C   LIG    1        7.247   3.259   2.145  0.00  0.00    +0.149 A 
ATOM      2  N   LIG    1        7.580   3.620   3.394  0.00  0.00    -0.160 NA
ATOM      3  N   LIG    1        7.640   4.974   3.379  0.00  0.00    -0.218 N 
ATOM      4  C   LIG    1        7.136   5.500   2.179  0.00  0.00    +0.129 A 
ATOM      5  C   LIG    1        6.996   4.408   1.351  0.00  0.00    +0.078 A 
ENDROOT
BRANCH   3   6
ATOM      6  C   LIG    1        8.115   5.665   4.531  0.00  0.00    +0.067 A 
ATOM      7  C   LIG    1        8.094   5.025   5.781  0.00  0.00    +0.028 A 
ATOM      8  C   LIG    1        8.486   5.717   6.931  0.00  0.00    +0.002 A 
ATOM      9  C   LIG    1        8.929   7.034   6.837  0.00  0.00    +0.000 A 
ATOM     10  C   LIG    1        9.019   7.649   5.590  0.00  0.00    +0.002 A 
ATOM     11  C   LIG    1        8.627   6.963   4.437  0.00  0.00    +0.028 A 
ENDBRANCH   3   6
BRANCH   4  12
ATOM     12  N   LIG    1        6.771   6.835   1.904  0.00  0.00    -0.266 N 
ATOM     13  H   LIG    1        6.849   7.505   2.658  0.00  0.00    +0.157 HD
ATOM     14  C   LIG    1        6.185   7.263   0.653  0.00  0.00    +0.251 C 
ATOM     15  O   LIG    1        5.999   6.474  -0.251  0.00  0.00    -0.270 OA
BRANCH  14  16
ATOM     16  C   LIG    1        5.714   8.671   0.511  0.00  0.00    +0.056 A 
ATOM     17  C   LIG    1        6.289   9.768   1.143  0.00  0.00    +0.054 A 
ATOM     18 CL   LIG    1        7.753   9.675   2.042  0.00  0.00    -0.083 Cl
ATOM     19  C   LIG    1        5.704  11.030   1.008  0.00  0.00    +0.041 A 
ATOM     20  C   LIG    1        4.581  11.223   0.189  0.00  0.00    +0.052 A 
ATOM     21 CL   LIG    1        3.871  12.804   0.256  0.00  0.00    -0.083 Cl
ATOM     22  C   LIG    1        4.061  10.171  -0.592  0.00  0.00    +0.022 A 
ATOM     23  C   LIG    1        4.634   8.893  -0.374  0.00  0.00    +0.026 A 
BRANCH  22  24
ATOM     24  C   LIG    1        3.043  10.364  -1.661  0.00  0.00    +0.107 A 
ATOM     25  C   LIG    1        2.128   9.389  -2.065  0.00  0.00    +0.149 A 
ATOM     26  F   LIG    1        2.039   8.207  -1.437  0.00  0.00    -0.203 F 
ATOM     27  C   LIG    1        1.294   9.622  -3.156  0.00  0.00    +0.042 A 
ATOM     28  C   LIG    1        1.363  10.842  -3.816  0.00  0.00    +0.023 A 
ATOM     29  C   LIG    1        2.280  11.771  -3.362  0.00  0.00    +0.111 A 
ATOM     30  N   LIG    1        3.125  11.546  -2.329  0.00  0.00    -0.252 NA
ENDBRANCH  22  24
ENDBRANCH  14  16
ENDBRANCH   4  12
BRANCH   1  32
ATOM     31  N   LIG    1        6.753   1.581   0.530  0.00  0.00    -0.240 NA
ATOM     32  C   LIG    1        7.121   1.856   1.729  0.00  0.00    +0.236 C 
BRANCH  32  33
ATOM     33  O   LIG    1        7.412   0.941   2.677  0.00  0.00    -0.491 OA
ATOM     34  H   LIG    1        7.046   0.073   2.456  0.00  0.00    +0.294 HD
ENDBRANCH  32  33
BRANCH  31  35
ATOM     35  C   LIG    1        6.708   0.194   0.060  0.00  0.00    +0.240 C 
BRANCH  35  38
ATOM     36  C   LIG    1        3.622  -1.165   1.794  0.00  0.00    +0.174 C 
ATOM     37  N   LIG    1        4.926  -0.561   1.562  0.00  0.00    -0.257 NA
ATOM     38  C   LIG    1        5.358  -0.422   0.360  0.00  0.00    +0.204 C 
BRANCH  38  39
ATOM     39  O   LIG    1        4.707  -0.833  -0.743  0.00  0.00    -0.494 OA
ATOM     40  H   LIG    1        3.841  -1.213  -0.542  0.00  0.00    +0.293 HD
ENDBRANCH  38  39
ENDBRANCH  35  38
ENDBRANCH  31  35
ENDBRANCH   1  32
TORSDOF 9
