REMARK  Name = pdb/CHEMBL2037224.pdb
REMARK                            x       y       z     vdW  Elec       q    Type
REMARK                         _______ _______ _______ _____ _____    ______ ____
ROOT
ATOM      1  C   LIG    1        4.058  -4.282  -5.631  0.00  0.00    +0.037 A 
ATOM      2  C   LIG    1        2.809  -4.695  -5.150  0.00  0.00    +0.046 A 
ATOM      3  C   LIG    1        2.364  -6.027  -5.292  0.00  0.00    +0.033 A 
ATOM      4  C   LIG    1        3.237  -6.971  -5.839  0.00  0.00    +0.023 A 
ATOM      5  C   LIG    1        4.470  -6.570  -6.342  0.00  0.00    +0.004 A 
ATOM      6  C   LIG    1        4.862  -5.232  -6.263  0.00  0.00    +0.023 A 
ENDROOT
BRANCH   1  10
ATOM      7  N   LIG    1        5.729  -1.012  -5.491  0.00  0.00    -0.269 N 
ATOM      8  H   LIG    1        4.956  -0.608  -4.985  0.00  0.00    +0.156 HD
ATOM      9  C   LIG    1        5.641  -2.356  -5.832  0.00  0.00    +0.308 C 
ATOM     10  N   LIG    1        4.440  -2.927  -5.435  0.00  0.00    -0.269 N 
ATOM     11  H   LIG    1        3.798  -2.354  -4.908  0.00  0.00    +0.156 HD
ATOM     12  O   LIG    1        6.520  -2.966  -6.426  0.00  0.00    -0.252 OA
BRANCH   7  15
ATOM     13  C   LIG    1        7.827   2.071  -5.539  0.00  0.00    +0.057 A 
ATOM     14  C   LIG    1        6.754   1.176  -5.332  0.00  0.00    +0.035 A 
ATOM     15  C   LIG    1        6.829  -0.156  -5.762  0.00  0.00    +0.035 A 
ATOM     16  C   LIG    1        7.990  -0.569  -6.425  0.00  0.00    +0.023 A 
ATOM     17  C   LIG    1        9.057   0.305  -6.638  0.00  0.00    +0.002 A 
ATOM     18  C   LIG    1        8.980   1.618  -6.193  0.00  0.00    +0.012 A 
BRANCH  13  20
ATOM     19  F   LIG    1        8.853   4.233  -5.307  0.00  0.00    -0.166 F 
ATOM     20  C   LIG    1        7.737   3.495  -5.050  0.00  0.00    +0.417 C 
ATOM     21  F   LIG    1        6.701   4.175  -5.616  0.00  0.00    -0.166 F 
ATOM     22  F   LIG    1        7.542   3.569  -3.705  0.00  0.00    -0.166 F 
ENDBRANCH  13  20
ENDBRANCH   7  15
ENDBRANCH   1  10
BRANCH   3  23
ATOM     23  N   LIG    1        1.090  -6.438  -4.824  0.00  0.00    -0.314 N 
ATOM     24  H   LIG    1        0.872  -7.392  -5.106  0.00  0.00    +0.152 HD
BRANCH  23  25
ATOM     25  C   LIG    1       -0.088  -5.653  -4.845  0.00  0.00    +0.033 A 
ATOM     26  C   LIG    1       -0.291  -4.669  -5.819  0.00  0.00    +0.047 A 
ATOM     27  C   LIG    1       -1.428  -3.903  -5.737  0.00  0.00    +0.043 A 
ATOM     28  N   LIG    1       -1.748  -2.830  -6.551  0.00  0.00    -0.281 N 
ATOM     29  H   LIG    1       -1.202  -2.487  -7.326  0.00  0.00    +0.155 HD
ATOM     30  C   LIG    1       -2.942  -2.250  -6.170  0.00  0.00    +0.249 C 
ATOM     31  O   LIG    1       -3.476  -1.320  -6.718  0.00  0.00    -0.270 OA
ATOM     32  C   LIG    1       -3.418  -3.056  -4.975  0.00  0.00    +0.048 C 
ATOM     33  C   LIG    1       -4.490  -2.879  -4.192  0.00  0.00    +0.039 C 
ATOM     34  C   LIG    1       -2.408  -4.103  -4.760  0.00  0.00    +0.008 A 
ATOM     35  C   LIG    1       -2.263  -5.123  -3.838  0.00  0.00    +0.012 A 
ATOM     36  C   LIG    1       -1.096  -5.901  -3.887  0.00  0.00    +0.024 A 
BRANCH  33  37
ATOM     37  C   LIG    1       -5.454  -1.842  -4.277  0.00  0.00    +0.040 A 
ATOM     38  N   LIG    1       -5.766  -1.242  -5.473  0.00  0.00    -0.361 N 
ATOM     39  H   LIG    1       -5.301  -1.423  -6.357  0.00  0.00    +0.165 HD
ATOM     40  C   LIG    1       -6.701  -0.260  -5.280  0.00  0.00    +0.083 A 
ATOM     41  C   LIG    1       -7.031  -0.249  -3.946  0.00  0.00    +0.019 A 
ATOM     42  C   LIG    1       -6.259  -1.255  -3.316  0.00  0.00    +0.027 A 
ENDBRANCH  33  37
ENDBRANCH  23  25
ENDBRANCH   3  23
TORSDOF 6
