REMARK  Name = pdb/CHEMBL3298267.pdb
REMARK                            x       y       z     vdW  Elec       q    Type
REMARK                         _______ _______ _______ _____ _____    ______ ____
ROOT
ATOM      1  C   LIG    1       10.754   6.471  -0.550  0.00  0.00    +0.241 C 
ENDROOT
BRANCH   1   5
ATOM      2  C   LIG    1        9.771   3.080  -1.045  0.00  0.00    +0.113 A 
ATOM      3  N   LIG    1        9.134   3.446   0.119  0.00  0.00    -0.129 NA
ATOM      4  N   LIG    1        9.475   4.694   0.413  0.00  0.00    -0.065 NA
ATOM      5  N   LIG    1       10.329   5.101  -0.538  0.00  0.00    -0.242 N 
ATOM      6  C   LIG    1       10.562   4.130  -1.461  0.00  0.00    +0.139 A 
BRANCH   2  10
ATOM      7  C   LIG    1        9.075  -0.634  -3.061  0.00  0.00    +0.047 A 
ATOM      8  C   LIG    1        8.454  -0.359  -1.837  0.00  0.00    +0.027 A 
ATOM      9  C   LIG    1        8.690   0.859  -1.185  0.00  0.00    +0.012 A 
ATOM     10  C   LIG    1        9.565   1.811  -1.727  0.00  0.00    +0.004 A 
ATOM     11  C   LIG    1       10.193   1.516  -2.947  0.00  0.00    +0.012 A 
ATOM     12  C   LIG    1        9.939   0.313  -3.619  0.00  0.00    +0.027 A 
BRANCH   7  17
ATOM     13  C   LIG    1        8.575  -4.254  -6.484  0.00  0.00    +0.067 C 
ATOM     14  C   LIG    1        8.632  -3.452  -5.241  0.00  0.00    +0.056 A 
ATOM     15  N   LIG    1        8.300  -4.015  -4.037  0.00  0.00    -0.241 NA
ATOM     16  C   LIG    1        8.427  -3.048  -3.155  0.00  0.00    +0.204 A 
ATOM     17  N   LIG    1        8.836  -1.864  -3.726  0.00  0.00    -0.306 N 
ATOM     18  C   LIG    1        8.977  -2.128  -5.071  0.00  0.00    +0.115 A 
ENDBRANCH   7  17
ENDBRANCH   2  10
ENDBRANCH   1   5
BRANCH   1  19
ATOM     19  C   LIG    1        9.681   7.334  -1.152  0.00  0.00    +0.240 C 
ATOM     20  N   LIG    1        8.376   7.328  -0.504  0.00  0.00    -0.269 N 
ATOM     21  H   LIG    1        8.186   6.607   0.187  0.00  0.00    +0.156 HD
ATOM     22  O   LIG    1        9.890   8.015  -2.140  0.00  0.00    -0.273 OA
BRANCH  20  23
ATOM     23  C   LIG    1        7.311   8.106  -0.984  0.00  0.00    +0.129 A 
ATOM     24  N   LIG    1        5.937   7.914  -0.791  0.00  0.00    -0.218 N 
ATOM     25  N   LIG    1        5.206   8.652  -1.671  0.00  0.00    -0.169 NA
ATOM     26  C   LIG    1        6.101   9.426  -2.279  0.00  0.00    +0.068 A 
ATOM     27  C   LIG    1        7.408   9.175  -1.844  0.00  0.00    +0.069 A 
BRANCH  24  28
ATOM     28  C   LIG    1        5.290   7.010   0.088  0.00  0.00    +0.067 A 
ATOM     29  C   LIG    1        4.067   6.441  -0.302  0.00  0.00    +0.028 A 
ATOM     30  C   LIG    1        3.426   5.525   0.531  0.00  0.00    +0.002 A 
ATOM     31  C   LIG    1        3.980   5.202   1.768  0.00  0.00    +0.000 A 
ATOM     32  C   LIG    1        5.175   5.795   2.176  0.00  0.00    +0.002 A 
ATOM     33  C   LIG    1        5.837   6.698   1.339  0.00  0.00    +0.028 A 
ENDBRANCH  24  28
BRANCH  26  34
ATOM     34  C   LIG    1        5.724  10.407  -3.378  0.00  0.00    +0.040 C 
ATOM     35  C   LIG    1        6.633  10.491  -4.594  0.00  0.00    +0.010 C 
ATOM     36  C   LIG    1        6.583  11.630  -3.634  0.00  0.00    +0.010 C 
ENDBRANCH  26  34
ENDBRANCH  20  23
ENDBRANCH   1  19
TORSDOF 7
