REMARK  Name = pdb/CHEMBL3671134.pdb
REMARK                            x       y       z     vdW  Elec       q    Type
REMARK                         _______ _______ _______ _____ _____    ______ ____
ROOT
ATOM      1  C   LIG    1        8.648  -3.813   1.205  0.00  0.00    +0.101 A 
ATOM      2  C   LIG    1       10.016  -3.881   1.017  0.00  0.00    +0.170 A 
ATOM      3  N   LIG    1       11.036  -3.013   1.320  0.00  0.00    -0.212 NA
ATOM      4  C   LIG    1       12.269  -3.364   1.009  0.00  0.00    +0.126 A 
ATOM      5  C   LIG    1       12.566  -4.679   0.318  0.00  0.00    +0.063 A 
ATOM      6  C   LIG    1       11.535  -5.486   0.050  0.00  0.00    +0.118 A 
ATOM      7  N   LIG    1       10.250  -5.105   0.386  0.00  0.00    -0.221 N 
ATOM      8  N   LIG    1        9.110  -5.801   0.171  0.00  0.00    -0.173 NA
ATOM      9  C   LIG    1        8.151  -5.005   0.640  0.00  0.00    +0.150 A 
ENDROOT
BRANCH   4  10
ATOM     10  N   LIG    1       13.320  -2.507   1.318  0.00  0.00    -0.308 N 
ATOM     11  C   LIG    1       14.687  -2.980   1.603  0.00  0.00    +0.108 C 
ATOM     12  C   LIG    1       15.115  -2.109   2.796  0.00  0.00    +0.029 C 
ATOM     13  C   LIG    1       14.434  -0.781   2.529  0.00  0.00    +0.021 C 
ATOM     14  C   LIG    1       13.086  -1.201   1.954  0.00  0.00    +0.107 C 
BRANCH  11  15
ATOM     15  C   LIG    1       15.616  -2.850   0.407  0.00  0.00    +0.011 A 
ATOM     16  C   LIG    1       16.968  -3.197   0.549  0.00  0.00    +0.129 A 
ATOM     17  F   LIG    1       17.412  -3.678   1.719  0.00  0.00    -0.205 F 
ATOM     18  C   LIG    1       17.883  -3.049  -0.494  0.00  0.00    +0.041 A 
ATOM     19  C   LIG    1       17.453  -2.554  -1.721  0.00  0.00    +0.041 A 
ATOM     20  C   LIG    1       16.110  -2.243  -1.893  0.00  0.00    +0.124 A 
ATOM     21  F   LIG    1       15.692  -1.768  -3.073  0.00  0.00    -0.205 F 
ATOM     22  C   LIG    1       15.192  -2.401  -0.855  0.00  0.00    +0.046 A 
ENDBRANCH  11  15
ENDBRANCH   4  10
BRANCH   1  25
ATOM     23  N   LIG    1        8.543  -1.995   2.730  0.00  0.00    -0.265 N 
ATOM     24  H   LIG    1        9.551  -1.958   2.665  0.00  0.00    +0.157 HD
ATOM     25  C   LIG    1        7.846  -2.779   1.832  0.00  0.00    +0.254 C 
ATOM     26  O   LIG    1        6.668  -2.660   1.560  0.00  0.00    -0.270 OA
BRANCH  23  30
ATOM     27  C   LIG    1        7.878   2.260   4.686  0.00  0.00    +0.172 C 
ATOM     28  N   LIG    1        7.615   0.883   4.343  0.00  0.00    -0.273 N 
ATOM     29  N   LIG    1        8.550   0.149   3.708  0.00  0.00    -0.156 NA
ATOM     30  C   LIG    1        7.925  -1.006   3.451  0.00  0.00    +0.147 A 
ATOM     31  C   LIG    1        6.651  -1.050   4.064  0.00  0.00    +0.065 A 
ATOM     32  C   LIG    1        6.488   0.181   4.650  0.00  0.00    +0.110 A 
ENDBRANCH  23  30
ENDBRANCH   1  25
TORSDOF 4
