REMARK  Name = pdb/CHEMBL3968335.pdb
REMARK                            x       y       z     vdW  Elec       q    Type
REMARK                         _______ _______ _______ _____ _____    ______ ____
ROOT
ATOM      1  C   LIG    1       -0.406  -4.287   0.673  0.00  0.00    +0.149 A 
ATOM      2  N   LIG    1       -1.039  -5.110  -0.180  0.00  0.00    -0.160 NA
ATOM      3  N   LIG    1       -0.501  -6.339   0.036  0.00  0.00    -0.218 N 
ATOM      4  C   LIG    1        0.578  -6.277   0.924  0.00  0.00    +0.129 A 
ATOM      5  C   LIG    1        0.625  -4.972   1.362  0.00  0.00    +0.078 A 
ENDROOT
BRANCH   3   6
ATOM      6  C   LIG    1       -1.036  -7.470  -0.650  0.00  0.00    +0.067 A 
ATOM      7  C   LIG    1       -0.958  -8.757  -0.106  0.00  0.00    +0.028 A 
ATOM      8  C   LIG    1       -1.505  -9.847  -0.788  0.00  0.00    +0.002 A 
ATOM      9  C   LIG    1       -2.157  -9.660  -2.004  0.00  0.00    +0.000 A 
ATOM     10  C   LIG    1       -2.251  -8.382  -2.551  0.00  0.00    +0.002 A 
ATOM     11  C   LIG    1       -1.696  -7.287  -1.878  0.00  0.00    +0.028 A 
ENDBRANCH   3   6
BRANCH   4  12
ATOM     12  N   LIG    1        1.485  -7.284   1.269  0.00  0.00    -0.266 N 
ATOM     13  H   LIG    1        1.273  -8.229   0.963  0.00  0.00    +0.157 HD
ATOM     14  C   LIG    1        2.779  -7.056   1.858  0.00  0.00    +0.251 C 
ATOM     15  O   LIG    1        3.173  -5.911   2.098  0.00  0.00    -0.270 OA
BRANCH  14  16
ATOM     16  C   LIG    1        3.633  -8.231   2.138  0.00  0.00    +0.056 A 
ATOM     17  C   LIG    1        3.575  -9.428   1.414  0.00  0.00    +0.054 A 
ATOM     18 CL   LIG    1        2.459  -9.730   0.134  0.00  0.00    -0.083 Cl
ATOM     19  C   LIG    1        4.495 -10.439   1.674  0.00  0.00    +0.041 A 
ATOM     20  C   LIG    1        5.482 -10.293   2.661  0.00  0.00    +0.052 A 
ATOM     21 CL   LIG    1        6.683 -11.539   2.660  0.00  0.00    -0.083 Cl
ATOM     22  C   LIG    1        5.522  -9.153   3.488  0.00  0.00    +0.022 A 
ATOM     23  C   LIG    1        4.598  -8.122   3.166  0.00  0.00    +0.026 A 
BRANCH  22  24
ATOM     24  C   LIG    1        6.458  -8.954   4.632  0.00  0.00    +0.107 A 
ATOM     25  C   LIG    1        6.921  -9.966   5.480  0.00  0.00    +0.149 A 
ATOM     26  F   LIG    1        6.496 -11.232   5.376  0.00  0.00    -0.203 F 
ATOM     27  C   LIG    1        7.794  -9.667   6.523  0.00  0.00    +0.042 A 
ATOM     28  C   LIG    1        8.146  -8.346   6.754  0.00  0.00    +0.023 A 
ATOM     29  C   LIG    1        7.611  -7.381   5.919  0.00  0.00    +0.111 A 
ATOM     30  N   LIG    1        6.794  -7.653   4.870  0.00  0.00    -0.252 NA
ENDBRANCH  22  24
ENDBRANCH  14  16
ENDBRANCH   4  12
BRANCH   1  32
ATOM     31  N   LIG    1        0.015  -2.146   1.594  0.00  0.00    -0.208 NA
ATOM     32  C   LIG    1       -0.744  -2.870   0.837  0.00  0.00    +0.241 C 
BRANCH  31  35
ATOM     33  C   LIG    1       -0.560   0.104  -0.726  0.00  0.00    +0.070 C 
ATOM     34  C   LIG    1       -0.424   0.224   0.747  0.00  0.00    +0.085 A 
ATOM     35  C   LIG    1       -0.223  -0.781   1.725  0.00  0.00    +0.108 A 
ATOM     36  C   LIG    1       -0.102  -0.116   2.917  0.00  0.00    +0.133 A 
ATOM     37  N   LIG    1       -0.265   1.205   2.619  0.00  0.00    -0.282 N 
ATOM     38  H   LIG    1       -0.208   2.003   3.244  0.00  0.00    +0.188 HD
ATOM     39  N   LIG    1       -0.512   1.434   1.318  0.00  0.00    -0.177 NA
ENDBRANCH  31  35
BRANCH  32  40
ATOM     40  O   LIG    1       -1.860  -2.466   0.191  0.00  0.00    -0.491 OA
ATOM     41  H   LIG    1       -2.133  -1.584   0.477  0.00  0.00    +0.294 HD
ENDBRANCH  32  40
ENDBRANCH   1  32
TORSDOF 7
