REMARK  Name = pdb/CHEMBL3974941.pdb
REMARK                            x       y       z     vdW  Elec       q    Type
REMARK                         _______ _______ _______ _____ _____    ______ ____
ROOT
ATOM      1  C   LIG    1        3.372  -7.877   0.066  0.00  0.00    +0.323 A 
ATOM      2  N   LIG    1        2.760  -6.712  -0.206  0.00  0.00    -0.201 NA
ATOM      3  C   LIG    1        1.610  -6.793  -0.937  0.00  0.00    +0.145 A 
ATOM      4  C   LIG    1        1.043  -7.968  -1.423  0.00  0.00    +0.105 A 
ATOM      5  C   LIG    1        1.759  -9.081  -1.028  0.00  0.00    +0.145 A 
ATOM      6  N   LIG    1        2.878  -9.072  -0.279  0.00  0.00    -0.201 NA
ENDROOT
BRANCH   4   7
ATOM      7  N   LIG    1       -0.181  -7.986  -2.152  0.00  0.00    -0.196 NA
ATOM      8  C   LIG    1       -0.430  -8.909  -3.002  0.00  0.00    +0.285 C 
BRANCH   8   9
ATOM      9  N   LIG    1       -1.619  -9.075  -3.695  0.00  0.00    -0.269 N 
ATOM     10  H   LIG    1       -2.327  -8.375  -3.478  0.00  0.00    +0.157 HD
BRANCH   9  11
ATOM     11  C   LIG    1       -1.785  -9.672  -4.969  0.00  0.00    +0.043 A 
ATOM     12  C   LIG    1       -2.969 -10.360  -5.350  0.00  0.00    +0.005 A 
ATOM     13  C   LIG    1       -2.959 -10.968  -6.633  0.00  0.00    +0.011 A 
ATOM     14  C   LIG    1       -1.858 -10.913  -7.496  0.00  0.00    +0.013 A 
ATOM     15  C   LIG    1       -0.705 -10.232  -7.122  0.00  0.00    +0.057 A 
ATOM     16  C   LIG    1       -0.696  -9.602  -5.876  0.00  0.00    +0.036 A 
BRANCH  12  17
ATOM     17  C   LIG    1       -4.184 -10.541  -4.493  0.00  0.00    +0.002 A 
ATOM     18  C   LIG    1       -4.143 -10.683  -3.104  0.00  0.00    +0.119 A 
ATOM     19  N   LIG    1       -5.217 -10.904  -2.297  0.00  0.00    -0.263 NA
ATOM     20  C   LIG    1       -6.417 -11.026  -2.893  0.00  0.00    +0.111 A 
ATOM     21  C   LIG    1       -6.595 -10.917  -4.257  0.00  0.00    +0.020 A 
ATOM     22  C   LIG    1       -5.474 -10.658  -5.050  0.00  0.00    +0.011 A 
ENDBRANCH  12  17
BRANCH  15  23
ATOM     23  C   LIG    1        0.500 -10.182  -8.029  0.00  0.00    +0.417 C 
ATOM     24  F   LIG    1        0.228  -9.585  -9.220  0.00  0.00    -0.166 F 
ATOM     25  F   LIG    1        0.976 -11.422  -8.325  0.00  0.00    -0.166 F 
ATOM     26  F   LIG    1        1.551  -9.499  -7.495  0.00  0.00    -0.166 F 
ENDBRANCH  15  23
ENDBRANCH   9  11
ENDBRANCH   8   9
BRANCH   8  27
ATOM     27  O   LIG    1        0.473  -9.878  -3.276  0.00  0.00    -0.481 OA
ATOM     28  H   LIG    1        0.101 -10.569  -3.850  0.00  0.00    +0.295 HD
ENDBRANCH   8  27
ENDBRANCH   4   7
BRANCH   1  29
ATOM     29  O   LIG    1        4.560  -7.808   0.791  0.00  0.00    -0.424 OA
BRANCH  29  33
ATOM     30  C   LIG    1        7.602 -10.726   0.571  0.00  0.00    -0.013 A 
ATOM     31  C   LIG    1        6.529 -10.788  -0.315  0.00  0.00    +0.012 A 
ATOM     32  C   LIG    1        5.522  -9.824  -0.282  0.00  0.00    +0.047 A 
ATOM     33  C   LIG    1        5.518  -8.798   0.666  0.00  0.00    +0.132 A 
ATOM     34  C   LIG    1        6.605  -8.718   1.543  0.00  0.00    +0.047 A 
ATOM     35  C   LIG    1        7.641  -9.667   1.489  0.00  0.00    +0.012 A 
BRANCH  30  40
ATOM     36  C   LIG    1       12.739  -9.500   1.937  0.00  0.00    +0.066 C 
ATOM     37  C   LIG    1       11.943 -10.690   1.469  0.00  0.00    +0.042 A 
ATOM     38  N   LIG    1       10.676 -10.507   1.243  0.00  0.00    -0.232 NA
ATOM     39  C   LIG    1        9.956 -11.596   0.826  0.00  0.00    +0.163 A 
ATOM     40  C   LIG    1        8.621 -11.761   0.517  0.00  0.00    +0.046 A 
ATOM     41  C   LIG    1        8.519 -13.117   0.130  0.00  0.00    +0.145 A 
ATOM     42  N   LIG    1        9.677 -13.775   0.198  0.00  0.00    -0.173 NA
ATOM     43  N   LIG    1       10.558 -12.843   0.633  0.00  0.00    -0.221 N 
ATOM     44  C   LIG    1       11.915 -13.017   0.884  0.00  0.00    +0.116 A 
ATOM     45  C   LIG    1       12.665 -11.990   1.306  0.00  0.00    +0.043 A 
ENDBRANCH  30  40
ENDBRANCH  29  33
ENDBRANCH   1  29
TORSDOF 9
