REMARK  Name = pdb/CHEMBL3947413.pdb
REMARK                            x       y       z     vdW  Elec       q    Type
REMARK                         _______ _______ _______ _____ _____    ______ ____
ROOT
ATOM      1  C   LIG    1        8.534  -3.883  -2.258  0.00  0.00    +0.149 A 
ATOM      2  N   LIG    1        9.417  -4.199  -1.298  0.00  0.00    -0.160 NA
ATOM      3  N   LIG    1       10.604  -3.696  -1.711  0.00  0.00    -0.218 N 
ATOM      4  C   LIG    1       10.476  -2.944  -2.887  0.00  0.00    +0.129 A 
ATOM      5  C   LIG    1        9.173  -3.150  -3.299  0.00  0.00    +0.078 A 
ENDROOT
BRANCH   3   6
ATOM      6  C   LIG    1       11.782  -3.970  -0.960  0.00  0.00    +0.067 A 
ATOM      7  C   LIG    1       13.046  -3.905  -1.556  0.00  0.00    +0.028 A 
ATOM      8  C   LIG    1       14.193  -4.205  -0.820  0.00  0.00    +0.002 A 
ATOM      9  C   LIG    1       14.087  -4.571   0.519  0.00  0.00    +0.000 A 
ATOM     10  C   LIG    1       12.833  -4.638   1.123  0.00  0.00    +0.002 A 
ATOM     11  C   LIG    1       11.680  -4.357   0.384  0.00  0.00    +0.028 A 
ENDBRANCH   3   6
BRANCH   4  12
ATOM     12  N   LIG    1       11.445  -2.084  -3.460  0.00  0.00    -0.266 N 
ATOM     13  H   LIG    1       12.205  -1.789  -2.854  0.00  0.00    +0.157 HD
ATOM     14  C   LIG    1       11.406  -1.616  -4.817  0.00  0.00    +0.251 C 
ATOM     15  O   LIG    1       10.481  -1.961  -5.555  0.00  0.00    -0.270 OA
BRANCH  14  16
ATOM     16  C   LIG    1       12.438  -0.674  -5.336  0.00  0.00    +0.056 A 
ATOM     17  C   LIG    1       13.811  -0.779  -5.118  0.00  0.00    +0.054 A 
ATOM     18 CL   LIG    1       14.535  -2.131  -4.345  0.00  0.00    -0.083 Cl
ATOM     19  C   LIG    1       14.679   0.190  -5.638  0.00  0.00    +0.041 A 
ATOM     20  C   LIG    1       14.204   1.228  -6.456  0.00  0.00    +0.052 A 
ATOM     21 CL   LIG    1       15.394   2.392  -6.942  0.00  0.00    -0.083 Cl
ATOM     22  C   LIG    1       12.842   1.297  -6.817  0.00  0.00    +0.022 A 
ATOM     23  C   LIG    1       11.987   0.342  -6.203  0.00  0.00    +0.026 A 
BRANCH  22  24
ATOM     24  C   LIG    1       12.298   2.242  -7.835  0.00  0.00    +0.107 A 
ATOM     25  C   LIG    1       10.973   2.690  -7.856  0.00  0.00    +0.149 A 
ATOM     26  F   LIG    1       10.095   2.337  -6.905  0.00  0.00    -0.203 F 
ATOM     27  C   LIG    1       10.526   3.515  -8.884  0.00  0.00    +0.042 A 
ATOM     28  C   LIG    1       11.412   3.898  -9.882  0.00  0.00    +0.023 A 
ATOM     29  C   LIG    1       12.707   3.422  -9.810  0.00  0.00    +0.111 A 
ATOM     30  N   LIG    1       13.152   2.598  -8.831  0.00  0.00    -0.252 NA
ENDBRANCH  22  24
ENDBRANCH  14  16
ENDBRANCH   4  12
BRANCH   1  32
ATOM     31  N   LIG    1        6.374  -4.289  -3.207  0.00  0.00    -0.246 NA
ATOM     32  C   LIG    1        7.110  -4.225  -2.153  0.00  0.00    +0.236 C 
BRANCH  32  33
ATOM     33  O   LIG    1        6.650  -4.409  -0.894  0.00  0.00    -0.491 OA
ATOM     34  H   LIG    1        5.698  -4.195  -0.861  0.00  0.00    +0.294 HD
ENDBRANCH  32  33
BRANCH  31  35
ATOM     35  C   LIG    1        5.002  -4.812  -3.081  0.00  0.00    +0.179 C 
BRANCH  35  36
ATOM     36  C   LIG    1        3.990  -3.708  -2.751  0.00  0.00    +0.161 C 
BRANCH  36  37
ATOM     37  O   LIG    1        4.357  -3.120  -1.488  0.00  0.00    -0.388 OA
ATOM     38  H   LIG    1        3.767  -2.344  -1.400  0.00  0.00    +0.210 HD
ENDBRANCH  36  37
BRANCH  36  39
ATOM     39  C   LIG    1        2.568  -4.287  -2.640  0.00  0.00    +0.192 C 
BRANCH  39  41
ATOM     40  C   LIG    1        0.309  -3.752  -2.212  0.00  0.00    +0.194 C 
ATOM     41  O   LIG    1        1.638  -3.241  -2.327  0.00  0.00    -0.380 OA
ENDBRANCH  39  41
ENDBRANCH  36  39
ENDBRANCH  35  36
ENDBRANCH  31  35
ENDBRANCH   1  32
TORSDOF 11
