REMARK  Name = pdb/CHEMBL3935446.pdb
REMARK                            x       y       z     vdW  Elec       q    Type
REMARK                         _______ _______ _______ _____ _____    ______ ____
ROOT
ATOM      1  C   LIG    1        5.175  -0.157  -3.401  0.00  0.00    +0.149 A 
ATOM      2  N   LIG    1        6.368  -0.225  -4.007  0.00  0.00    -0.160 NA
ATOM      3  N   LIG    1        6.707   1.047  -4.310  0.00  0.00    -0.218 N 
ATOM      4  C   LIG    1        5.710   1.945  -3.917  0.00  0.00    +0.129 A 
ATOM      5  C   LIG    1        4.717   1.176  -3.352  0.00  0.00    +0.078 A 
ENDROOT
BRANCH   3   6
ATOM      6  C   LIG    1        7.948   1.284  -4.971  0.00  0.00    +0.067 A 
ATOM      7  C   LIG    1        8.584   2.530  -4.958  0.00  0.00    +0.028 A 
ATOM      8  C   LIG    1        9.772   2.715  -5.673  0.00  0.00    +0.002 A 
ATOM      9  C   LIG    1       10.343   1.660  -6.383  0.00  0.00    +0.000 A 
ATOM     10  C   LIG    1        9.741   0.406  -6.366  0.00  0.00    +0.002 A 
ATOM     11  C   LIG    1        8.555   0.214  -5.656  0.00  0.00    +0.028 A 
ENDBRANCH   3   6
BRANCH   4  12
ATOM     12  N   LIG    1        5.657   3.323  -4.129  0.00  0.00    -0.266 N 
ATOM     13  H   LIG    1        6.314   3.718  -4.787  0.00  0.00    +0.157 HD
ATOM     14  C   LIG    1        4.701   4.189  -3.488  0.00  0.00    +0.251 C 
ATOM     15  O   LIG    1        3.875   3.760  -2.720  0.00  0.00    -0.270 OA
BRANCH  14  16
ATOM     16  C   LIG    1        4.847   5.648  -3.716  0.00  0.00    +0.056 A 
ATOM     17  C   LIG    1        5.395   6.214  -4.865  0.00  0.00    +0.054 A 
ATOM     18 CL   LIG    1        5.897   5.295  -6.237  0.00  0.00    -0.083 Cl
ATOM     19  C   LIG    1        5.529   7.600  -4.948  0.00  0.00    +0.041 A 
ATOM     20  C   LIG    1        5.092   8.440  -3.908  0.00  0.00    +0.052 A 
ATOM     21 CL   LIG    1        5.309  10.130  -4.206  0.00  0.00    -0.083 Cl
ATOM     22  C   LIG    1        4.486   7.913  -2.752  0.00  0.00    +0.019 A 
ATOM     23  C   LIG    1        4.395   6.497  -2.687  0.00  0.00    +0.026 A 
BRANCH  22  24
ATOM     24  C   LIG    1        3.878   8.701  -1.646  0.00  0.00    +0.072 A 
ATOM     25  N   LIG    1        2.775   8.122  -1.098  0.00  0.00    -0.255 NA
ATOM     26  C   LIG    1        2.125   8.774  -0.105  0.00  0.00    +0.111 A 
ATOM     27  C   LIG    1        2.516  10.002   0.389  0.00  0.00    +0.020 A 
ATOM     28  C   LIG    1        3.653  10.582  -0.152  0.00  0.00    +0.004 A 
ATOM     29  C   LIG    1        4.351   9.919  -1.165  0.00  0.00    +0.028 A 
ENDBRANCH  22  24
ENDBRANCH  14  16
ENDBRANCH   4  12
BRANCH   1  31
ATOM     30  N   LIG    1        3.287  -1.237  -2.442  0.00  0.00    -0.240 NA
ATOM     31  C   LIG    1        4.481  -1.350  -2.923  0.00  0.00    +0.236 C 
BRANCH  30  32
ATOM     32  C   LIG    1        2.476  -2.326  -1.958  0.00  0.00    +0.089 C 
ATOM     33  C   LIG    1        1.117  -1.898  -1.422  0.00  0.00    +0.035 C 
ATOM     34  C   LIG    1        1.216  -2.509  -2.781  0.00  0.00    +0.035 C 
BRANCH  32  35
ATOM     35  C   LIG    1        3.102  -3.554  -1.323  0.00  0.00    +0.186 C 
BRANCH  35  36
ATOM     36  O   LIG    1        3.592  -4.416  -2.354  0.00  0.00    -0.393 OA
ATOM     37  H   LIG    1        3.940  -5.213  -1.911  0.00  0.00    +0.209 HD
ENDBRANCH  35  36
ENDBRANCH  32  35
ENDBRANCH  30  32
BRANCH  31  38
ATOM     38  O   LIG    1        5.178  -2.491  -3.080  0.00  0.00    -0.491 OA
ATOM     39  H   LIG    1        4.644  -3.272  -2.862  0.00  0.00    +0.294 HD
ENDBRANCH  31  38
ENDBRANCH   1  31
TORSDOF 9
