REMARK  Name = pdb/CHEMBL3965077.pdb
REMARK                            x       y       z     vdW  Elec       q    Type
REMARK                         _______ _______ _______ _____ _____    ______ ____
ROOT
ATOM      1  C   LIG    1        3.393   3.989   1.265  0.00  0.00    +0.179 A 
ATOM      2  N   LIG    1        2.362   4.175   0.338  0.00  0.00    -0.193 N 
ATOM      3  N   LIG    1        1.405   3.251  -0.041  0.00  0.00    -0.148 NA
ATOM      4  C   LIG    1        0.595   3.642  -0.995  0.00  0.00    +0.143 A 
ATOM      5  C   LIG    1        0.674   5.024  -1.584  0.00  0.00    +0.049 A 
ATOM      6  C   LIG    1        1.604   5.876  -1.151  0.00  0.00    +0.051 A 
ATOM      7  C   LIG    1        2.506   5.462  -0.158  0.00  0.00    +0.157 A 
ATOM      8  N   LIG    1        3.511   6.107   0.391  0.00  0.00    -0.232 NA
ATOM      9  C   LIG    1        4.073   5.198   1.245  0.00  0.00    +0.161 A 
ENDROOT
BRANCH   4  10
ATOM     10  N   LIG    1       -0.376   2.770  -1.485  0.00  0.00    -0.307 N 
ATOM     11  C   LIG    1       -0.828   2.797  -2.889  0.00  0.00    +0.108 C 
ATOM     12  C   LIG    1       -0.949   1.315  -3.262  0.00  0.00    +0.029 C 
ATOM     13  C   LIG    1       -1.388   0.670  -1.960  0.00  0.00    +0.021 C 
ATOM     14  C   LIG    1       -0.567   1.428  -0.917  0.00  0.00    +0.107 C 
BRANCH  11  15
ATOM     15  C   LIG    1       -2.130   3.559  -3.054  0.00  0.00    +0.011 A 
ATOM     16  C   LIG    1       -2.422   4.162  -4.286  0.00  0.00    +0.129 A 
ATOM     17  F   LIG    1       -1.549   4.058  -5.298  0.00  0.00    -0.205 F 
ATOM     18  C   LIG    1       -3.598   4.885  -4.492  0.00  0.00    +0.041 A 
ATOM     19  C   LIG    1       -4.518   5.013  -3.454  0.00  0.00    +0.041 A 
ATOM     20  C   LIG    1       -4.250   4.412  -2.231  0.00  0.00    +0.124 A 
ATOM     21  F   LIG    1       -5.134   4.528  -1.232  0.00  0.00    -0.205 F 
ATOM     22  C   LIG    1       -3.076   3.691  -2.024  0.00  0.00    +0.046 A 
ENDBRANCH  11  15
ENDBRANCH   4  10
BRANCH   1  24
ATOM     23  C   LIG    1        4.171   2.724   3.040  0.00  0.00    +0.285 C 
ATOM     24  N   LIG    1        3.598   2.792   1.879  0.00  0.00    -0.178 NA
BRANCH  23  27
ATOM     25  C   LIG    1        4.770   3.216   5.900  0.00  0.00    +0.149 C 
ATOM     26  C   LIG    1        3.756   3.970   5.028  0.00  0.00    +0.142 C 
ATOM     27  N   LIG    1        4.612   3.740   3.883  0.00  0.00    -0.280 N 
ATOM     28  C   LIG    1        5.748   3.482   4.744  0.00  0.00    +0.142 C 
BRANCH  25  29
ATOM     29  O   LIG    1        4.484   1.816   6.152  0.00  0.00    -0.389 OA
ATOM     30  H   LIG    1        3.715   1.818   6.753  0.00  0.00    +0.210 HD
ENDBRANCH  25  29
ENDBRANCH  23  27
BRANCH  23  31
ATOM     31  O   LIG    1        4.327   1.458   3.494  0.00  0.00    -0.481 OA
ATOM     32  H   LIG    1        4.594   1.408   4.427  0.00  0.00    +0.295 HD
ENDBRANCH  23  31
ENDBRANCH   1  24
TORSDOF 6
