REMARK  Name = pdb/CHEMBL254895.pdb
REMARK                            x       y       z     vdW  Elec       q    Type
REMARK                         _______ _______ _______ _____ _____    ______ ____
ROOT
ATOM      1  C   LIG    1        6.290   5.683   1.566  0.00  0.00    +0.044 C 
ATOM      2  C   LIG    1        6.450   4.315   0.945  0.00  0.00    -0.038 A 
ATOM      3  C   LIG    1        5.499   3.263   0.986  0.00  0.00    +0.041 A 
ATOM      4  C   LIG    1        6.010   2.024   0.554  0.00  0.00    +0.028 A 
ATOM      5  C   LIG    1        7.272   1.784  -0.003  0.00  0.00    +0.014 A 
ATOM      6  C   LIG    1        8.125   2.848  -0.148  0.00  0.00    +0.015 A 
ATOM      7  C   LIG    1        7.727   4.089   0.340  0.00  0.00    +0.005 A 
ENDROOT
BRANCH   3   8
ATOM      8  C   LIG    1        3.992   3.448   1.396  0.00  0.00    +0.247 C 
ATOM      9  N   LIG    1        3.029   2.368   1.381  0.00  0.00    -0.295 N 
ATOM     10  C   LIG    1        1.579   2.700   1.217  0.00  0.00    +0.127 C 
ATOM     11  C   LIG    1        0.626   1.468   1.367  0.00  0.00    +0.127 C 
ATOM     12  N   LIG    1        1.119   0.361   0.536  0.00  0.00    -0.297 N 
ATOM     13  C   LIG    1        0.806   0.370  -0.827  0.00  0.00    +0.229 C 
ATOM     14  O   LIG    1       -0.266   0.818  -1.236  0.00  0.00    -0.274 OA
ATOM     15  C   LIG    1        2.370  -0.118   1.035  0.00  0.00    +0.127 C 
ATOM     16  C   LIG    1        3.387   1.013   0.995  0.00  0.00    +0.127 C 
ATOM     17  O   LIG    1        3.632   4.579   1.682  0.00  0.00    -0.270 OA
BRANCH  13  18
ATOM     18  C   LIG    1        1.896  -0.126  -1.835  0.00  0.00    +0.174 C 
BRANCH  18  19
ATOM     19  N   LIG    1        2.234   0.973  -2.747  0.00  0.00    -0.322 NA
ATOM     20  H   LIG    1        2.902   0.641  -3.439  0.00  0.00    +0.119 HD
ATOM     21  H   LIG    1        1.382   1.233  -3.254  0.00  0.00    +0.119 HD
ENDBRANCH  18  19
ENDBRANCH  13  18
ENDBRANCH   3   8
BRANCH   5  22
ATOM     22  S   LIG    1        7.742   0.092  -0.373  0.00  0.00    -0.081 S 
BRANCH  22  23
ATOM     23  C   LIG    1        8.035   0.231  -2.087  0.00  0.00    +0.071 A 
ATOM     24  S   LIG    1        6.860   0.741  -3.188  0.00  0.00    -0.045 S 
ATOM     25  C   LIG    1        7.995   0.707  -4.498  0.00  0.00    +0.164 A 
ATOM     26  N   LIG    1        9.148   0.166  -4.146  0.00  0.00    -0.232 NA
ATOM     27  C   LIG    1        9.172  -0.109  -2.782  0.00  0.00    +0.135 A 
BRANCH  25  28
ATOM     28  N   LIG    1        7.724   1.125  -5.769  0.00  0.00    -0.279 N 
ATOM     29  H   LIG    1        8.476   0.993  -6.439  0.00  0.00    +0.155 HD
BRANCH  28  30
ATOM     30  C   LIG    1        6.967   2.255  -6.147  0.00  0.00    +0.126 A 
ATOM     31  N   LIG    1        7.381   2.948  -7.230  0.00  0.00    -0.225 NA
ATOM     32  C   LIG    1        6.646   4.026  -7.623  0.00  0.00    +0.108 A 
ATOM     33 BR   LIG    1        7.260   5.041  -9.106  0.00  0.00    -0.029 Br
ATOM     34  C   LIG    1        5.476   4.442  -7.006  0.00  0.00    +0.035 A 
ATOM     35  C   LIG    1        5.052   3.734  -5.904  0.00  0.00    +0.006 A 
ATOM     36  C   LIG    1        5.805   2.648  -5.479  0.00  0.00    +0.044 A 
ENDBRANCH  28  30
ENDBRANCH  25  28
ENDBRANCH  22  23
ENDBRANCH   5  22
TORSDOF 7
