REMARK  Name = pdb/CHEMBL3921392.pdb
REMARK                            x       y       z     vdW  Elec       q    Type
REMARK                         _______ _______ _______ _____ _____    ______ ____
ROOT
ATOM      1  N   LIG    1        6.238  -4.495   4.707  0.00  0.00    -0.279 N 
ATOM      2  H   LIG    1        5.536  -5.154   5.027  0.00  0.00    +0.155 HD
ATOM      3  C   LIG    1        7.324  -4.249   5.529  0.00  0.00    +0.248 C 
ATOM      4  O   LIG    1        8.222  -3.438   5.298  0.00  0.00    -0.270 OA
ENDROOT
BRANCH   1   8
ATOM      5  C   LIG    1        5.152  -2.528   1.195  0.00  0.00    +0.147 A 
ATOM      6  N   LIG    1        4.601  -3.726   1.456  0.00  0.00    -0.229 NA
ATOM      7  C   LIG    1        5.012  -4.413   2.558  0.00  0.00    +0.096 A 
ATOM      8  C   LIG    1        5.951  -3.883   3.452  0.00  0.00    +0.078 A 
ATOM      9  C   LIG    1        6.504  -2.677   3.049  0.00  0.00    +0.138 A 
ATOM     10  N   LIG    1        6.117  -1.980   1.950  0.00  0.00    -0.237 NA
BRANCH   7  11
ATOM     11  C   LIG    1        4.392  -5.766   2.640  0.00  0.00    +0.002 A 
ATOM     12  C   LIG    1        5.072  -6.899   3.126  0.00  0.00    +0.010 A 
ATOM     13  C   LIG    1        4.470  -8.165   3.141  0.00  0.00    +0.001 A 
ATOM     14  C   LIG    1        3.190  -8.339   2.624  0.00  0.00    +0.000 A 
ATOM     15  C   LIG    1        2.506  -7.248   2.101  0.00  0.00    +0.001 A 
ATOM     16  C   LIG    1        3.098  -5.982   2.119  0.00  0.00    +0.010 A 
ENDBRANCH   7  11
BRANCH   5  17
ATOM     17  C   LIG    1        4.591  -1.738   0.023  0.00  0.00    +0.180 C 
BRANCH  17  20
ATOM     18  C   LIG    1        0.891  -1.047  -0.614  0.00  0.00    +0.109 C 
ATOM     19  C   LIG    1        2.335  -1.328  -0.951  0.00  0.00    +0.210 C 
ATOM     20  N   LIG    1        3.150  -1.492   0.139  0.00  0.00    -0.308 N 
ATOM     21  H   LIG    1        2.754  -1.475   1.069  0.00  0.00    +0.149 HD
ATOM     22  O   LIG    1        2.733  -1.380  -2.112  0.00  0.00    -0.276 OA
ENDBRANCH  17  20
ENDBRANCH   5  17
ENDBRANCH   1   8
BRANCH   3  23
ATOM     23  C   LIG    1        7.422  -5.079   6.775  0.00  0.00    +0.038 A 
ATOM     24  C   LIG    1        8.143  -4.594   7.882  0.00  0.00    +0.023 A 
ATOM     25  C   LIG    1        8.318  -5.365   9.059  0.00  0.00    +0.014 A 
ATOM     26  C   LIG    1        7.725  -6.647   9.124  0.00  0.00    +0.064 A 
ATOM     27  C   LIG    1        7.018  -7.124   7.997  0.00  0.00    +0.014 A 
ATOM     28  C   LIG    1        6.876  -6.361   6.838  0.00  0.00    +0.013 A 
BRANCH  25  29
ATOM     29  C   LIG    1        9.126  -4.813  10.161  0.00  0.00    +0.093 A 
ATOM     30  N   LIG    1        8.931  -5.194  11.430  0.00  0.00    -0.171 NA
ATOM     31  N   LIG    1        9.845  -4.529  12.149  0.00  0.00    -0.274 N 
ATOM     32  C   LIG    1        9.928  -4.742  13.574  0.00  0.00    +0.172 C 
ATOM     33  C   LIG    1       10.625  -3.707  11.397  0.00  0.00    +0.108 A 
ATOM     34  C   LIG    1       10.182  -3.859  10.103  0.00  0.00    +0.049 A 
ENDBRANCH  25  29
BRANCH  26  35
ATOM     35  C   LIG    1        7.826  -7.571  10.329  0.00  0.00    +0.418 C 
ATOM     36  F   LIG    1        7.214  -7.112  11.453  0.00  0.00    -0.166 F 
ATOM     37  F   LIG    1        9.102  -7.920  10.654  0.00  0.00    -0.166 F 
ATOM     38  F   LIG    1        7.202  -8.772  10.091  0.00  0.00    -0.166 F 
ENDBRANCH  26  35
ENDBRANCH   3  23
TORSDOF 7
