REMARK  Name = pdb/CHEMBL254050.pdb
REMARK                            x       y       z     vdW  Elec       q    Type
REMARK                         _______ _______ _______ _____ _____    ______ ____
ROOT
ATOM      1  C   LIG    1        6.811   6.217  -2.627  0.00  0.00    +0.041 A 
ATOM      2  C   LIG    1        7.764   7.037  -1.964  0.00  0.00    -0.038 A 
ATOM      3  C   LIG    1        9.069   6.567  -1.376  0.00  0.00    +0.044 C 
ATOM      4  C   LIG    1        7.440   8.402  -1.758  0.00  0.00    +0.005 A 
ATOM      5  C   LIG    1        6.199   8.921  -2.122  0.00  0.00    +0.015 A 
ATOM      6  C   LIG    1        5.247   8.092  -2.700  0.00  0.00    +0.014 A 
ATOM      7  C   LIG    1        5.568   6.754  -2.932  0.00  0.00    +0.028 A 
ENDROOT
BRANCH   1  14
ATOM      8  C   LIG    1        6.113   0.998  -7.209  0.00  0.00    +0.109 C 
ATOM      9  C   LIG    1        5.167   2.168  -7.108  0.00  0.00    +0.213 C 
ATOM     10  N   LIG    1        4.832   2.573  -5.813  0.00  0.00    -0.299 N 
ATOM     11  C   LIG    1        4.527   3.989  -5.621  0.00  0.00    +0.126 C 
ATOM     12  C   LIG    1        5.821   4.726  -5.202  0.00  0.00    +0.127 C 
ATOM     13  N   LIG    1        6.434   4.111  -3.999  0.00  0.00    -0.295 N 
ATOM     14  C   LIG    1        7.055   4.732  -2.876  0.00  0.00    +0.247 C 
ATOM     15  O   LIG    1        7.736   4.111  -2.072  0.00  0.00    -0.270 OA
ATOM     16  C   LIG    1        6.646   2.643  -4.140  0.00  0.00    +0.127 C 
ATOM     17  C   LIG    1        5.351   1.939  -4.593  0.00  0.00    +0.126 C 
ATOM     18  O   LIG    1        4.765   2.755  -8.112  0.00  0.00    -0.276 OA
ENDBRANCH   1  14
BRANCH   6  19
ATOM     19  S   LIG    1        3.580   8.625  -3.027  0.00  0.00    -0.081 S 
BRANCH  19  20
ATOM     20  C   LIG    1        3.898   9.926  -4.144  0.00  0.00    +0.071 A 
ATOM     21  S   LIG    1        3.361  11.521  -3.853  0.00  0.00    -0.045 S 
ATOM     22  C   LIG    1        4.013  12.024  -5.371  0.00  0.00    +0.164 A 
ATOM     23  N   LIG    1        4.609  11.064  -6.048  0.00  0.00    -0.232 NA
ATOM     24  C   LIG    1        4.545   9.871  -5.358  0.00  0.00    +0.135 A 
BRANCH  22  25
ATOM     25  N   LIG    1        3.894  13.316  -5.738  0.00  0.00    -0.279 N 
ATOM     26  H   LIG    1        3.730  14.010  -5.020  0.00  0.00    +0.155 HD
BRANCH  25  27
ATOM     27  C   LIG    1        4.406  13.912  -6.889  0.00  0.00    +0.126 A 
ATOM     28  N   LIG    1        4.719  15.221  -6.784  0.00  0.00    -0.225 NA
ATOM     29  C   LIG    1        5.199  15.845  -7.884  0.00  0.00    +0.108 A 
ATOM     30 BR   LIG    1        5.722  17.661  -7.705  0.00  0.00    -0.029 Br
ATOM     31  C   LIG    1        5.338  15.237  -9.121  0.00  0.00    +0.035 A 
ATOM     32  C   LIG    1        4.998  13.898  -9.225  0.00  0.00    +0.006 A 
ATOM     33  C   LIG    1        4.547  13.226  -8.093  0.00  0.00    +0.044 A 
ENDBRANCH  25  27
ENDBRANCH  22  25
ENDBRANCH  19  20
ENDBRANCH   6  19
TORSDOF 5
