REMARK  Name = pdb/CHEMBL3961646.pdb
REMARK                            x       y       z     vdW  Elec       q    Type
REMARK                         _______ _______ _______ _____ _____    ______ ____
ROOT
ATOM      1  C   LIG    1        4.313  -1.189   2.296  0.00  0.00    +0.149 A 
ATOM      2  N   LIG    1        4.603  -1.274   3.601  0.00  0.00    -0.160 NA
ATOM      3  N   LIG    1        4.964  -0.026   3.977  0.00  0.00    -0.218 N 
ATOM      4  C   LIG    1        5.042   0.835   2.872  0.00  0.00    +0.129 A 
ATOM      5  C   LIG    1        4.607   0.095   1.795  0.00  0.00    +0.078 A 
ENDROOT
BRANCH   3   6
ATOM      6  C   LIG    1        5.225   0.219   5.359  0.00  0.00    +0.067 A 
ATOM      7  C   LIG    1        5.590  -0.857   6.193  0.00  0.00    +0.028 A 
ATOM      8  C   LIG    1        5.842  -0.647   7.552  0.00  0.00    +0.002 A 
ATOM      9  C   LIG    1        5.694   0.624   8.099  0.00  0.00    +0.000 A 
ATOM     10  C   LIG    1        5.307   1.687   7.286  0.00  0.00    +0.002 A 
ATOM     11  C   LIG    1        5.078   1.490   5.920  0.00  0.00    +0.028 A 
ENDBRANCH   3   6
BRANCH   4  12
ATOM     12  N   LIG    1        5.500   2.152   2.811  0.00  0.00    -0.266 N 
ATOM     13  H   LIG    1        5.684   2.628   3.689  0.00  0.00    +0.157 HD
ATOM     14  C   LIG    1        5.869   2.835   1.601  0.00  0.00    +0.251 C 
ATOM     15  O   LIG    1        5.805   2.273   0.500  0.00  0.00    -0.270 OA
BRANCH  14  16
ATOM     16  C   LIG    1        6.322   4.235   1.705  0.00  0.00    +0.056 A 
ATOM     17  C   LIG    1        7.002   4.745   2.814  0.00  0.00    +0.054 A 
ATOM     18 CL   LIG    1        7.412   3.804   4.202  0.00  0.00    -0.083 Cl
ATOM     19  C   LIG    1        7.367   6.087   2.840  0.00  0.00    +0.041 A 
ATOM     20  C   LIG    1        7.044   6.952   1.781  0.00  0.00    +0.052 A 
ATOM     21 CL   LIG    1        7.372   8.620   2.102  0.00  0.00    -0.083 Cl
ATOM     22  C   LIG    1        6.404   6.477   0.618  0.00  0.00    +0.022 A 
ATOM     23  C   LIG    1        6.057   5.099   0.621  0.00  0.00    +0.026 A 
BRANCH  22  24
ATOM     24  C   LIG    1        6.013   7.305  -0.557  0.00  0.00    +0.107 A 
ATOM     25  C   LIG    1        6.729   8.393  -1.064  0.00  0.00    +0.149 A 
ATOM     26  F   LIG    1        7.930   8.740  -0.586  0.00  0.00    -0.203 F 
ATOM     27  C   LIG    1        6.229   9.118  -2.143  0.00  0.00    +0.042 A 
ATOM     28  C   LIG    1        5.056   8.705  -2.756  0.00  0.00    +0.023 A 
ATOM     29  C   LIG    1        4.428   7.580  -2.254  0.00  0.00    +0.111 A 
ATOM     30  N   LIG    1        4.865   6.890  -1.171  0.00  0.00    -0.252 NA
ENDBRANCH  22  24
ENDBRANCH  14  16
ENDBRANCH   4  12
BRANCH   1  31
ATOM     31  C   LIG    1        3.802  -2.323   1.539  0.00  0.00    +0.236 C 
ATOM     32  N   LIG    1        3.221  -2.130   0.410  0.00  0.00    -0.241 NA
BRANCH  31  33
ATOM     33  O   LIG    1        4.032  -3.520   2.120  0.00  0.00    -0.491 OA
ATOM     34  H   LIG    1        3.918  -4.244   1.489  0.00  0.00    +0.294 HD
ENDBRANCH  31  33
BRANCH  32  35
ATOM     35  C   LIG    1        2.704  -3.246  -0.383  0.00  0.00    +0.221 C 
BRANCH  35  36
ATOM     36  C   LIG    1        3.794  -4.097  -0.924  0.00  0.00    +0.146 A 
ATOM     37  C   LIG    1        3.982  -4.853  -2.057  0.00  0.00    +0.157 A 
ATOM     38  N   LIG    1        5.228  -5.436  -2.031  0.00  0.00    -0.224 NA
ATOM     39  C   LIG    1        5.745  -5.019  -0.901  0.00  0.00    +0.308 A 
ATOM     40  O   LIG    1        4.927  -4.230  -0.164  0.00  0.00    -0.446 OA
ENDBRANCH  35  36
ENDBRANCH  32  35
ENDBRANCH   1  31
TORSDOF 8
