REMARK  Name = pdb/CHEMBL3985415.pdb
REMARK                            x       y       z     vdW  Elec       q    Type
REMARK                         _______ _______ _______ _____ _____    ______ ____
ROOT
ATOM      1  C   LIG    1        5.825   0.742   2.608  0.00  0.00    +0.133 A 
ATOM      2  C   LIG    1        5.157   1.837   3.119  0.00  0.00    +0.183 A 
ATOM      3  N   LIG    1        4.014   1.988   3.874  0.00  0.00    -0.211 NA
ATOM      4  C   LIG    1        3.622   3.208   4.155  0.00  0.00    +0.126 A 
ATOM      5  C   LIG    1        4.477   4.417   3.835  0.00  0.00    +0.063 A 
ATOM      6  C   LIG    1        5.551   4.220   3.070  0.00  0.00    +0.118 A 
ATOM      7  N   LIG    1        5.890   2.940   2.673  0.00  0.00    -0.220 N 
ATOM      8  N   LIG    1        6.907   2.595   1.845  0.00  0.00    -0.171 NA
ATOM      9  C   LIG    1        6.891   1.261   1.858  0.00  0.00    +0.165 A 
ENDROOT
BRANCH   4  10
ATOM     10  N   LIG    1        2.371   3.446   4.711  0.00  0.00    -0.308 N 
ATOM     11  C   LIG    1        1.400   2.352   5.008  0.00  0.00    +0.106 C 
ATOM     12  C   LIG    1        0.053   2.990   4.591  0.00  0.00    +0.029 C 
ATOM     13  C   LIG    1        0.245   4.476   4.857  0.00  0.00    +0.021 C 
ATOM     14  C   LIG    1        1.658   4.684   4.363  0.00  0.00    +0.107 C 
BRANCH  11  15
ATOM     15  C   LIG    1        1.461   1.943   6.493  0.00  0.00    -0.013 A 
ATOM     16  C   LIG    1        1.087   0.668   7.007  0.00  0.00    +0.060 A 
ATOM     17  C   LIG    1        1.245   0.406   8.397  0.00  0.00    +0.015 A 
ATOM     18  C   LIG    1        1.725   1.366   9.278  0.00  0.00    +0.039 A 
ATOM     19  C   LIG    1        2.059   2.609   8.783  0.00  0.00    +0.124 A 
ATOM     20  F   LIG    1        2.509   3.555   9.616  0.00  0.00    -0.205 F 
ATOM     21  C   LIG    1        1.938   2.894   7.427  0.00  0.00    +0.044 A 
BRANCH  16  22
ATOM     22  C   LIG    1        0.506  -0.505   6.239  0.00  0.00    +0.418 C 
ATOM     23  F   LIG    1       -0.722  -0.854   6.736  0.00  0.00    -0.166 F 
ATOM     24  F   LIG    1        1.263  -1.633   6.366  0.00  0.00    -0.166 F 
ATOM     25  F   LIG    1        0.314  -0.314   4.911  0.00  0.00    -0.166 F 
ENDBRANCH  16  22
ENDBRANCH  11  15
ENDBRANCH   4  10
BRANCH   1  27
ATOM     26  C   LIG    1        5.700  -1.556   2.152  0.00  0.00    +0.283 C 
ATOM     27  N   LIG    1        5.559  -0.582   2.961  0.00  0.00    -0.194 NA
BRANCH  26  30
ATOM     28  C   LIG    1        6.417  -2.640  -1.356  0.00  0.00    +0.133 C 
ATOM     29  C   LIG    1        6.593  -2.852   0.152  0.00  0.00    +0.140 C 
ATOM     30  N   LIG    1        5.960  -1.695   0.800  0.00  0.00    -0.283 N 
ATOM     31  C   LIG    1        5.360  -0.832  -0.216  0.00  0.00    +0.112 C 
ATOM     32  C   LIG    1        5.198  -1.739  -1.434  0.00  0.00    +0.052 C 
BRANCH  28  33
ATOM     33  O   LIG    1        6.190  -3.871  -2.029  0.00  0.00    -0.390 OA
ATOM     34  H   LIG    1        6.082  -3.680  -2.977  0.00  0.00    +0.210 HD
ENDBRANCH  28  33
ENDBRANCH  26  30
BRANCH  26  35
ATOM     35  O   LIG    1        5.530  -2.751   2.758  0.00  0.00    -0.481 OA
ATOM     36  H   LIG    1        5.548  -3.488   2.149  0.00  0.00    +0.295 HD
ENDBRANCH  26  35
ENDBRANCH   1  27
TORSDOF 7
