REMARK  Name = pdb/CHEMBL1982476.pdb
REMARK                            x       y       z     vdW  Elec       q    Type
REMARK                         _______ _______ _______ _____ _____    ______ ____
ROOT
ATOM      1  C   LIG    1        8.328  -0.863   4.610  0.00  0.00    -0.017 A 
ATOM      2  C   LIG    1        9.329  -1.520   3.874  0.00  0.00    +0.010 A 
ATOM      3  C   LIG    1       10.675  -1.423   4.248  0.00  0.00    +0.024 A 
ATOM      4  C   LIG    1       11.047  -0.668   5.365  0.00  0.00    +0.035 A 
ATOM      5  C   LIG    1       10.049  -0.090   6.140  0.00  0.00    +0.024 A 
ATOM      6  C   LIG    1        8.707  -0.216   5.782  0.00  0.00    +0.010 A 
ENDROOT
BRANCH   1  11
ATOM      7  C   LIG    1        3.489   0.497   3.817  0.00  0.00    +0.069 A 
ATOM      8  C   LIG    1        4.655  -0.292   3.785  0.00  0.00    +0.037 A 
ATOM      9  S   LIG    1        4.815  -1.878   3.121  0.00  0.00    -0.095 S 
ATOM     10  C   LIG    1        6.438  -1.994   3.546  0.00  0.00    +0.055 A 
ATOM     11  C   LIG    1        6.922  -0.868   4.182  0.00  0.00    +0.000 A 
ATOM     12  C   LIG    1        5.870   0.159   4.349  0.00  0.00    +0.037 A 
ATOM     13  C   LIG    1        5.854   1.458   4.953  0.00  0.00    +0.125 A 
ATOM     14  N   LIG    1        4.715   2.176   5.020  0.00  0.00    -0.239 NA
ATOM     15  C   LIG    1        3.584   1.704   4.477  0.00  0.00    +0.127 A 
BRANCH   7  19
ATOM     16  C   LIG    1        1.017  -1.018   1.394  0.00  0.00    +0.128 C 
ATOM     17  N   LIG    1        2.216  -0.643   2.093  0.00  0.00    -0.314 N 
ATOM     18  H   LIG    1        3.109  -0.907   1.693  0.00  0.00    +0.149 HD
ATOM     19  C   LIG    1        2.190   0.138   3.223  0.00  0.00    +0.246 C 
ATOM     20  O   LIG    1        1.155   0.584   3.711  0.00  0.00    -0.270 OA
ENDBRANCH   7  19
BRANCH  13  21
ATOM     21  N   LIG    1        6.928   2.133   5.515  0.00  0.00    -0.343 N 
ATOM     22  H   LIG    1        7.774   2.107   4.962  0.00  0.00    +0.144 HD
ATOM     23  H   LIG    1        6.620   3.069   5.767  0.00  0.00    +0.144 HD
ENDBRANCH  13  21
ENDBRANCH   1  11
BRANCH   4  24
ATOM     24  N   LIG    1       12.420  -0.542   5.644  0.00  0.00    -0.269 N 
ATOM     25  H   LIG    1       13.037  -1.022   5.013  0.00  0.00    +0.156 HD
ATOM     26  C   LIG    1       12.998   0.184   6.685  0.00  0.00    +0.308 C 
ATOM     27  N   LIG    1       14.381   0.051   6.642  0.00  0.00    -0.269 N 
ATOM     28  H   LIG    1       14.756  -0.463   5.860  0.00  0.00    +0.156 HD
ATOM     29  O   LIG    1       12.392   0.829   7.518  0.00  0.00    -0.252 OA
BRANCH  27  30
ATOM     30  C   LIG    1       15.322   0.570   7.554  0.00  0.00    +0.036 A 
ATOM     31  C   LIG    1       16.668   0.261   7.318  0.00  0.00    +0.043 A 
ATOM     32  C   LIG    1       17.659   0.719   8.188  0.00  0.00    +0.043 A 
ATOM     33 CL   LIG    1       19.298   0.270   7.921  0.00  0.00    -0.083 Cl
ATOM     34  C   LIG    1       17.332   1.519   9.278  0.00  0.00    +0.020 A 
ATOM     35  C   LIG    1       15.999   1.844   9.511  0.00  0.00    +0.003 A 
ATOM     36  C   LIG    1       14.998   1.349   8.669  0.00  0.00    +0.023 A 
ENDBRANCH  27  30
ENDBRANCH   4  24
TORSDOF 5
