REMARK  Name = pdb/CHEMBL3923369.pdb
REMARK                            x       y       z     vdW  Elec       q    Type
REMARK                         _______ _______ _______ _____ _____    ______ ____
ROOT
ATOM      1  C   LIG    1        1.152   5.160  -0.193  0.00  0.00    +0.027 A 
ATOM      2  C   LIG    1        2.132   5.929   0.443  0.00  0.00    +0.060 A 
ATOM      3  C   LIG    1        1.727   7.013   1.201  0.00  0.00    +0.157 A 
ATOM      4  N   LIG    1        0.426   7.342   1.370  0.00  0.00    -0.236 NA
ATOM      5  C   LIG    1       -0.491   6.645   0.671  0.00  0.00    +0.114 A 
ATOM      6  C   LIG    1       -0.176   5.581  -0.150  0.00  0.00    +0.031 A 
ENDROOT
BRANCH   1   7
ATOM      7  C   LIG    1        1.562   3.936  -0.929  0.00  0.00    +0.195 C 
ATOM      8  O   LIG    1        2.698   3.915  -1.416  0.00  0.00    -0.287 OA
BRANCH   7  16
ATOM      9  N   LIG    1       -0.278   1.012  -2.100  0.00  0.00    -0.343 N 
ATOM     10  C   LIG    1       -0.993   1.205  -0.932  0.00  0.00    +0.053 A 
ATOM     11  C   LIG    1       -2.074   0.501  -0.387  0.00  0.00    +0.046 A 
ATOM     12  C   LIG    1       -2.544   0.965   0.830  0.00  0.00    +0.113 A 
ATOM     13  N   LIG    1       -2.037   2.019   1.496  0.00  0.00    -0.263 NA
ATOM     14  C   LIG    1       -0.980   2.679   0.968  0.00  0.00    +0.121 A 
ATOM     15  C   LIG    1       -0.432   2.310  -0.273  0.00  0.00    +0.029 A 
ATOM     16  C   LIG    1        0.646   2.800  -1.091  0.00  0.00    +0.049 A 
ATOM     17  C   LIG    1        0.753   1.911  -2.149  0.00  0.00    +0.099 A 
BRANCH   9  19
ATOM     18  C   LIG    1       -0.201   0.448  -4.545  0.00  0.00    +0.030 C 
ATOM     19  C   LIG    1       -0.590   0.012  -3.127  0.00  0.00    +0.081 C 
ATOM     20  C   LIG    1        0.026  -1.349  -2.803  0.00  0.00    +0.030 C 
ENDBRANCH   9  19
ENDBRANCH   7  16
ENDBRANCH   1   7
BRANCH   3  21
ATOM     21  N   LIG    1        2.670   7.866   1.778  0.00  0.00    -0.193 NA
ATOM     22  C   LIG    1        2.409   8.537   2.852  0.00  0.00    +0.222 C 
BRANCH  22  23
ATOM     23  C   LIG    1        3.329   9.527   3.459  0.00  0.00    +0.040 A 
ATOM     24  C   LIG    1        4.566   9.779   2.843  0.00  0.00    +0.059 A 
ATOM     25  C   LIG    1        5.442  10.718   3.387  0.00  0.00    +0.131 A 
ATOM     26  C   LIG    1        5.095  11.364   4.580  0.00  0.00    +0.046 A 
ATOM     27  C   LIG    1        3.865  11.127   5.193  0.00  0.00    +0.004 A 
ATOM     28  C   LIG    1        2.977  10.219   4.626  0.00  0.00    +0.013 A 
BRANCH  25  29
ATOM     29  O   LIG    1        6.678  11.036   2.916  0.00  0.00    -0.406 OA
BRANCH  29  30
ATOM     30  C   LIG    1        6.967  10.968   1.526  0.00  0.00    +0.575 C 
ATOM     31  F   LIG    1        7.980  10.096   1.330  0.00  0.00    -0.133 F 
ATOM     32  F   LIG    1        7.383  12.189   1.117  0.00  0.00    -0.133 F 
ATOM     33  F   LIG    1        5.928  10.607   0.749  0.00  0.00    -0.133 F 
ENDBRANCH  29  30
ENDBRANCH  25  29
ENDBRANCH  22  23
BRANCH  22  34
ATOM     34  O   LIG    1        1.268   8.427   3.562  0.00  0.00    -0.492 OA
ATOM     35  H   LIG    1        0.642   7.866   3.065  0.00  0.00    +0.294 HD
ENDBRANCH  22  34
ENDBRANCH   3  21
TORSDOF 8
