REMARK  Name = pdb/CHEMBL3675936.pdb
REMARK                            x       y       z     vdW  Elec       q    Type
REMARK                         _______ _______ _______ _____ _____    ______ ____
ROOT
ATOM      1  C   LIG    1        5.044   3.221   3.464  0.00  0.00    +0.100 A 
ATOM      2  C   LIG    1        4.502   4.495   3.343  0.00  0.00    +0.170 A 
ATOM      3  N   LIG    1        3.776   5.104   2.348  0.00  0.00    -0.212 NA
ATOM      4  C   LIG    1        3.475   6.377   2.488  0.00  0.00    +0.126 A 
ATOM      5  C   LIG    1        3.796   7.149   3.744  0.00  0.00    +0.063 A 
ATOM      6  C   LIG    1        4.468   6.502   4.701  0.00  0.00    +0.118 A 
ATOM      7  N   LIG    1        4.866   5.193   4.503  0.00  0.00    -0.221 N 
ATOM      8  N   LIG    1        5.651   4.452   5.313  0.00  0.00    -0.173 NA
ATOM      9  C   LIG    1        5.795   3.298   4.655  0.00  0.00    +0.150 A 
ENDROOT
BRANCH   4  10
ATOM     10  N   LIG    1        2.831   7.054   1.468  0.00  0.00    -0.308 N 
ATOM     11  C   LIG    1        2.286   6.394   0.275  0.00  0.00    +0.108 C 
ATOM     12  C   LIG    1        2.812   7.318  -0.836  0.00  0.00    +0.029 C 
ATOM     13  C   LIG    1        2.683   8.710  -0.235  0.00  0.00    +0.021 C 
ATOM     14  C   LIG    1        2.955   8.497   1.249  0.00  0.00    +0.107 C 
BRANCH  11  15
ATOM     15  C   LIG    1        0.768   6.311   0.360  0.00  0.00    +0.011 A 
ATOM     16  C   LIG    1        0.022   5.834  -0.725  0.00  0.00    +0.129 A 
ATOM     17  F   LIG    1        0.643   5.459  -1.852  0.00  0.00    -0.205 F 
ATOM     18  C   LIG    1       -1.372   5.743  -0.675  0.00  0.00    +0.041 A 
ATOM     19  C   LIG    1       -2.054   6.126   0.478  0.00  0.00    +0.041 A 
ATOM     20  C   LIG    1       -1.330   6.584   1.569  0.00  0.00    +0.124 A 
ATOM     21  F   LIG    1       -1.973   6.957   2.683  0.00  0.00    -0.205 F 
ATOM     22  C   LIG    1        0.058   6.668   1.523  0.00  0.00    +0.046 A 
ENDBRANCH  11  15
ENDBRANCH   4  10
BRANCH   1  25
ATOM     23  N   LIG    1        4.037   2.232   1.499  0.00  0.00    -0.302 N 
ATOM     24  H   LIG    1        3.571   3.137   1.464  0.00  0.00    +0.150 HD
ATOM     25  C   LIG    1        4.915   2.058   2.564  0.00  0.00    +0.250 C 
ATOM     26  O   LIG    1        5.536   1.026   2.745  0.00  0.00    -0.270 OA
BRANCH  23  28
ATOM     27  C   LIG    1        5.113   0.950  -0.378  0.00  0.00    +0.036 C 
ATOM     28  C   LIG    1        3.796   1.314   0.346  0.00  0.00    +0.078 C 
BRANCH  28  29
ATOM     29  C   LIG    1        3.086  -0.006   0.745  0.00  0.00    +0.183 C 
BRANCH  29  30
ATOM     30  O   LIG    1        1.739   0.219   1.174  0.00  0.00    -0.393 OA
ATOM     31  H   LIG    1        1.797   0.824   1.937  0.00  0.00    +0.209 HD
ENDBRANCH  29  30
ENDBRANCH  28  29
BRANCH  28  32
ATOM     32  C   LIG    1        2.895   2.068  -0.683  0.00  0.00    +0.183 C 
BRANCH  32  33
ATOM     33  O   LIG    1        1.654   2.479  -0.104  0.00  0.00    -0.393 OA
ATOM     34  H   LIG    1        1.199   1.650   0.161  0.00  0.00    +0.209 HD
ENDBRANCH  32  33
ENDBRANCH  28  32
ENDBRANCH  23  28
ENDBRANCH   1  25
TORSDOF 8
