REMARK  Name = pdb/CHEMBL3675946.pdb
REMARK                            x       y       z     vdW  Elec       q    Type
REMARK                         _______ _______ _______ _____ _____    ______ ____
ROOT
ATOM      1  C   LIG    1        6.305  -3.940   3.567  0.00  0.00    +0.100 A 
ATOM      2  C   LIG    1        6.708  -4.286   4.845  0.00  0.00    +0.170 A 
ATOM      3  N   LIG    1        7.407  -3.600   5.809  0.00  0.00    -0.212 NA
ATOM      4  C   LIG    1        7.539  -4.161   6.994  0.00  0.00    +0.126 A 
ATOM      5  C   LIG    1        6.969  -5.531   7.291  0.00  0.00    +0.063 A 
ATOM      6  C   LIG    1        6.332  -6.167   6.305  0.00  0.00    +0.118 A 
ATOM      7  N   LIG    1        6.194  -5.564   5.070  0.00  0.00    -0.221 N 
ATOM      8  N   LIG    1        5.560  -6.065   3.986  0.00  0.00    -0.173 NA
ATOM      9  C   LIG    1        5.615  -5.076   3.096  0.00  0.00    +0.150 A 
ENDROOT
BRANCH   4  10
ATOM     10  N   LIG    1        8.220  -3.475   7.987  0.00  0.00    -0.308 N 
ATOM     11  C   LIG    1        8.312  -3.891   9.386  0.00  0.00    +0.107 C 
ATOM     12  C   LIG    1        8.587  -2.581  10.132  0.00  0.00    +0.029 C 
ATOM     13  C   LIG    1        9.426  -1.790   9.144  0.00  0.00    +0.021 C 
ATOM     14  C   LIG    1        8.794  -2.141   7.795  0.00  0.00    +0.107 C 
BRANCH  11  15
ATOM     15  C   LIG    1        9.388  -4.938   9.589  0.00  0.00    -0.006 A 
ATOM     16  C   LIG    1        9.316  -5.837  10.661  0.00  0.00    +0.046 A 
ATOM     17  C   LIG    1       10.309  -6.795  10.818  0.00  0.00    +0.142 A 
ATOM     18  F   LIG    1       10.249  -7.666  11.833  0.00  0.00    -0.204 F 
ATOM     19  C   LIG    1       11.355  -6.838   9.916  0.00  0.00    +0.149 A 
ATOM     20  N   LIG    1       11.467  -5.991   8.870  0.00  0.00    -0.260 NA
ATOM     21  C   LIG    1       10.484  -5.070   8.731  0.00  0.00    +0.116 A 
ENDBRANCH  11  15
ENDBRANCH   4  10
BRANCH   1  24
ATOM     22  N   LIG    1        7.229  -1.738   3.510  0.00  0.00    -0.304 N 
ATOM     23  H   LIG    1        7.489  -1.958   4.471  0.00  0.00    +0.150 HD
ATOM     24  C   LIG    1        6.499  -2.700   2.852  0.00  0.00    +0.250 C 
ATOM     25  O   LIG    1        6.022  -2.536   1.728  0.00  0.00    -0.270 OA
BRANCH  22  27
ATOM     26  C   LIG    1        8.216  -0.441   1.653  0.00  0.00    +0.034 C 
ATOM     27  C   LIG    1        7.460  -0.379   2.992  0.00  0.00    +0.057 C 
ATOM     28  C   LIG    1        8.336   0.389   4.000  0.00  0.00    +0.034 C 
BRANCH  27  29
ATOM     29  C   LIG    1        6.139   0.394   2.784  0.00  0.00    +0.238 C 
ATOM     30  F   LIG    1        5.471   0.497   3.968  0.00  0.00    -0.247 F 
ENDBRANCH  27  29
ENDBRANCH  22  27
ENDBRANCH   1  24
TORSDOF 5
