REMARK  Name = pdb/CHEMBL2113064.pdb
REMARK                            x       y       z     vdW  Elec       q    Type
REMARK                         _______ _______ _______ _____ _____    ______ ____
ROOT
ATOM      1  C   LIG    1        2.605   3.033   1.083  0.00  0.00    +0.144 C 
ATOM      2  C   LIG    1        2.876   4.241   0.071  0.00  0.00    +0.178 C 
ATOM      3  N   LIG    1        3.367   5.455   0.704  0.00  0.00    -0.307 N 
ATOM      4  C   LIG    1        4.552   5.611   1.370  0.00  0.00    +0.077 A 
ATOM      5  C   LIG    1        5.576   4.669   1.469  0.00  0.00    +0.077 A 
ATOM      6  N   LIG    1        5.613   3.460   0.852  0.00  0.00    -0.311 N 
ATOM      7  C   LIG    1        6.817   2.934   1.355  0.00  0.00    +0.052 A 
ATOM      8  C   LIG    1        7.403   1.681   1.087  0.00  0.00    +0.026 A 
ATOM      9  C   LIG    1        8.609   1.342   1.703  0.00  0.00    +0.002 A 
ATOM     10  C   LIG    1        9.235   2.222   2.572  0.00  0.00    +0.001 A 
ATOM     11  C   LIG    1        8.671   3.472   2.851  0.00  0.00    +0.010 A 
ATOM     12  C   LIG    1        7.451   3.870   2.257  0.00  0.00    +0.008 A 
ATOM     13  C   LIG    1        4.696   2.828  -0.062  0.00  0.00    +0.226 C 
ATOM     14  C   LIG    1        6.630   5.026   2.324  0.00  0.00    +0.022 A 
ATOM     15  C   LIG    1        6.845   6.182   3.103  0.00  0.00    +0.052 A 
ATOM     16  C   LIG    1        7.808   6.662   4.043  0.00  0.00    +0.245 C 
ATOM     17  O   LIG    1        8.846   6.215   4.516  0.00  0.00    -0.270 OA
ATOM     18  N   LIG    1        7.311   7.910   4.419  0.00  0.00    -0.307 N 
ATOM     19  H   LIG    1        7.811   8.454   5.107  0.00  0.00    +0.149 HD
ATOM     20  C   LIG    1        6.062   8.320   3.798  0.00  0.00    +0.141 C 
ATOM     21  C   LIG    1        5.826   7.149   2.959  0.00  0.00    -0.008 A 
ATOM     22  C   LIG    1        4.777   6.778   2.100  0.00  0.00    +0.015 A 
ATOM     23  C   LIG    1        3.607   7.520   1.827  0.00  0.00    +0.008 A 
ATOM     24  C   LIG    1        3.138   8.799   2.214  0.00  0.00    +0.010 A 
ATOM     25  C   LIG    1        1.903   9.277   1.777  0.00  0.00    +0.001 A 
ATOM     26  C   LIG    1        1.108   8.502   0.952  0.00  0.00    +0.002 A 
ATOM     27  C   LIG    1        1.519   7.229   0.546  0.00  0.00    +0.026 A 
ATOM     28  C   LIG    1        2.762   6.709   0.964  0.00  0.00    +0.053 A 
ATOM     29  C   LIG    1        1.768   4.435  -0.973  0.00  0.00    +0.070 C 
ATOM     30  O   LIG    1        3.988   3.826  -0.782  0.00  0.00    -0.328 OA
ATOM     31  C   LIG    1        3.615   1.988   0.580  0.00  0.00    +0.096 C 
ENDROOT
BRANCH   1  33
ATOM     32  C   LIG    1        2.186   4.041   3.279  0.00  0.00    +0.195 C 
ATOM     33  O   LIG    1        3.029   3.254   2.450  0.00  0.00    -0.369 OA
ENDBRANCH   1  33
BRANCH   1  34
ATOM     34  C   LIG    1        1.198   2.390   1.063  0.00  0.00    +0.195 C 
BRANCH  34  35
ATOM     35  O   LIG    1        0.170   3.303   1.431  0.00  0.00    -0.392 OA
ATOM     36  H   LIG    1       -0.597   2.774   1.716  0.00  0.00    +0.210 HD
ENDBRANCH  34  35
ENDBRANCH   1  34
TORSDOF 3
