REMARK  Name = pdb/CHEMBL3910261.pdb
REMARK                            x       y       z     vdW  Elec       q    Type
REMARK                         _______ _______ _______ _____ _____    ______ ____
ROOT
ATOM      1  C   LIG    1        4.622   0.788   1.409  0.00  0.00    +0.149 A 
ATOM      2  N   LIG    1        5.002   1.450   2.511  0.00  0.00    -0.160 NA
ATOM      3  N   LIG    1        5.004   2.764   2.169  0.00  0.00    -0.218 N 
ATOM      4  C   LIG    1        4.757   2.937   0.796  0.00  0.00    +0.129 A 
ATOM      5  C   LIG    1        4.485   1.677   0.318  0.00  0.00    +0.078 A 
ENDROOT
BRANCH   3   6
ATOM      6  C   LIG    1        5.281   3.741   3.174  0.00  0.00    +0.067 A 
ATOM      7  C   LIG    1        4.811   5.054   3.077  0.00  0.00    +0.028 A 
ATOM      8  C   LIG    1        5.125   5.997   4.062  0.00  0.00    +0.002 A 
ATOM      9  C   LIG    1        5.887   5.629   5.166  0.00  0.00    +0.000 A 
ATOM     10  C   LIG    1        6.321   4.311   5.298  0.00  0.00    +0.002 A 
ATOM     11  C   LIG    1        6.012   3.367   4.312  0.00  0.00    +0.028 A 
ENDBRANCH   3   6
BRANCH   4  12
ATOM     12  N   LIG    1        4.835   4.113   0.036  0.00  0.00    -0.266 N 
ATOM     13  H   LIG    1        5.097   4.965   0.517  0.00  0.00    +0.157 HD
ATOM     14  C   LIG    1        4.609   4.181  -1.387  0.00  0.00    +0.251 C 
ATOM     15  O   LIG    1        4.368   3.178  -2.042  0.00  0.00    -0.270 OA
BRANCH  14  16
ATOM     16  C   LIG    1        4.733   5.506  -2.054  0.00  0.00    +0.056 A 
ATOM     17  C   LIG    1        4.406   6.714  -1.454  0.00  0.00    +0.054 A 
ATOM     18 CL   LIG    1        3.784   6.861   0.142  0.00  0.00    -0.083 Cl
ATOM     19  C   LIG    1        4.511   7.904  -2.174  0.00  0.00    +0.041 A 
ATOM     20  C   LIG    1        4.930   7.907  -3.511  0.00  0.00    +0.052 A 
ATOM     21 CL   LIG    1        4.857   9.453  -4.285  0.00  0.00    -0.083 Cl
ATOM     22  C   LIG    1        5.300   6.712  -4.156  0.00  0.00    +0.019 A 
ATOM     23  C   LIG    1        5.170   5.517  -3.396  0.00  0.00    +0.026 A 
BRANCH  22  24
ATOM     24  C   LIG    1        5.779   6.606  -5.559  0.00  0.00    +0.072 A 
ATOM     25  N   LIG    1        5.456   5.441  -6.178  0.00  0.00    -0.255 NA
ATOM     26  C   LIG    1        5.862   5.256  -7.456  0.00  0.00    +0.111 A 
ATOM     27  C   LIG    1        6.581   6.190  -8.176  0.00  0.00    +0.020 A 
ATOM     28  C   LIG    1        6.928   7.370  -7.538  0.00  0.00    +0.004 A 
ATOM     29  C   LIG    1        6.547   7.570  -6.212  0.00  0.00    +0.028 A 
ENDBRANCH  22  24
ENDBRANCH  14  16
ENDBRANCH   4  12
BRANCH   1  30
ATOM     30  C   LIG    1        4.414  -0.662   1.365  0.00  0.00    +0.236 C 
ATOM     31  N   LIG    1        4.083  -1.207   0.242  0.00  0.00    -0.241 NA
BRANCH  31  32
ATOM     32  C   LIG    1        3.875  -2.642   0.125  0.00  0.00    +0.160 C 
ATOM     33  C   LIG    1        4.951  -3.332  -0.729  0.00  0.00    +0.189 C 
ATOM     34  O   LIG    1        3.935  -3.926  -1.581  0.00  0.00    -0.375 OA
ATOM     35  C   LIG    1        2.957  -2.986  -1.060  0.00  0.00    +0.189 C 
ENDBRANCH  31  32
BRANCH  30  36
ATOM     36  O   LIG    1        4.583  -1.309   2.534  0.00  0.00    -0.491 OA
ATOM     37  H   LIG    1        4.402  -2.253   2.477  0.00  0.00    +0.294 HD
ENDBRANCH  30  36
ENDBRANCH   1  30
TORSDOF 7
