REMARK  Name = pdb/CHEMBL3675954.pdb
REMARK                            x       y       z     vdW  Elec       q    Type
REMARK                         _______ _______ _______ _____ _____    ______ ____
ROOT
ATOM      1  C   LIG    1        1.506   0.058  -1.838  0.00  0.00    +0.126 A 
ATOM      2  N   LIG    1        0.937   0.879  -2.701  0.00  0.00    -0.212 NA
ATOM      3  C   LIG    1        1.587   2.036  -3.037  0.00  0.00    +0.170 A 
ATOM      4  C   LIG    1        1.258   3.051  -3.917  0.00  0.00    +0.100 A 
ATOM      5  C   LIG    1        2.262   4.019  -3.710  0.00  0.00    +0.150 A 
ATOM      6  N   LIG    1        3.200   3.629  -2.843  0.00  0.00    -0.173 NA
ATOM      7  N   LIG    1        2.799   2.395  -2.455  0.00  0.00    -0.221 N 
ATOM      8  C   LIG    1        3.444   1.519  -1.600  0.00  0.00    +0.118 A 
ATOM      9  C   LIG    1        2.887   0.341  -1.294  0.00  0.00    +0.063 A 
ENDROOT
BRANCH   1  11
ATOM     10  C   LIG    1        1.311  -2.353  -0.984  0.00  0.00    +0.107 C 
ATOM     11  N   LIG    1        0.766  -1.044  -1.416  0.00  0.00    -0.308 N 
ATOM     12  C   LIG    1       -0.649  -1.178  -1.794  0.00  0.00    +0.107 C 
ATOM     13  C   LIG    1       -0.873  -2.673  -1.930  0.00  0.00    +0.021 C 
ATOM     14  C   LIG    1        0.060  -3.249  -0.883  0.00  0.00    +0.029 C 
BRANCH  10  16
ATOM     15  CA  LIG    1        3.127  -3.195   0.647  0.00  0.00    +0.072 A 
ATOM     16  C   LIG    1        2.051  -2.332   0.342  0.00  0.00    -0.001 A 
ATOM     17  C   LIG    1        1.667  -1.411   1.337  0.00  0.00    +0.047 A 
ATOM     18  C   LIG    1        2.369  -1.331   2.527  0.00  0.00    +0.142 A 
ATOM     19  F   LIG    1        2.036  -0.421   3.449  0.00  0.00    -0.204 F 
ATOM     20  C   LIG    1        3.423  -2.192   2.733  0.00  0.00    +0.149 A 
ATOM     21  N   LIG    1        3.802  -3.126   1.834  0.00  0.00    -0.254 NA
BRANCH  15  22
ATOM     22  C   LIG    1        3.637  -4.275  -0.282  0.00  0.00    +0.211 C 
BRANCH  22  23
ATOM     23  O   LIG    1        4.136  -3.730  -1.497  0.00  0.00    -0.389 OA
ATOM     24  H   LIG    1        4.526  -4.474  -1.990  0.00  0.00    +0.210 HD
ENDBRANCH  22  23
ENDBRANCH  15  22
ENDBRANCH  10  16
ENDBRANCH   1  11
BRANCH   4  25
ATOM     25  C   LIG    1        0.127   3.125  -4.829  0.00  0.00    +0.249 C 
ATOM     26  N   LIG    1       -0.648   1.978  -4.865  0.00  0.00    -0.308 N 
ATOM     27  H   LIG    1       -0.343   1.204  -4.278  0.00  0.00    +0.149 HD
ATOM     28  O   LIG    1       -0.086   4.111  -5.516  0.00  0.00    -0.270 OA
BRANCH  26  29
ATOM     29  C   LIG    1       -1.783   1.808  -5.713  0.00  0.00    +0.073 C 
ATOM     30  C   LIG    1       -3.182   1.845  -5.162  0.00  0.00    +0.024 C 
ATOM     31  C   LIG    1       -2.598   0.543  -5.621  0.00  0.00    +0.024 C 
ENDBRANCH  26  29
ENDBRANCH   4  25
TORSDOF 6
