REMARK  Name = pdb/CHEMBL3921687.pdb
REMARK                            x       y       z     vdW  Elec       q    Type
REMARK                         _______ _______ _______ _____ _____    ______ ____
ROOT
ATOM      1  C   LIG    1        4.229  -1.342  -3.814  0.00  0.00    +0.197 C 
ATOM      2  O   LIG    1        4.518  -2.434  -4.316  0.00  0.00    -0.287 OA
ENDROOT
BRANCH   1  11
ATOM      3  N   LIG    1        3.454  -0.469  -0.293  0.00  0.00    -0.336 N 
ATOM      4  C   LIG    1        3.528  -1.858  -0.196  0.00  0.00    +0.089 A 
ATOM      5  C   LIG    1        3.457  -2.787   0.855  0.00  0.00    +0.165 A 
ATOM      6  F   LIG    1        3.453  -2.447   2.145  0.00  0.00    -0.202 F 
ATOM      7  C   LIG    1        3.492  -4.136   0.538  0.00  0.00    +0.151 A 
ATOM      8  N   LIG    1        3.615  -4.625  -0.707  0.00  0.00    -0.260 NA
ATOM      9  C   LIG    1        3.762  -3.746  -1.722  0.00  0.00    +0.121 A 
ATOM     10  C   LIG    1        3.734  -2.353  -1.500  0.00  0.00    +0.032 A 
ATOM     11  C   LIG    1        3.927  -1.239  -2.382  0.00  0.00    +0.049 A 
ATOM     12  C   LIG    1        3.850  -0.118  -1.581  0.00  0.00    +0.099 A 
BRANCH   3  14
ATOM     13  C   LIG    1        1.348   0.609   0.404  0.00  0.00    +0.036 C 
ATOM     14  C   LIG    1        2.872   0.522   0.661  0.00  0.00    +0.063 C 
ATOM     15  C   LIG    1        3.451   1.950   0.446  0.00  0.00    +0.036 C 
BRANCH  14  16
ATOM     16  C   LIG    1        3.086   0.209   2.162  0.00  0.00    +0.183 C 
BRANCH  16  17
ATOM     17  O   LIG    1        4.464   0.092   2.499  0.00  0.00    -0.393 OA
ATOM     18  H   LIG    1        4.753  -0.799   2.229  0.00  0.00    +0.209 HD
ENDBRANCH  16  17
ENDBRANCH  14  16
ENDBRANCH   3  14
ENDBRANCH   1  11
BRANCH   1  19
ATOM     19  C   LIG    1        4.196  -0.193  -4.748  0.00  0.00    +0.042 A 
ATOM     20  C   LIG    1        4.936  -0.270  -5.941  0.00  0.00    +0.042 A 
ATOM     21  C   LIG    1        4.851   0.748  -6.889  0.00  0.00    +0.086 A 
ATOM     22  C   LIG    1        4.071   1.854  -6.568  0.00  0.00    +0.138 A 
ATOM     23  N   LIG    1        3.316   1.953  -5.448  0.00  0.00    -0.260 NA
ATOM     24  C   LIG    1        3.375   0.913  -4.579  0.00  0.00    +0.122 A 
BRANCH  21  25
ATOM     25  N   LIG    1        5.492   0.649  -8.129  0.00  0.00    -0.216 NA
ATOM     26  C   LIG    1        4.851   0.158  -9.144  0.00  0.00    +0.192 C 
BRANCH  26  27
ATOM     27  O   LIG    1        3.598  -0.344  -9.092  0.00  0.00    -0.495 OA
ATOM     28  H   LIG    1        3.252  -0.369  -8.188  0.00  0.00    +0.293 HD
ENDBRANCH  26  27
BRANCH  26  29
ATOM     29  C   LIG    1        5.444   0.086 -10.528  0.00  0.00    +0.130 C 
BRANCH  29  30
ATOM     30  C   LIG    1        6.180  -1.205 -10.789  0.00  0.00    -0.038 A 
ATOM     31  C   LIG    1        7.289  -1.561 -10.006  0.00  0.00    +0.005 A 
ATOM     32  C   LIG    1        7.981  -2.748 -10.255  0.00  0.00    +0.020 A 
ATOM     33  C   LIG    1        7.573  -3.582 -11.292  0.00  0.00    +0.041 A 
ATOM     34 CL   LIG    1        8.431  -5.040 -11.603  0.00  0.00    -0.084 Cl
ATOM     35  C   LIG    1        6.476  -3.242 -12.080  0.00  0.00    +0.020 A 
ATOM     36  C   LIG    1        5.781  -2.056 -11.830  0.00  0.00    +0.005 A 
ENDBRANCH  29  30
ENDBRANCH  26  29
ENDBRANCH  21  25
ENDBRANCH   1  19
TORSDOF 9
