REMARK  Name = pdb/CHEMBL3948918.pdb
REMARK                            x       y       z     vdW  Elec       q    Type
REMARK                         _______ _______ _______ _____ _____    ______ ____
ROOT
ATOM      1  N   LIG    1        6.946   0.322   0.461  0.00  0.00    -0.266 N 
ATOM      2  H   LIG    1        7.617   1.067   0.619  0.00  0.00    +0.157 HD
ATOM      3  C   LIG    1        6.330  -0.334   1.588  0.00  0.00    +0.251 C 
ATOM      4  O   LIG    1        5.564  -1.273   1.429  0.00  0.00    -0.270 OA
ENDROOT
BRANCH   3   5
ATOM      5  C   LIG    1        6.696   0.095   2.956  0.00  0.00    +0.056 A 
ATOM      6  C   LIG    1        7.125   1.379   3.273  0.00  0.00    +0.054 A 
ATOM      7 CL   LIG    1        7.204   2.670   2.129  0.00  0.00    -0.083 Cl
ATOM      8  C   LIG    1        7.503   1.665   4.581  0.00  0.00    +0.041 A 
ATOM      9  C   LIG    1        7.440   0.690   5.596  0.00  0.00    +0.052 A 
ATOM     10 CL   LIG    1        8.124   1.188   7.103  0.00  0.00    -0.083 Cl
ATOM     11  C   LIG    1        6.932  -0.600   5.342  0.00  0.00    +0.022 A 
ATOM     12  C   LIG    1        6.578  -0.862   3.991  0.00  0.00    +0.026 A 
BRANCH  11  13
ATOM     13  C   LIG    1        6.768  -1.700   6.342  0.00  0.00    +0.107 A 
ATOM     14  C   LIG    1        6.413  -1.539   7.685  0.00  0.00    +0.149 A 
ATOM     15  F   LIG    1        6.145  -0.339   8.214  0.00  0.00    -0.203 F 
ATOM     16  C   LIG    1        6.251  -2.651   8.509  0.00  0.00    +0.042 A 
ATOM     17  C   LIG    1        6.396  -3.923   7.977  0.00  0.00    +0.023 A 
ATOM     18  C   LIG    1        6.717  -4.024   6.636  0.00  0.00    +0.111 A 
ATOM     19  N   LIG    1        6.914  -2.956   5.821  0.00  0.00    -0.252 NA
ENDBRANCH  11  13
ENDBRANCH   3   5
BRANCH   1  23
ATOM     20  C   LIG    1        5.282  -0.361  -2.634  0.00  0.00    +0.149 A 
ATOM     21  N   LIG    1        6.300   0.375  -3.107  0.00  0.00    -0.160 NA
ATOM     22  N   LIG    1        7.134   0.559  -2.045  0.00  0.00    -0.218 N 
ATOM     23  C   LIG    1        6.561   0.084  -0.862  0.00  0.00    +0.129 A 
ATOM     24  C   LIG    1        5.416  -0.570  -1.247  0.00  0.00    +0.078 A 
BRANCH  22  25
ATOM     25  C   LIG    1        8.397   1.199  -2.243  0.00  0.00    +0.067 A 
ATOM     26  C   LIG    1        9.476   1.002  -1.372  0.00  0.00    +0.028 A 
ATOM     27  C   LIG    1       10.702   1.639  -1.620  0.00  0.00    +0.002 A 
ATOM     28  C   LIG    1       10.852   2.479  -2.726  0.00  0.00    +0.000 A 
ATOM     29  C   LIG    1        9.787   2.673  -3.597  0.00  0.00    +0.002 A 
ATOM     30  C   LIG    1        8.566   2.028  -3.368  0.00  0.00    +0.028 A 
ENDBRANCH  22  25
BRANCH  20  33
ATOM     31  C   LIG    1        2.245  -2.217  -3.723  0.00  0.00    +0.174 C 
ATOM     32  N   LIG    1        3.376  -1.733  -2.962  0.00  0.00    -0.252 NA
ATOM     33  C   LIG    1        4.151  -0.819  -3.432  0.00  0.00    +0.236 C 
BRANCH  33  34
ATOM     34  O   LIG    1        3.964  -0.196  -4.612  0.00  0.00    -0.491 OA
ATOM     35  H   LIG    1        3.148  -0.485  -5.043  0.00  0.00    +0.294 HD
ENDBRANCH  33  34
ENDBRANCH  20  33
ENDBRANCH   1  23
TORSDOF 6
