REMARK  Name = pdb/CHEMBL3661492.pdb
REMARK                            x       y       z     vdW  Elec       q    Type
REMARK                         _______ _______ _______ _____ _____    ______ ____
ROOT
ATOM      1  C   LIG    1        3.890   3.263   3.992  0.00  0.00    +0.042 A 
ATOM      2  C   LIG    1        4.240   4.271   4.897  0.00  0.00    +0.038 A 
ATOM      3  C   LIG    1        4.570   5.549   4.435  0.00  0.00    +0.052 A 
ATOM      4  C   LIG    1        4.518   5.759   3.059  0.00  0.00    +0.134 A 
ATOM      5  N   LIG    1        4.190   4.800   2.154  0.00  0.00    -0.261 NA
ATOM      6  C   LIG    1        3.900   3.569   2.639  0.00  0.00    +0.122 A 
ENDROOT
BRANCH   3   7
ATOM      7  N   LIG    1        4.944   6.513   5.396  0.00  0.00    -0.284 N 
ATOM      8  H   LIG    1        5.020   6.197   6.358  0.00  0.00    +0.155 HD
ATOM      9  C   LIG    1        5.302   7.831   5.153  0.00  0.00    +0.223 C 
ATOM     10  O   LIG    1        5.349   8.364   4.050  0.00  0.00    -0.275 OA
BRANCH   9  11
ATOM     11  C   LIG    1        5.606   8.616   6.411  0.00  0.00    +0.151 C 
BRANCH  11  12
ATOM     12  C   LIG    1        7.052   8.528   6.815  0.00  0.00    +0.050 A 
ATOM     13  N   LIG    1        7.394   7.524   7.664  0.00  0.00    -0.258 NA
ATOM     14  C   LIG    1        8.698   7.456   8.045  0.00  0.00    +0.131 A 
ATOM     15  C   LIG    1        9.678   8.338   7.618  0.00  0.00    +0.059 A 
ATOM     16 CL   LIG    1       11.306   8.172   8.133  0.00  0.00    -0.082 Cl
ATOM     17  C   LIG    1        9.310   9.360   6.754  0.00  0.00    +0.023 A 
ATOM     18  C   LIG    1        7.980   9.456   6.341  0.00  0.00    +0.025 A 
ENDBRANCH  11  12
ENDBRANCH   9  11
ENDBRANCH   3   7
BRANCH   1  19
ATOM     19  C   LIG    1        3.591   1.875   4.412  0.00  0.00    +0.197 C 
ATOM     20  O   LIG    1        3.895   0.951   3.652  0.00  0.00    -0.287 OA
BRANCH  19  28
ATOM     21  N   LIG    1        1.709   1.813   7.554  0.00  0.00    -0.329 N 
ATOM     22  C   LIG    1        2.353   0.604   7.651  0.00  0.00    +0.145 A 
ATOM     23  N   LIG    1        2.238  -0.269   8.667  0.00  0.00    -0.218 NA
ATOM     24  C   LIG    1        2.973  -1.376   8.462  0.00  0.00    +0.223 A 
ATOM     25  N   LIG    1        3.756  -1.668   7.406  0.00  0.00    -0.243 NA
ATOM     26  C   LIG    1        3.834  -0.757   6.408  0.00  0.00    +0.124 A 
ATOM     27  C   LIG    1        3.124   0.440   6.506  0.00  0.00    +0.048 A 
ATOM     28  C   LIG    1        2.973   1.616   5.706  0.00  0.00    +0.051 A 
ATOM     29  C   LIG    1        2.093   2.441   6.392  0.00  0.00    +0.100 A 
BRANCH  21  31
ATOM     30  C   LIG    1        1.153   3.678   9.089  0.00  0.00    +0.030 C 
ATOM     31  C   LIG    1        0.731   2.326   8.513  0.00  0.00    +0.083 C 
ATOM     32  C   LIG    1       -0.666   2.398   7.893  0.00  0.00    +0.030 C 
ENDBRANCH  21  31
ENDBRANCH  19  28
ENDBRANCH   1  19
TORSDOF 6
