REMARK  Name = pdb/CHEMBL3673487.pdb
REMARK                            x       y       z     vdW  Elec       q    Type
REMARK                         _______ _______ _______ _____ _____    ______ ____
ROOT
ATOM      1  C   LIG    1       10.492   7.396   9.209  0.00  0.00    +0.161 C 
ENDROOT
BRANCH   1   2
ATOM      2  N   LIG    1       11.922   7.606   9.439  0.00  0.00    -0.293 N 
ATOM      3  C   LIG    1       12.700   8.528   8.778  0.00  0.00    +0.162 A 
ATOM      4  N   LIG    1       12.377   9.258   7.694  0.00  0.00    -0.235 NA
ATOM      5  C   LIG    1       13.375  10.116   7.333  0.00  0.00    +0.121 A 
ATOM      6  C   LIG    1       14.625  10.291   7.956  0.00  0.00    +0.004 A 
ATOM      7  C   LIG    1       14.878   9.470   9.070  0.00  0.00    +0.041 A 
ATOM      8  C   LIG    1       13.890   8.567   9.488  0.00  0.00    +0.110 A 
ATOM      9  N   LIG    1       13.868   7.679  10.530  0.00  0.00    -0.213 NA
ATOM     10  C   LIG    1       12.688   7.108  10.471  0.00  0.00    +0.195 A 
BRANCH   6  11
ATOM     11  C   LIG    1       15.615  11.288   7.481  0.00  0.00    +0.002 A 
ATOM     12  C   LIG    1       15.722  11.661   6.137  0.00  0.00    +0.119 A 
ATOM     13  N   LIG    1       16.597  12.574   5.639  0.00  0.00    -0.263 NA
ATOM     14  C   LIG    1       17.431  13.157   6.520  0.00  0.00    +0.111 A 
ATOM     15  C   LIG    1       17.429  12.870   7.871  0.00  0.00    +0.020 A 
ATOM     16  C   LIG    1       16.512  11.931   8.349  0.00  0.00    +0.011 A 
ENDBRANCH   6  11
BRANCH  10  17
ATOM     17  N   LIG    1       12.249   6.166  11.325  0.00  0.00    -0.329 N 
ATOM     18  H   LIG    1       12.959   5.904  12.009  0.00  0.00    +0.145 HD
ATOM     19  H   LIG    1       11.843   5.328  10.917  0.00  0.00    +0.145 HD
ENDBRANCH  10  17
ENDBRANCH   1   2
BRANCH   1  23
ATOM     20  C   LIG    1        9.382   4.227   6.403  0.00  0.00    +0.162 A 
ATOM     21  C   LIG    1        8.854   4.228   7.661  0.00  0.00    +0.162 A 
ATOM     22  C   LIG    1        9.078   5.363   8.502  0.00  0.00    +0.054 A 
ATOM     23  C   LIG    1       10.166   6.237   8.271  0.00  0.00    -0.024 A 
ATOM     24  C   LIG    1       10.957   5.950   7.155  0.00  0.00    +0.009 A 
ATOM     25  C   LIG    1       10.570   4.951   6.238  0.00  0.00    +0.050 A 
BRANCH  21  26
ATOM     26  O   LIG    1        8.437   3.036   8.252  0.00  0.00    -0.491 OA
ATOM     27  C   LIG    1        8.018   1.752   7.624  0.00  0.00    +0.277 C 
ENDBRANCH  21  26
BRANCH  20  28
ATOM     28  O   LIG    1        8.862   3.522   5.373  0.00  0.00    -0.484 OA
BRANCH  28  29
ATOM     29  C   LIG    1        7.446   3.103   5.366  0.00  0.00    +0.266 C 
BRANCH  29  33
ATOM     30  C   LIG    1        4.389   4.771   7.956  0.00  0.00    +0.214 A 
ATOM     31  N   LIG    1        4.143   4.538   6.623  0.00  0.00    -0.221 NA
ATOM     32  C   LIG    1        5.073   3.975   5.855  0.00  0.00    +0.121 A 
ATOM     33  C   LIG    1        6.280   3.567   6.388  0.00  0.00    +0.008 A 
ATOM     34  C   LIG    1        6.105   3.515   7.828  0.00  0.00    +0.013 A 
ATOM     35  C   LIG    1        5.451   4.232   8.679  0.00  0.00    +0.067 A 
BRANCH  30  37
ATOM     36  C   LIG    1        3.186   6.635   7.898  0.00  0.00    +0.279 C 
ATOM     37  O   LIG    1        3.642   5.573   8.744  0.00  0.00    -0.480 OA
ENDBRANCH  30  37
ENDBRANCH  29  33
ENDBRANCH  28  29
ENDBRANCH  20  28
ENDBRANCH   1  23
TORSDOF 9
