REMARK  Name = pdb/CHEMBL3666440.pdb
REMARK                            x       y       z     vdW  Elec       q    Type
REMARK                         _______ _______ _______ _____ _____    ______ ____
ROOT
ATOM      1  C   LIG    1        4.459  -0.063   4.938  0.00  0.00    +0.042 A 
ATOM      2  C   LIG    1        5.463   0.165   5.907  0.00  0.00    +0.038 A 
ATOM      3  C   LIG    1        5.289   1.156   6.888  0.00  0.00    +0.053 A 
ATOM      4  C   LIG    1        4.068   1.830   6.892  0.00  0.00    +0.134 A 
ATOM      5  N   LIG    1        3.076   1.623   6.002  0.00  0.00    -0.261 NA
ATOM      6  C   LIG    1        3.297   0.687   5.056  0.00  0.00    +0.122 A 
ENDROOT
BRANCH   3   7
ATOM      7  N   LIG    1        6.316   1.443   7.819  0.00  0.00    -0.279 N 
ATOM      8  H   LIG    1        7.128   0.834   7.877  0.00  0.00    +0.155 HD
ATOM      9  C   LIG    1        6.374   2.583   8.610  0.00  0.00    +0.267 C 
ATOM     10  O   LIG    1        5.562   3.513   8.584  0.00  0.00    -0.268 OA
BRANCH   9  11
ATOM     11  C   LIG    1        7.527   2.638   9.509  0.00  0.00    +0.133 A 
ATOM     12  N   LIG    1        8.449   1.598   9.593  0.00  0.00    -0.239 NA
ATOM     13  C   LIG    1        9.341   1.881  10.521  0.00  0.00    +0.082 A 
ATOM     14  S   LIG    1        9.183   3.403  11.289  0.00  0.00    -0.079 S 
ATOM     15  C   LIG    1        7.780   3.702  10.359  0.00  0.00    +0.080 A 
BRANCH  13  16
ATOM     16  C   LIG    1       10.415   0.881  10.944  0.00  0.00    +0.045 C 
ATOM     17  C   LIG    1       11.037   0.057   9.782  0.00  0.00    +0.010 C 
ATOM     18  C   LIG    1       10.924  -1.190  10.675  0.00  0.00    +0.001 C 
ATOM     19  C   LIG    1        9.792  -0.468  11.418  0.00  0.00    +0.010 C 
ENDBRANCH  13  16
ENDBRANCH   9  11
ENDBRANCH   3   7
BRANCH   1  20
ATOM     20  C   LIG    1        4.631  -1.110   3.878  0.00  0.00    +0.197 C 
ATOM     21  O   LIG    1        5.630  -1.824   3.938  0.00  0.00    -0.287 OA
BRANCH  20  29
ATOM     22  N   LIG    1        1.924  -1.059   1.361  0.00  0.00    -0.329 N 
ATOM     23  C   LIG    1        2.247  -2.392   1.329  0.00  0.00    +0.145 A 
ATOM     24  N   LIG    1        1.651  -3.333   0.574  0.00  0.00    -0.218 NA
ATOM     25  C   LIG    1        2.227  -4.539   0.722  0.00  0.00    +0.223 A 
ATOM     26  N   LIG    1        3.272  -4.867   1.505  0.00  0.00    -0.243 NA
ATOM     27  C   LIG    1        3.829  -3.888   2.254  0.00  0.00    +0.124 A 
ATOM     28  C   LIG    1        3.319  -2.589   2.195  0.00  0.00    +0.048 A 
ATOM     29  C   LIG    1        3.614  -1.338   2.836  0.00  0.00    +0.051 A 
ATOM     30  C   LIG    1        2.792  -0.410   2.214  0.00  0.00    +0.100 A 
BRANCH  22  32
ATOM     31  C   LIG    1        1.171  -0.595  -0.954  0.00  0.00    +0.030 C 
ATOM     32  C   LIG    1        0.939  -0.359   0.536  0.00  0.00    +0.083 C 
ATOM     33  C   LIG    1       -0.514  -0.617   0.939  0.00  0.00    +0.030 C 
ENDBRANCH  22  32
ENDBRANCH  20  29
ENDBRANCH   1  20
TORSDOF 6
