REMARK  Name = pdb/CHEMBL3916979.pdb
REMARK                            x       y       z     vdW  Elec       q    Type
REMARK                         _______ _______ _______ _____ _____    ______ ____
ROOT
ATOM      1  C   LIG    1        5.536   2.232   0.947  0.00  0.00    +0.098 A 
ATOM      2  C   LIG    1        5.016   3.511   0.950  0.00  0.00    +0.179 A 
ATOM      3  N   LIG    1        4.124   4.145   0.120  0.00  0.00    -0.211 NA
ATOM      4  C   LIG    1        3.833   5.408   0.368  0.00  0.00    +0.126 A 
ATOM      5  C   LIG    1        4.441   6.136   1.550  0.00  0.00    +0.063 A 
ATOM      6  C   LIG    1        5.280   5.458   2.338  0.00  0.00    +0.118 A 
ATOM      7  N   LIG    1        5.591   4.143   2.051  0.00  0.00    -0.220 N 
ATOM      8  N   LIG    1        6.438   3.334   2.731  0.00  0.00    -0.171 NA
ATOM      9  C   LIG    1        6.406   2.185   2.054  0.00  0.00    +0.160 A 
ENDROOT
BRANCH   4  10
ATOM     10  N   LIG    1        2.934   6.074  -0.459  0.00  0.00    -0.308 N 
ATOM     11  C   LIG    1        2.578   7.503  -0.379  0.00  0.00    +0.108 C 
ATOM     12  C   LIG    1        2.018   7.840  -1.779  0.00  0.00    +0.029 C 
ATOM     13  C   LIG    1        2.307   6.618  -2.639  0.00  0.00    +0.021 C 
ATOM     14  C   LIG    1        2.336   5.471  -1.645  0.00  0.00    +0.107 C 
BRANCH  11  15
ATOM     15  C   LIG    1        1.582   7.799   0.736  0.00  0.00    +0.011 A 
ATOM     16  C   LIG    1        1.127   9.107   0.963  0.00  0.00    +0.129 A 
ATOM     17  F   LIG    1        1.556  10.110   0.184  0.00  0.00    -0.205 F 
ATOM     18  C   LIG    1        0.218   9.405   1.985  0.00  0.00    +0.041 A 
ATOM     19  C   LIG    1       -0.269   8.385   2.799  0.00  0.00    +0.041 A 
ATOM     20  C   LIG    1        0.173   7.087   2.591  0.00  0.00    +0.124 A 
ATOM     21  F   LIG    1       -0.296   6.095   3.357  0.00  0.00    -0.205 F 
ATOM     22  C   LIG    1        1.092   6.794   1.588  0.00  0.00    +0.046 A 
ENDBRANCH  11  15
ENDBRANCH   4  10
BRANCH   1  24
ATOM     23  C   LIG    1        5.640  -0.030   0.057  0.00  0.00    +0.303 C 
ATOM     24  N   LIG    1        5.205   1.274   0.010  0.00  0.00    -0.273 N 
ATOM     25  H   LIG    1        4.574   1.566  -0.731  0.00  0.00    +0.155 HD
ATOM     26  O   LIG    1        6.353  -0.564   0.893  0.00  0.00    -0.265 OA
BRANCH  23  30
ATOM     27  N   LIG    1        4.256  -1.928  -0.621  0.00  0.00    -0.322 N 
ATOM     28  H   LIG    1        4.230  -2.174   0.360  0.00  0.00    +0.145 HD
ATOM     29  H   LIG    1        3.897  -2.580  -1.305  0.00  0.00    +0.145 HD
ATOM     30  C   LIG    1        5.031  -0.887  -1.063  0.00  0.00    +0.297 C 
ATOM     31  O   LIG    1        5.196  -0.609  -2.235  0.00  0.00    -0.265 OA
ENDBRANCH  23  30
ENDBRANCH   1  24
TORSDOF 4
