REMARK  Name = pdb/CHEMBL1970142.pdb
REMARK                            x       y       z     vdW  Elec       q    Type
REMARK                         _______ _______ _______ _____ _____    ______ ____
ROOT
ATOM      1  C   LIG    1        6.343  -3.789   3.871  0.00  0.00    +0.018 A 
ATOM      2  C   LIG    1        7.029  -3.397   5.043  0.00  0.00    +0.032 A 
ATOM      3  S   LIG    1        8.081  -2.044   5.253  0.00  0.00    -0.095 S 
ATOM      4  C   LIG    1        8.513  -2.499   6.820  0.00  0.00    +0.055 A 
ATOM      5  C   LIG    1        7.849  -3.623   7.270  0.00  0.00    +0.000 A 
ATOM      6  C   LIG    1        6.909  -4.126   6.247  0.00  0.00    +0.037 A 
ATOM      7  C   LIG    1        5.963  -5.191   6.260  0.00  0.00    +0.125 A 
ATOM      8  N   LIG    1        5.338  -5.579   5.134  0.00  0.00    -0.239 NA
ATOM      9  C   LIG    1        5.544  -4.913   3.994  0.00  0.00    +0.122 A 
ENDROOT
BRANCH   5  10
ATOM     10  C   LIG    1        8.208  -4.192   8.587  0.00  0.00    -0.017 A 
ATOM     11  C   LIG    1        8.607  -3.389   9.665  0.00  0.00    +0.010 A 
ATOM     12  C   LIG    1        9.020  -3.962  10.886  0.00  0.00    +0.024 A 
ATOM     13  C   LIG    1        8.965  -5.346  11.095  0.00  0.00    +0.035 A 
ATOM     14  C   LIG    1        8.501  -6.138  10.046  0.00  0.00    +0.024 A 
ATOM     15  C   LIG    1        8.199  -5.573   8.794  0.00  0.00    +0.010 A 
BRANCH  13  16
ATOM     16  N   LIG    1        9.400  -5.856  12.348  0.00  0.00    -0.269 N 
ATOM     17  H   LIG    1        9.829  -5.189  12.972  0.00  0.00    +0.156 HD
ATOM     18  C   LIG    1        9.362  -7.168  12.799  0.00  0.00    +0.308 C 
ATOM     19  N   LIG    1        9.904  -7.294  14.075  0.00  0.00    -0.269 N 
ATOM     20  H   LIG    1        9.776  -6.489  14.671  0.00  0.00    +0.156 HD
ATOM     21  O   LIG    1        8.870  -8.119  12.172  0.00  0.00    -0.252 OA
BRANCH  19  22
ATOM     22  C   LIG    1       10.037  -8.532  14.755  0.00  0.00    +0.035 A 
ATOM     23  C   LIG    1        9.708  -8.599  16.113  0.00  0.00    +0.023 A 
ATOM     24  C   LIG    1        9.788  -9.813  16.808  0.00  0.00    +0.005 A 
ATOM     25  C   LIG    1       10.293 -10.958  16.184  0.00  0.00    -0.050 A 
ATOM     26  C   LIG    1       10.412 -12.254  16.933  0.00  0.00    +0.044 C 
ATOM     27  C   LIG    1       10.676 -10.875  14.840  0.00  0.00    +0.005 A 
ATOM     28  C   LIG    1       10.529  -9.677  14.124  0.00  0.00    +0.023 A 
ENDBRANCH  19  22
ENDBRANCH  13  16
ENDBRANCH   5  10
BRANCH   1  32
ATOM     29  N   LIG    1        6.619  -2.793   0.422  0.00  0.00    -0.259 N 
ATOM     30  N   LIG    1        6.797  -1.564   0.938  0.00  0.00    -0.178 NA
ATOM     31  C   LIG    1        6.718  -1.758   2.256  0.00  0.00    +0.143 A 
ATOM     32  C   LIG    1        6.479  -3.106   2.602  0.00  0.00    +0.022 A 
ATOM     33  C   LIG    1        6.365  -3.737   1.382  0.00  0.00    +0.117 A 
BRANCH  29  34
ATOM     34  C   LIG    1        6.679  -2.995  -1.025  0.00  0.00    +0.189 C 
ATOM     35  C   LIG    1        5.280  -3.301  -1.568  0.00  0.00    +0.042 C 
BRANCH  34  39
ATOM     36  C   LIG    1        9.482  -5.690  -0.788  0.00  0.00    +0.128 C 
ATOM     37  N   LIG    1        8.451  -4.715  -0.520  0.00  0.00    -0.317 N 
ATOM     38  H   LIG    1        8.266  -4.567   0.459  0.00  0.00    +0.148 HD
ATOM     39  C   LIG    1        7.748  -4.019  -1.482  0.00  0.00    +0.237 C 
ATOM     40  O   LIG    1        7.965  -4.201  -2.683  0.00  0.00    -0.273 OA
ENDBRANCH  34  39
ENDBRANCH  29  34
ENDBRANCH   1  32
BRANCH   7  41
ATOM     41  N   LIG    1        5.546  -5.885   7.387  0.00  0.00    -0.343 N 
ATOM     42  H   LIG    1        5.450  -5.294   8.203  0.00  0.00    +0.144 HD
ATOM     43  H   LIG    1        4.716  -6.420   7.148  0.00  0.00    +0.144 HD
ENDBRANCH   7  41
TORSDOF 7
