REMARK  Name = pdb/CHEMBL3675917.pdb
REMARK                            x       y       z     vdW  Elec       q    Type
REMARK                         _______ _______ _______ _____ _____    ______ ____
ROOT
ATOM      1  C   LIG    1        3.519  -3.871  -1.729  0.00  0.00    +0.126 A 
ATOM      2  N   LIG    1        3.359  -2.852  -2.550  0.00  0.00    -0.212 NA
ATOM      3  C   LIG    1        2.628  -3.048  -3.695  0.00  0.00    +0.170 A 
ATOM      4  C   LIG    1        2.287  -2.200  -4.735  0.00  0.00    +0.100 A 
ATOM      5  C   LIG    1        1.542  -3.009  -5.617  0.00  0.00    +0.150 A 
ATOM      6  N   LIG    1        1.400  -4.262  -5.188  0.00  0.00    -0.173 NA
ATOM      7  N   LIG    1        2.058  -4.283  -4.006  0.00  0.00    -0.221 N 
ATOM      8  C   LIG    1        2.199  -5.355  -3.144  0.00  0.00    +0.118 A 
ATOM      9  C   LIG    1        2.893  -5.219  -2.010  0.00  0.00    +0.063 A 
ENDROOT
BRANCH   1  11
ATOM     10  C   LIG    1        4.901  -2.402  -0.230  0.00  0.00    +0.108 C 
ATOM     11  N   LIG    1        4.277  -3.700  -0.577  0.00  0.00    -0.308 N 
ATOM     12  C   LIG    1        4.965  -4.787   0.115  0.00  0.00    +0.107 C 
ATOM     13  C   LIG    1        6.347  -4.222   0.394  0.00  0.00    +0.021 C 
ATOM     14  C   LIG    1        6.051  -2.771   0.729  0.00  0.00    +0.029 C 
BRANCH  10  18
ATOM     15  F   LIG    1        0.839  -1.462   2.364  0.00  0.00    -0.205 F 
ATOM     16  C   LIG    1        1.898  -0.997   1.689  0.00  0.00    +0.124 A 
ATOM     17  C   LIG    1        2.803  -1.899   1.135  0.00  0.00    +0.046 A 
ATOM     18  C   LIG    1        3.912  -1.444   0.403  0.00  0.00    +0.011 A 
ATOM     19  C   LIG    1        4.084  -0.059   0.280  0.00  0.00    +0.129 A 
ATOM     20  F   LIG    1        5.130   0.423  -0.408  0.00  0.00    -0.205 F 
ATOM     21  C   LIG    1        3.181   0.845   0.847  0.00  0.00    +0.041 A 
ATOM     22  C   LIG    1        2.076   0.373   1.552  0.00  0.00    +0.041 A 
ENDBRANCH  10  18
ENDBRANCH   1  11
BRANCH   4  23
ATOM     23  C   LIG    1        2.609  -0.803  -4.914  0.00  0.00    +0.250 C 
ATOM     24  N   LIG    1        3.355  -0.238  -3.911  0.00  0.00    -0.298 N 
ATOM     25  H   LIG    1        3.605  -0.825  -3.115  0.00  0.00    +0.150 HD
ATOM     26  O   LIG    1        2.241  -0.176  -5.902  0.00  0.00    -0.270 OA
BRANCH  24  27
ATOM     27  C   LIG    1        3.775   1.145  -3.963  0.00  0.00    +0.223 C 
BRANCH  27  28
ATOM     28  C   LIG    1        3.285   1.929  -2.823  0.00  0.00    +0.081 C 
ATOM     29  N   LIG    1        2.913   2.579  -1.929  0.00  0.00    -0.195 NA
ENDBRANCH  27  28
ENDBRANCH  24  27
ENDBRANCH   4  23
TORSDOF 5
