REMARK  Name = pdb/CHEMBL3675924.pdb
REMARK                            x       y       z     vdW  Elec       q    Type
REMARK                         _______ _______ _______ _____ _____    ______ ____
ROOT
ATOM      1  C   LIG    1        9.010   2.058  -3.664  0.00  0.00    +0.100 A 
ATOM      2  C   LIG    1        9.984   1.077  -3.741  0.00  0.00    +0.170 A 
ATOM      3  N   LIG    1        9.900  -0.290  -3.820  0.00  0.00    -0.212 NA
ATOM      4  C   LIG    1       11.021  -0.981  -3.841  0.00  0.00    +0.126 A 
ATOM      5  C   LIG    1       12.373  -0.305  -3.788  0.00  0.00    +0.063 A 
ATOM      6  C   LIG    1       12.394   1.032  -3.756  0.00  0.00    +0.118 A 
ATOM      7  N   LIG    1       11.208   1.746  -3.728  0.00  0.00    -0.221 N 
ATOM      8  N   LIG    1       11.055   3.090  -3.685  0.00  0.00    -0.173 NA
ATOM      9  C   LIG    1        9.734   3.267  -3.637  0.00  0.00    +0.150 A 
ENDROOT
BRANCH   4  10
ATOM     10  N   LIG    1       10.964  -2.358  -3.986  0.00  0.00    -0.308 N 
ATOM     11  C   LIG    1        9.758  -3.101  -4.429  0.00  0.00    +0.108 C 
ATOM     12  C   LIG    1        9.942  -4.450  -3.698  0.00  0.00    +0.029 C 
ATOM     13  C   LIG    1       11.443  -4.664  -3.729  0.00  0.00    +0.021 C 
ATOM     14  C   LIG    1       11.983  -3.268  -3.466  0.00  0.00    +0.107 C 
BRANCH  11  15
ATOM     15  C   LIG    1        9.683  -3.151  -5.954  0.00  0.00    +0.011 A 
ATOM     16  C   LIG    1        9.114  -4.227  -6.652  0.00  0.00    +0.129 A 
ATOM     17  F   LIG    1        8.584  -5.269  -6.003  0.00  0.00    -0.205 F 
ATOM     18  C   LIG    1        9.047  -4.259  -8.049  0.00  0.00    +0.041 A 
ATOM     19  C   LIG    1        9.514  -3.184  -8.795  0.00  0.00    +0.041 A 
ATOM     20  C   LIG    1       10.031  -2.086  -8.131  0.00  0.00    +0.124 A 
ATOM     21  F   LIG    1       10.458  -1.028  -8.832  0.00  0.00    -0.205 F 
ATOM     22  C   LIG    1       10.112  -2.060  -6.741  0.00  0.00    +0.046 A 
ENDBRANCH  11  15
ENDBRANCH   4  10
BRANCH   1  25
ATOM     23  N   LIG    1        7.137   0.588  -3.636  0.00  0.00    -0.310 N 
ATOM     24  H   LIG    1        7.849  -0.142  -3.668  0.00  0.00    +0.149 HD
ATOM     25  C   LIG    1        7.572   1.893  -3.618  0.00  0.00    +0.249 C 
ATOM     26  O   LIG    1        6.805   2.849  -3.566  0.00  0.00    -0.270 OA
BRANCH  23  27
ATOM     27  C   LIG    1        5.737   0.228  -3.516  0.00  0.00    +0.121 C 
BRANCH  27  28
ATOM     28  C   LIG    1        5.017   0.221  -4.868  0.00  0.00    +0.124 C 
BRANCH  28  29
ATOM     29  N   LIG    1        5.639  -0.777  -5.763  0.00  0.00    -0.193 NA
ATOM     30  H   LIG    1        6.660  -0.787  -5.782  0.00  0.00    +0.148 HD
BRANCH  29  32
ATOM     31  C   LIG    1        5.084   0.582  -8.035  0.00  0.00    +0.214 C 
ATOM     32  S   LIG    1        4.953  -1.024  -7.275  0.00  0.00    +0.027 S 
ATOM     33  O   LIG    1        5.849  -1.925  -7.969  0.00  0.00    -0.158 OA
ATOM     34  O   LIG    1        3.557  -1.332  -7.088  0.00  0.00    -0.158 OA
ENDBRANCH  29  32
ENDBRANCH  28  29
ENDBRANCH  27  28
ENDBRANCH  23  27
ENDBRANCH   1  25
TORSDOF 7
