REMARK  Name = pdb/CHEMBL456322.pdb
REMARK                            x       y       z     vdW  Elec       q    Type
REMARK                         _______ _______ _______ _____ _____    ______ ____
ROOT
ATOM      1  C   UNK A  0        2.637  -0.458  -3.160  0.00  0.00    +0.219 A 
ATOM      2  N   UNK A  0        2.222   0.252  -4.215  0.00  0.00    -0.198 NA
ATOM      3  C   UNK A  0        1.518  -0.376  -5.190  0.00  0.00    +0.149 A 
ATOM      4  C   UNK A  0        1.323  -1.758  -5.142  0.00  0.00    +0.121 A 
ATOM      5 CL   UNK A  0        0.475  -2.593  -6.402  0.00  0.00    -0.076 Cl
ATOM      6  C   UNK A  0        1.842  -2.439  -4.046  0.00  0.00    +0.145 A 
ATOM      7  N   UNK A  0        2.468  -1.766  -3.063  0.00  0.00    -0.198 NA
ENDROOT
BRANCH   1   8
ATOM      8  N   UNK A  0        3.290   0.230  -2.154  0.00  0.00    -0.307 N 
ATOM      9  H   UNK A  0        3.875   0.944  -2.562  0.00  0.00    +0.149 HD
BRANCH   8  11
ATOM     10  C   UNK A  0        5.117   0.104  -0.533  0.00  0.00    +0.033 C 
ATOM     11  C   UNK A  0        3.791  -0.504  -1.000  0.00  0.00    +0.100 C 
BRANCH  11  12
ATOM     12  C   UNK A  0        2.732  -0.495   0.104  0.00  0.00    -0.027 A 
ATOM     13  C   UNK A  0        2.633   0.509   1.073  0.00  0.00    +0.008 A 
ATOM     14  C   UNK A  0        1.629   0.472   2.048  0.00  0.00    +0.038 A 
ATOM     15  C   UNK A  0        0.696  -0.557   2.047  0.00  0.00    +0.123 A 
ATOM     16  F   UNK A  0       -0.268  -0.579   2.976  0.00  0.00    -0.205 F 
ATOM     17  C   UNK A  0        0.755  -1.558   1.095  0.00  0.00    +0.038 A 
ATOM     18  C   UNK A  0        1.774  -1.517   0.142  0.00  0.00    +0.008 A 
ENDBRANCH  11  12
ENDBRANCH   8  11
ENDBRANCH   1   8
BRANCH   3  19
ATOM     19  N   UNK A  0        1.071   0.348  -6.309  0.00  0.00    -0.282 N 
ATOM     20  H   UNK A  0        0.190  -0.017  -6.684  0.00  0.00    +0.155 HD
BRANCH  19  21
ATOM     21  C   UNK A  0        1.475   1.531  -6.785  0.00  0.00    +0.146 A 
ATOM     22  N   UNK A  0        0.832   2.185  -7.768  0.00  0.00    -0.158 NA
ATOM     23  N   UNK A  0        1.584   3.276  -7.973  0.00  0.00    -0.280 N 
ATOM     24  H   UNK A  0        1.313   3.918  -8.702  0.00  0.00    +0.189 HD
ATOM     25  C   UNK A  0        2.669   3.351  -7.140  0.00  0.00    +0.041 A 
ATOM     26  C   UNK A  0        2.637   2.221  -6.377  0.00  0.00    +0.068 A 
BRANCH  25  27
ATOM     27  C   UNK A  0        3.717   4.444  -7.048  0.00  0.00    +0.037 C 
ATOM     28  C   UNK A  0        3.266   5.869  -7.198  0.00  0.00    +0.010 C 
ATOM     29  C   UNK A  0        4.062   5.226  -8.280  0.00  0.00    +0.010 C 
ENDBRANCH  25  27
ENDBRANCH  19  21
ENDBRANCH   3  19
BRANCH   6  30
ATOM     30  N   SER A  1        1.852  -3.830  -3.964  0.00  0.00    -0.320 N 
ATOM     31  H   SER A  1        1.009  -4.282  -4.304  0.00  0.00    +0.148 HD
BRANCH  30  32
ATOM     32  CA  SER A  1        2.471  -4.427  -2.762  0.00  0.00    +0.122 C 
BRANCH  32  33
ATOM     33  C   SER A  1        3.139  -5.763  -3.130  0.00  0.00    +0.180 C 
BRANCH  33  34
ATOM     34  O   SER A  1        2.200  -6.768  -3.506  0.00  0.00    -0.393 OA
ATOM     35  H   SER A  1        1.513  -6.781  -2.807  0.00  0.00    +0.209 HD
ENDBRANCH  33  34
ENDBRANCH  32  33
BRANCH  32  36
ATOM     36  CB  SER A  1        1.433  -4.599  -1.637  0.00  0.00    +0.180 C 
BRANCH  36  37
ATOM     37  OG  SER A  1        0.454  -5.588  -1.948  0.00  0.00    -0.393 OA
ATOM     38  H   SER A  1       -0.104  -5.193  -2.645  0.00  0.00    +0.209 HD
ENDBRANCH  36  37
ENDBRANCH  32  36
ENDBRANCH  30  32
ENDBRANCH   6  30
TORSDOF 12
