REMARK  Name = pdb/CHEMBL3968770.pdb
REMARK                            x       y       z     vdW  Elec       q    Type
REMARK                         _______ _______ _______ _____ _____    ______ ____
ROOT
ATOM      1  C   LIG    1        5.357  -6.738  -8.102  0.00  0.00    +0.323 A 
ATOM      2  N   LIG    1        4.845  -7.754  -8.815  0.00  0.00    -0.201 NA
ATOM      3  C   LIG    1        4.475  -7.460 -10.095  0.00  0.00    +0.145 A 
ATOM      4  C   LIG    1        4.583  -6.219 -10.711  0.00  0.00    +0.105 A 
ATOM      5  C   LIG    1        5.124  -5.269  -9.862  0.00  0.00    +0.145 A 
ATOM      6  N   LIG    1        5.508  -5.487  -8.575  0.00  0.00    -0.201 NA
ENDROOT
BRANCH   4   7
ATOM      7  N   LIG    1        4.116  -5.861 -12.011  0.00  0.00    -0.196 NA
ATOM      8  C   LIG    1        4.279  -6.636 -13.034  0.00  0.00    +0.285 C 
BRANCH   8   9
ATOM      9  N   LIG    1        3.836  -6.424 -14.323  0.00  0.00    -0.268 N 
ATOM     10  H   LIG    1        3.058  -5.767 -14.407  0.00  0.00    +0.157 HD
BRANCH   9  11
ATOM     11  C   LIG    1        4.508  -6.743 -15.538  0.00  0.00    +0.060 A 
ATOM     12  C   LIG    1        3.853  -6.869 -16.783  0.00  0.00    +0.109 A 
ATOM     13  C   LIG    1        4.546  -7.324 -17.923  0.00  0.00    +0.029 A 
ATOM     14  C   LIG    1        5.882  -7.698 -17.854  0.00  0.00    +0.014 A 
ATOM     15  C   LIG    1        6.570  -7.592 -16.648  0.00  0.00    +0.057 A 
ATOM     16  C   LIG    1        5.882  -7.111 -15.515  0.00  0.00    +0.037 A 
BRANCH  12  17
ATOM     17  S   LIG    1        2.151  -6.400 -17.053  0.00  0.00    -0.004 S 
ATOM     18  C   LIG    1        1.173  -7.522 -16.105  0.00  0.00    +0.200 C 
ATOM     19  O   LIG    1        1.838  -6.672 -18.466  0.00  0.00    -0.170 OA
ATOM     20  O   LIG    1        1.990  -5.087 -16.504  0.00  0.00    -0.170 OA
ENDBRANCH  12  17
BRANCH  15  21
ATOM     21  C   LIG    1        8.025  -8.002 -16.586  0.00  0.00    +0.417 C 
ATOM     22  F   LIG    1        8.806  -7.275 -17.430  0.00  0.00    -0.166 F 
ATOM     23  F   LIG    1        8.204  -9.306 -16.936  0.00  0.00    -0.166 F 
ATOM     24  F   LIG    1        8.575  -7.868 -15.350  0.00  0.00    -0.166 F 
ENDBRANCH  15  21
ENDBRANCH   9  11
ENDBRANCH   8   9
BRANCH   8  25
ATOM     25  O   LIG    1        4.850  -7.846 -12.884  0.00  0.00    -0.481 OA
ATOM     26  H   LIG    1        4.770  -8.348 -13.707  0.00  0.00    +0.295 HD
ENDBRANCH   8  25
ENDBRANCH   4   7
BRANCH   1  27
ATOM     27  O   LIG    1        5.680  -7.020  -6.769  0.00  0.00    -0.424 OA
BRANCH  27  31
ATOM     28  C   LIG    1        8.873  -4.924  -4.982  0.00  0.00    -0.010 A 
ATOM     29  C   LIG    1        7.787  -5.409  -4.229  0.00  0.00    +0.012 A 
ATOM     30  C   LIG    1        6.735  -6.120  -4.825  0.00  0.00    +0.047 A 
ATOM     31  C   LIG    1        6.744  -6.347  -6.202  0.00  0.00    +0.132 A 
ATOM     32  C   LIG    1        7.858  -5.944  -6.940  0.00  0.00    +0.047 A 
ATOM     33  C   LIG    1        8.902  -5.227  -6.347  0.00  0.00    +0.012 A 
BRANCH  28  36
ATOM     34  C   LIG    1       11.311  -2.826  -2.657  0.00  0.00    +0.156 A 
ATOM     35  S   LIG    1        9.580  -3.179  -2.918  0.00  0.00    -0.053 S 
ATOM     36  C   LIG    1        9.934  -4.128  -4.352  0.00  0.00    +0.038 A 
ATOM     37  C   LIG    1       11.236  -4.018  -4.668  0.00  0.00    +0.100 A 
ATOM     38  N   LIG    1       11.981  -3.261  -3.786  0.00  0.00    -0.342 N 
ATOM     39  H   LIG    1       12.993  -3.288  -3.840  0.00  0.00    +0.167 HD
BRANCH  34  40
ATOM     40  N   LIG    1       11.809  -2.308  -1.591  0.00  0.00    -0.228 NA
BRANCH  40  41
ATOM     41  C   LIG    1       10.935  -2.015  -0.456  0.00  0.00    +0.130 C 
BRANCH  41  43
ATOM     42  C   LIG    1       12.238  -3.561   1.071  0.00  0.00    +0.005 C 
ATOM     43  C   LIG    1       11.735  -2.142   0.838  0.00  0.00    +0.017 C 
ENDBRANCH  41  43
ENDBRANCH  40  41
ENDBRANCH  34  40
ENDBRANCH  28  36
ENDBRANCH  27  31
ENDBRANCH   1  27
TORSDOF 12
