REMARK  Name = pdb/CHEMBL3915172.pdb
REMARK                            x       y       z     vdW  Elec       q    Type
REMARK                         _______ _______ _______ _____ _____    ______ ____
ROOT
ATOM      1  C   LIG    1        4.029  -0.190   1.040  0.00  0.00    +0.131 C 
ATOM      2  N   LIG    1        4.158  -0.903   2.170  0.00  0.00    -0.141 NA
ATOM      3  N   LIG    1        4.566  -0.019   3.113  0.00  0.00    -0.201 N 
ATOM      4  C   LIG    1        4.490   1.304   2.648  0.00  0.00    +0.185 C 
ATOM      5  C   LIG    1        4.294   1.185   1.289  0.00  0.00    +0.056 C 
ENDROOT
BRANCH   3   6
ATOM      6  C   LIG    1        4.930  -0.490   4.404  0.00  0.00    +0.052 A 
ATOM      7  C   LIG    1        5.821   0.229   5.209  0.00  0.00    +0.025 A 
ATOM      8  C   LIG    1        6.174  -0.257   6.470  0.00  0.00    +0.002 A 
ATOM      9  C   LIG    1        5.650  -1.465   6.929  0.00  0.00    +0.000 A 
ATOM     10  C   LIG    1        4.775  -2.194   6.127  0.00  0.00    +0.002 A 
ATOM     11  C   LIG    1        4.424  -1.717   4.861  0.00  0.00    +0.025 A 
ENDBRANCH   3   6
BRANCH   4  12
ATOM     12  N   LIG    1        4.508   2.477   3.432  0.00  0.00    -0.282 N 
ATOM     13  H   LIG    1        4.594   2.365   4.428  0.00  0.00    +0.152 HD
ATOM     14  C   LIG    1        4.282   3.811   2.907  0.00  0.00    +0.247 C 
ATOM     15  O   LIG    1        4.060   3.979   1.731  0.00  0.00    -0.270 OA
BRANCH  14  16
ATOM     16  C   LIG    1        4.196   4.960   3.861  0.00  0.00    +0.056 A 
ATOM     17  C   LIG    1        4.901   5.032   5.054  0.00  0.00    +0.054 A 
ATOM     18 CL   LIG    1        6.144   3.919   5.483  0.00  0.00    -0.083 Cl
ATOM     19  C   LIG    1        4.649   6.075   5.949  0.00  0.00    +0.041 A 
ATOM     20  C   LIG    1        3.742   7.098   5.630  0.00  0.00    +0.052 A 
ATOM     21 CL   LIG    1        3.368   8.191   6.923  0.00  0.00    -0.083 Cl
ATOM     22  C   LIG    1        3.136   7.165   4.358  0.00  0.00    +0.022 A 
ATOM     23  C   LIG    1        3.361   6.049   3.502  0.00  0.00    +0.026 A 
BRANCH  22  24
ATOM     24  C   LIG    1        2.344   8.341   3.893  0.00  0.00    +0.107 A 
ATOM     25  C   LIG    1        1.274   8.260   2.999  0.00  0.00    +0.149 A 
ATOM     26  F   LIG    1        0.838   7.079   2.537  0.00  0.00    -0.203 F 
ATOM     27  C   LIG    1        0.623   9.418   2.576  0.00  0.00    +0.042 A 
ATOM     28  C   LIG    1        1.023  10.648   3.082  0.00  0.00    +0.023 A 
ATOM     29  C   LIG    1        2.082  10.663   3.970  0.00  0.00    +0.111 A 
ATOM     30  N   LIG    1        2.760   9.553   4.352  0.00  0.00    -0.252 NA
ENDBRANCH  22  24
ENDBRANCH  14  16
ENDBRANCH   4  12
BRANCH   1  31
ATOM     31  C   LIG    1        3.572  -0.795  -0.218  0.00  0.00    +0.233 C 
ATOM     32  N   LIG    1        3.772  -0.197  -1.336  0.00  0.00    -0.248 NA
BRANCH  31  33
ATOM     33  O   LIG    1        2.898  -1.957  -0.071  0.00  0.00    -0.491 OA
ATOM     34  H   LIG    1        2.544  -2.296  -0.901  0.00  0.00    +0.294 HD
ENDBRANCH  31  33
BRANCH  32  35
ATOM     35  C   LIG    1        3.294  -0.782  -2.585  0.00  0.00    +0.162 C 
BRANCH  35  36
ATOM     36  C   LIG    1        3.702   0.102  -3.738  0.00  0.00    +0.052 C 
ATOM     37  C   LIG    1        2.792   1.189  -4.118  0.00  0.00    +0.028 C 
ATOM     38  C   LIG    1        3.110   2.002  -5.139  0.00  0.00    +0.184 C 
ATOM     39  N   LIG    1        4.272   1.835  -5.843  0.00  0.00    -0.210 N 
ATOM     40  H   LIG    1        4.506   2.465  -6.598  0.00  0.00    +0.298 HD
ATOM     41  C   LIG    1        5.163   0.837  -5.554  0.00  0.00    +0.295 C 
ATOM     42  C   LIG    1        4.847  -0.102  -4.429  0.00  0.00    +0.083 C 
BRANCH  41  43
ATOM     43  N   LIG    1        6.250   0.729  -6.251  0.00  0.00    -0.071 NA
ATOM     44  H   LIG    1        6.815  -0.057  -5.920  0.00  0.00    +0.348 HD
ENDBRANCH  41  43
ENDBRANCH  35  36
ENDBRANCH  32  35
ENDBRANCH   1  31
TORSDOF 9
