REMARK  Name = pdb/CHEMBL3947950.pdb
REMARK                            x       y       z     vdW  Elec       q    Type
REMARK                         _______ _______ _______ _____ _____    ______ ____
ROOT
ATOM      1  C   LIG    1        4.819  -1.712   2.219  0.00  0.00    +0.126 A 
ATOM      2  N   LIG    1        5.661  -1.178   3.083  0.00  0.00    -0.211 NA
ATOM      3  C   LIG    1        6.236  -2.007   4.024  0.00  0.00    +0.179 A 
ATOM      4  C   LIG    1        7.104  -1.784   5.083  0.00  0.00    +0.098 A 
ATOM      5  C   LIG    1        7.281  -3.048   5.684  0.00  0.00    +0.160 A 
ATOM      6  N   LIG    1        6.606  -4.016   5.070  0.00  0.00    -0.171 NA
ATOM      7  N   LIG    1        5.972  -3.380   4.059  0.00  0.00    -0.220 N 
ATOM      8  C   LIG    1        5.140  -3.960   3.124  0.00  0.00    +0.118 A 
ATOM      9  C   LIG    1        4.550  -3.205   2.195  0.00  0.00    +0.063 A 
ENDROOT
BRANCH   1  13
ATOM     10  C   LIG    1        0.807   0.274   0.514  0.00  0.00    +0.012 C 
ATOM     11  C   LIG    1        2.269   0.029   0.109  0.00  0.00    -0.017 C 
ATOM     12  C   LIG    1        2.816  -1.249   0.773  0.00  0.00    +0.113 C 
ATOM     13  N   LIG    1        4.154  -0.923   1.283  0.00  0.00    -0.307 N 
ATOM     14  C   LIG    1        4.552   0.444   0.911  0.00  0.00    +0.108 C 
ATOM     15  C   LIG    1        3.189   1.127   0.669  0.00  0.00    +0.035 C 
ATOM     16  C   LIG    1        2.323  -0.038  -1.425  0.00  0.00    +0.012 C 
BRANCH  14  17
ATOM     17  C   LIG    1        5.490   0.445  -0.293  0.00  0.00    +0.011 A 
ATOM     18  C   LIG    1        5.919   1.647  -0.879  0.00  0.00    +0.129 A 
ATOM     19  F   LIG    1        5.482   2.822  -0.404  0.00  0.00    -0.205 F 
ATOM     20  C   LIG    1        6.802   1.666  -1.966  0.00  0.00    +0.041 A 
ATOM     21  C   LIG    1        7.285   0.471  -2.492  0.00  0.00    +0.041 A 
ATOM     22  C   LIG    1        6.874  -0.726  -1.926  0.00  0.00    +0.124 A 
ATOM     23  F   LIG    1        7.322  -1.885  -2.427  0.00  0.00    -0.205 F 
ATOM     24  C   LIG    1        5.997  -0.747  -0.845  0.00  0.00    +0.046 A 
ENDBRANCH  14  17
ENDBRANCH   1  13
BRANCH   4  25
ATOM     25  N   LIG    1        7.646  -0.561   5.436  0.00  0.00    -0.276 N 
ATOM     26  H   LIG    1        7.392   0.248   4.877  0.00  0.00    +0.155 HD
ATOM     27  C   LIG    1        8.529  -0.408   6.495  0.00  0.00    +0.268 C 
ATOM     28  O   LIG    1        8.928  -1.290   7.239  0.00  0.00    -0.268 OA
BRANCH  27  29
ATOM     29  C   LIG    1        9.030   0.974   6.690  0.00  0.00    +0.144 A 
ATOM     30  N   LIG    1        8.320   1.998   6.142  0.00  0.00    -0.247 NA
ATOM     31  C   LIG    1        8.822   3.230   6.398  0.00  0.00    +0.131 A 
ATOM     32  C   LIG    1        9.984   3.430   7.130  0.00  0.00    +0.130 A 
ATOM     33  N   LIG    1       10.699   2.410   7.657  0.00  0.00    -0.259 NA
ATOM     34  C   LIG    1       10.189   1.173   7.430  0.00  0.00    +0.143 A 
ENDBRANCH  27  29
ENDBRANCH   4  25
TORSDOF 4
