REMARK  Name = pdb/CHEMBL3889648.pdb
REMARK                            x       y       z     vdW  Elec       q    Type
REMARK                         _______ _______ _______ _____ _____    ______ ____
ROOT
ATOM      1  C   LIG    1        3.960  -0.379  -5.235  0.00  0.00    +0.178 A 
ATOM      2  N   LIG    1        2.931  -1.103  -4.626  0.00  0.00    -0.193 N 
ATOM      3  N   LIG    1        2.924  -2.454  -4.366  0.00  0.00    -0.148 NA
ATOM      4  C   LIG    1        1.827  -2.919  -3.821  0.00  0.00    +0.143 A 
ATOM      5  C   LIG    1        0.669  -2.016  -3.487  0.00  0.00    +0.049 A 
ATOM      6  C   LIG    1        0.754  -0.709  -3.748  0.00  0.00    +0.051 A 
ATOM      7  C   LIG    1        1.921  -0.203  -4.343  0.00  0.00    +0.157 A 
ATOM      8  N   LIG    1        2.225   1.024  -4.699  0.00  0.00    -0.232 NA
ATOM      9  C   LIG    1        3.461   0.916  -5.271  0.00  0.00    +0.161 A 
ENDROOT
BRANCH   4  10
ATOM     10  N   LIG    1        1.733  -4.280  -3.532  0.00  0.00    -0.307 N 
ATOM     11  C   LIG    1        0.451  -5.007  -3.480  0.00  0.00    +0.108 C 
ATOM     12  C   LIG    1        0.750  -6.400  -4.067  0.00  0.00    +0.029 C 
ATOM     13  C   LIG    1        2.124  -6.267  -4.705  0.00  0.00    +0.021 C 
ATOM     14  C   LIG    1        2.809  -5.221  -3.846  0.00  0.00    +0.107 C 
BRANCH  11  15
ATOM     15  C   LIG    1       -0.092  -5.102  -2.068  0.00  0.00    +0.011 A 
ATOM     16  C   LIG    1       -1.473  -5.220  -1.868  0.00  0.00    +0.129 A 
ATOM     17  F   LIG    1       -2.298  -5.217  -2.924  0.00  0.00    -0.205 F 
ATOM     18  C   LIG    1       -2.022  -5.336  -0.592  0.00  0.00    +0.041 A 
ATOM     19  C   LIG    1       -1.183  -5.350   0.522  0.00  0.00    +0.041 A 
ATOM     20  C   LIG    1        0.190  -5.242   0.338  0.00  0.00    +0.124 A 
ATOM     21  F   LIG    1        1.000  -5.263   1.405  0.00  0.00    -0.205 F 
ATOM     22  C   LIG    1        0.739  -5.117  -0.935  0.00  0.00    +0.046 A 
ENDBRANCH  11  15
ENDBRANCH   4  10
BRANCH   1  25
ATOM     23  C   LIG    1        6.572   0.998  -5.248  0.00  0.00    +0.109 C 
ATOM     24  C   LIG    1        6.224  -0.386  -5.719  0.00  0.00    +0.186 C 
ATOM     25  N   LIG    1        5.084  -0.990  -5.706  0.00  0.00    -0.196 NA
BRANCH  24  26
ATOM     26  O   LIG    1        7.272  -1.048  -6.256  0.00  0.00    -0.496 OA
ATOM     27  H   LIG    1        8.093  -0.534  -6.263  0.00  0.00    +0.293 HD
ENDBRANCH  24  26
ENDBRANCH   1  25
TORSDOF 4
