REMARK  Name = pdb/CHEMBL3895227.pdb
REMARK                            x       y       z     vdW  Elec       q    Type
REMARK                         _______ _______ _______ _____ _____    ______ ____
ROOT
ATOM      1  C   LIG    1        0.788  -1.229  -3.878  0.00  0.00    +0.098 A 
ATOM      2  C   LIG    1        0.136  -2.359  -4.337  0.00  0.00    +0.179 A 
ATOM      3  N   LIG    1        0.024  -3.638  -3.839  0.00  0.00    -0.211 NA
ATOM      4  C   LIG    1       -0.786  -4.470  -4.462  0.00  0.00    +0.126 A 
ATOM      5  C   LIG    1       -1.591  -4.045  -5.670  0.00  0.00    +0.063 A 
ATOM      6  C   LIG    1       -1.379  -2.817  -6.153  0.00  0.00    +0.118 A 
ATOM      7  N   LIG    1       -0.501  -1.961  -5.513  0.00  0.00    -0.220 N 
ATOM      8  N   LIG    1       -0.175  -0.697  -5.877  0.00  0.00    -0.171 NA
ATOM      9  C   LIG    1        0.601  -0.262  -4.882  0.00  0.00    +0.160 A 
ENDROOT
BRANCH   4  10
ATOM     10  N   LIG    1       -0.909  -5.778  -4.023  0.00  0.00    -0.308 N 
ATOM     11  C   LIG    1        0.120  -6.486  -3.255  0.00  0.00    +0.105 C 
ATOM     12  C   LIG    1       -0.624  -7.674  -2.604  0.00  0.00    +0.029 C 
ATOM     13  C   LIG    1       -2.100  -7.428  -2.881  0.00  0.00    +0.021 C 
ATOM     14  C   LIG    1       -2.109  -6.587  -4.145  0.00  0.00    +0.107 C 
BRANCH  11  15
ATOM     15  C   LIG    1        1.237  -6.974  -4.171  0.00  0.00    -0.024 A 
ATOM     16  C   LIG    1        0.975  -7.794  -5.283  0.00  0.00    +0.043 A 
ATOM     17  C   LIG    1        2.011  -8.249  -6.092  0.00  0.00    +0.124 A 
ATOM     18  F   LIG    1        1.729  -9.035  -7.140  0.00  0.00    -0.205 F 
ATOM     19  C   LIG    1        3.328  -7.908  -5.825  0.00  0.00    +0.038 A 
ATOM     20  C   LIG    1        3.611  -7.094  -4.731  0.00  0.00    +0.003 A 
ATOM     21  C   LIG    1        2.573  -6.630  -3.912  0.00  0.00    +0.005 A 
ENDBRANCH  11  15
ENDBRANCH   4  10
BRANCH   1  23
ATOM     22  C   LIG    1        2.151  -0.075  -2.197  0.00  0.00    +0.254 C 
ATOM     23  N   LIG    1        1.459  -1.173  -2.673  0.00  0.00    -0.277 N 
ATOM     24  H   LIG    1        1.438  -2.035  -2.136  0.00  0.00    +0.155 HD
ATOM     25  O   LIG    1        2.229   1.013  -2.750  0.00  0.00    -0.270 OA
BRANCH  22  27
ATOM     26  C   LIG    1        3.275  -1.491  -0.412  0.00  0.00    +0.227 A 
ATOM     27  C   LIG    1        2.818  -0.261  -0.875  0.00  0.00    +0.098 A 
ATOM     28  C   LIG    1        3.012   0.854  -0.046  0.00  0.00    +0.020 A 
ATOM     29  C   LIG    1        3.631   0.695   1.194  0.00  0.00    +0.021 A 
ATOM     30  C   LIG    1        4.040  -0.574   1.563  0.00  0.00    +0.114 A 
ATOM     31  N   LIG    1        3.877  -1.667   0.791  0.00  0.00    -0.221 NA
BRANCH  26  33
ATOM     32  C   LIG    1        3.567  -3.810  -0.629  0.00  0.00    +0.279 C 
ATOM     33  O   LIG    1        3.099  -2.602  -1.213  0.00  0.00    -0.479 OA
ENDBRANCH  26  33
ENDBRANCH  22  27
ENDBRANCH   1  23
TORSDOF 5
