REMARK  Name = pdb/CHEMBL3970377.pdb
REMARK                            x       y       z     vdW  Elec       q    Type
REMARK                         _______ _______ _______ _____ _____    ______ ____
ROOT
ATOM      1  C   LIG    1        4.250   4.631   2.809  0.00  0.00    +0.149 A 
ATOM      2  N   LIG    1        4.513   5.667   3.620  0.00  0.00    -0.160 NA
ATOM      3  N   LIG    1        5.719   6.132   3.219  0.00  0.00    -0.218 N 
ATOM      4  C   LIG    1        6.309   5.278   2.281  0.00  0.00    +0.129 A 
ATOM      5  C   LIG    1        5.351   4.353   1.965  0.00  0.00    +0.078 A 
ENDROOT
BRANCH   3   6
ATOM      6  C   LIG    1        6.229   7.340   3.770  0.00  0.00    +0.067 A 
ATOM      7  C   LIG    1        5.816   7.747   5.047  0.00  0.00    +0.028 A 
ATOM      8  C   LIG    1        6.278   8.953   5.583  0.00  0.00    +0.002 A 
ATOM      9  C   LIG    1        7.151   9.756   4.851  0.00  0.00    +0.000 A 
ATOM     10  C   LIG    1        7.570   9.353   3.586  0.00  0.00    +0.002 A 
ATOM     11  C   LIG    1        7.098   8.157   3.039  0.00  0.00    +0.028 A 
ENDBRANCH   3   6
BRANCH   4  12
ATOM     12  N   LIG    1        7.629   5.302   1.834  0.00  0.00    -0.266 N 
ATOM     13  H   LIG    1        8.222   6.008   2.248  0.00  0.00    +0.157 HD
ATOM     14  C   LIG    1        8.214   4.353   0.923  0.00  0.00    +0.251 C 
ATOM     15  O   LIG    1        7.562   3.447   0.452  0.00  0.00    -0.270 OA
BRANCH  14  16
ATOM     16  C   LIG    1        9.669   4.545   0.582  0.00  0.00    +0.056 A 
ATOM     17  C   LIG    1       10.461   5.591   1.031  0.00  0.00    +0.054 A 
ATOM     18 CL   LIG    1       10.010   6.763   2.209  0.00  0.00    -0.083 Cl
ATOM     19  C   LIG    1       11.747   5.756   0.529  0.00  0.00    +0.041 A 
ATOM     20  C   LIG    1       12.277   4.867  -0.407  0.00  0.00    +0.052 A 
ATOM     21 CL   LIG    1       13.772   5.388  -1.106  0.00  0.00    -0.083 Cl
ATOM     22  C   LIG    1       11.572   3.713  -0.796  0.00  0.00    +0.022 A 
ATOM     23  C   LIG    1       10.237   3.602  -0.311  0.00  0.00    +0.026 A 
BRANCH  22  24
ATOM     24  C   LIG    1       12.114   2.647  -1.680  0.00  0.00    +0.107 A 
ATOM     25  C   LIG    1       13.455   2.251  -1.712  0.00  0.00    +0.149 A 
ATOM     26  F   LIG    1       14.359   2.735  -0.851  0.00  0.00    -0.203 F 
ATOM     27  C   LIG    1       13.878   1.280  -2.612  0.00  0.00    +0.042 A 
ATOM     28  C   LIG    1       12.942   0.646  -3.412  0.00  0.00    +0.023 A 
ATOM     29  C   LIG    1       11.616   1.023  -3.279  0.00  0.00    +0.111 A 
ATOM     30  N   LIG    1       11.187   2.010  -2.452  0.00  0.00    -0.252 NA
ENDBRANCH  22  24
ENDBRANCH  14  16
ENDBRANCH   4  12
BRANCH   1  32
ATOM     31  N   LIG    1        2.245   3.861   3.880  0.00  0.00    -0.233 NA
ATOM     32  C   LIG    1        3.004   3.876   2.835  0.00  0.00    +0.237 C 
BRANCH  31  33
ATOM     33  C   LIG    1        1.105   2.983   3.989  0.00  0.00    +0.140 C 
ATOM     34  C   LIG    1        0.295   3.123   5.269  0.00  0.00    +0.043 C 
ATOM     35  C   LIG    1       -0.226   3.706   3.997  0.00  0.00    +0.043 C 
BRANCH  33  38
ATOM     36  C   LIG    1        0.972   0.205   1.474  0.00  0.00    +0.174 C 
ATOM     37  N   LIG    1        0.854   1.495   2.127  0.00  0.00    -0.256 NA
ATOM     38  C   LIG    1        1.167   1.619   3.365  0.00  0.00    +0.211 C 
BRANCH  38  39
ATOM     39  O   LIG    1        1.622   0.645   4.174  0.00  0.00    -0.494 OA
ATOM     40  H   LIG    1        1.621  -0.216   3.738  0.00  0.00    +0.293 HD
ENDBRANCH  38  39
ENDBRANCH  33  38
ENDBRANCH  31  33
BRANCH  32  41
ATOM     41  O   LIG    1        2.758   3.250   1.662  0.00  0.00    -0.491 OA
ATOM     42  H   LIG    1        1.857   2.876   1.630  0.00  0.00    +0.294 HD
ENDBRANCH  32  41
ENDBRANCH   1  32
TORSDOF 9
