REMARK  Name = pdb/CHEMBL2037211.pdb
REMARK                            x       y       z     vdW  Elec       q    Type
REMARK                         _______ _______ _______ _____ _____    ______ ____
ROOT
ATOM      1  C   LIG    1        7.824   1.864  -7.902  0.00  0.00    +0.035 A 
ATOM      2  C   LIG    1        8.152   1.305  -9.150  0.00  0.00    +0.046 A 
ATOM      3  C   LIG    1        8.948   2.004 -10.079  0.00  0.00    +0.033 A 
ATOM      4  C   LIG    1        9.396   3.283  -9.738  0.00  0.00    +0.023 A 
ATOM      5  C   LIG    1        9.060   3.853  -8.512  0.00  0.00    +0.004 A 
ATOM      6  C   LIG    1        8.293   3.139  -7.600  0.00  0.00    +0.023 A 
ENDROOT
BRANCH   1   8
ATOM      7  C   LIG    1        6.653   1.497  -5.727  0.00  0.00    +0.248 C 
ATOM      8  N   LIG    1        7.036   1.106  -7.006  0.00  0.00    -0.281 N 
ATOM      9  H   LIG    1        6.708   0.218  -7.359  0.00  0.00    +0.155 HD
ATOM     10  O   LIG    1        6.912   2.572  -5.196  0.00  0.00    -0.270 OA
BRANCH   7  15
ATOM     11  C   LIG    1        5.356  -1.833  -4.357  0.00  0.00    +0.031 A 
ATOM     12  C   LIG    1        4.567  -1.329  -3.307  0.00  0.00    +0.035 A 
ATOM     13  C   LIG    1        4.378   0.050  -3.079  0.00  0.00    +0.057 A 
ATOM     14  C   LIG    1        5.027   0.965  -3.910  0.00  0.00    +0.025 A 
ATOM     15  C   LIG    1        5.864   0.507  -4.933  0.00  0.00    +0.039 A 
ATOM     16  C   LIG    1        6.021  -0.873  -5.135  0.00  0.00    +0.036 A 
BRANCH  11  21
ATOM     17  C   LIG    1        4.340  -6.069  -6.678  0.00  0.00    +0.105 C 
ATOM     18  N   LIG    1        4.004  -4.646  -6.667  0.00  0.00    -0.302 NA
ATOM     19  C   LIG    1        5.193  -3.809  -6.957  0.00  0.00    +0.103 C 
ATOM     20  C   LIG    1        6.209  -3.699  -5.792  0.00  0.00    +0.120 C 
ATOM     21  N   LIG    1        5.540  -3.207  -4.560  0.00  0.00    -0.327 N 
ATOM     22  C   LIG    1        4.430  -4.125  -4.193  0.00  0.00    +0.120 C 
ATOM     23  C   LIG    1        3.419  -4.242  -5.361  0.00  0.00    +0.103 C 
ENDBRANCH  11  21
BRANCH  13  24
ATOM     24  C   LIG    1        3.504   0.503  -1.937  0.00  0.00    +0.417 C 
ATOM     25  F   LIG    1        3.932   0.052  -0.729  0.00  0.00    -0.166 F 
ATOM     26  F   LIG    1        2.218   0.052  -2.067  0.00  0.00    -0.166 F 
ATOM     27  F   LIG    1        3.405   1.858  -1.820  0.00  0.00    -0.166 F 
ENDBRANCH  13  24
ENDBRANCH   7  15
ENDBRANCH   1   8
BRANCH   3  28
ATOM     28  N   LIG    1        9.292   1.399 -11.303  0.00  0.00    -0.314 N 
ATOM     29  H   LIG    1        8.653   0.666 -11.592  0.00  0.00    +0.152 HD
BRANCH  28  30
ATOM     30  C   LIG    1       10.504   1.371 -12.027  0.00  0.00    +0.033 A 
ATOM     31  C   LIG    1       11.755   1.581 -11.438  0.00  0.00    +0.047 A 
ATOM     32  C   LIG    1       12.879   1.504 -12.249  0.00  0.00    +0.043 A 
ATOM     33  N   LIG    1       14.201   1.623 -11.837  0.00  0.00    -0.281 N 
ATOM     34  H   LIG    1       14.515   1.773 -10.891  0.00  0.00    +0.155 HD
ATOM     35  C   LIG    1       15.080   1.520 -12.901  0.00  0.00    +0.249 C 
ATOM     36  O   LIG    1       16.289   1.626 -12.831  0.00  0.00    -0.270 OA
ATOM     37  C   LIG    1       14.215   1.312 -14.124  0.00  0.00    +0.048 C 
ATOM     38  C   LIG    1       14.584   1.188 -15.411  0.00  0.00    +0.039 C 
ATOM     39  C   LIG    1       12.821   1.280 -13.630  0.00  0.00    +0.008 A 
ATOM     40  C   LIG    1       11.593   1.093 -14.232  0.00  0.00    +0.012 A 
ATOM     41  C   LIG    1       10.443   1.136 -13.423  0.00  0.00    +0.024 A 
BRANCH  38  42
ATOM     42  C   LIG    1       15.903   1.237 -15.947  0.00  0.00    +0.040 A 
ATOM     43  N   LIG    1       16.903   1.983 -15.362  0.00  0.00    -0.361 N 
ATOM     44  H   LIG    1       16.824   2.468 -14.475  0.00  0.00    +0.165 HD
ATOM     45  C   LIG    1       18.059   1.888 -16.087  0.00  0.00    +0.083 A 
ATOM     46  C   LIG    1       17.812   1.075 -17.165  0.00  0.00    +0.019 A 
ATOM     47  C   LIG    1       16.461   0.679 -17.090  0.00  0.00    +0.027 A 
ENDBRANCH  38  42
ENDBRANCH  28  30
ENDBRANCH   3  28
TORSDOF 7
