REMARK  Name = pdb/CHEMBL3671153.pdb
REMARK                            x       y       z     vdW  Elec       q    Type
REMARK                         _______ _______ _______ _____ _____    ______ ____
ROOT
ATOM      1  C   LIG    1        2.801  -6.510   0.582  0.00  0.00    +0.126 A 
ATOM      2  N   LIG    1        2.404  -5.272   0.369  0.00  0.00    -0.212 NA
ATOM      3  C   LIG    1        1.382  -5.064  -0.527  0.00  0.00    +0.170 A 
ATOM      4  C   LIG    1        0.848  -3.926  -1.104  0.00  0.00    +0.100 A 
ATOM      5  C   LIG    1       -0.197  -4.405  -1.926  0.00  0.00    +0.150 A 
ATOM      6  N   LIG    1       -0.304  -5.733  -1.923  0.00  0.00    -0.173 NA
ATOM      7  N   LIG    1        0.704  -6.138  -1.119  0.00  0.00    -0.221 N 
ATOM      8  C   LIG    1        1.103  -7.441  -0.890  0.00  0.00    +0.118 A 
ATOM      9  C   LIG    1        2.133  -7.693  -0.079  0.00  0.00    +0.063 A 
ENDROOT
BRANCH   1  11
ATOM     10  C   LIG    1        4.501  -5.706   2.246  0.00  0.00    +0.108 C 
ATOM     11  N   LIG    1        3.859  -6.760   1.445  0.00  0.00    -0.308 N 
ATOM     12  C   LIG    1        4.745  -7.917   1.298  0.00  0.00    +0.107 C 
ATOM     13  C   LIG    1        5.959  -7.613   2.161  0.00  0.00    +0.021 C 
ATOM     14  C   LIG    1        5.988  -6.096   2.182  0.00  0.00    +0.029 C 
BRANCH  10  18
ATOM     15  F   LIG    1        1.221  -7.021   5.683  0.00  0.00    -0.205 F 
ATOM     16  C   LIG    1        2.282  -6.281   5.334  0.00  0.00    +0.124 A 
ATOM     17  C   LIG    1        2.810  -6.408   4.051  0.00  0.00    +0.046 A 
ATOM     18  C   LIG    1        3.928  -5.652   3.654  0.00  0.00    +0.011 A 
ATOM     19  C   LIG    1        4.471  -4.767   4.596  0.00  0.00    +0.129 A 
ATOM     20  F   LIG    1        5.515  -3.995   4.260  0.00  0.00    -0.205 F 
ATOM     21  C   LIG    1        3.940  -4.637   5.880  0.00  0.00    +0.041 A 
ATOM     22  C   LIG    1        2.835  -5.400   6.252  0.00  0.00    +0.041 A 
ENDBRANCH  10  18
ENDBRANCH   1  11
BRANCH   4  23
ATOM     23  C   LIG    1        1.228  -2.530  -0.989  0.00  0.00    +0.249 C 
ATOM     24  N   LIG    1        1.939  -2.177   0.139  0.00  0.00    -0.311 N 
ATOM     25  H   LIG    1        2.235  -2.912   0.764  0.00  0.00    +0.149 HD
ATOM     26  O   LIG    1        0.921  -1.717  -1.848  0.00  0.00    -0.270 OA
BRANCH  24  27
ATOM     27  C   LIG    1        2.345  -0.796   0.334  0.00  0.00    +0.110 C 
BRANCH  27  28
ATOM     28  C   LIG    1        3.063  -0.511   1.655  0.00  0.00    +0.073 C 
BRANCH  28  29
ATOM     29  C   LIG    1        2.232  -0.742   2.870  0.00  0.00    +0.037 A 
ATOM     30  N   LIG    1        1.469   0.237   3.461  0.00  0.00    -0.348 N 
ATOM     31  H   LIG    1        1.361   1.191   3.146  0.00  0.00    +0.166 HD
ATOM     32  C   LIG    1        0.887  -0.303   4.572  0.00  0.00    +0.196 A 
ATOM     33  N   LIG    1        1.230  -1.560   4.732  0.00  0.00    -0.244 NA
ATOM     34  C   LIG    1        2.057  -1.845   3.677  0.00  0.00    +0.133 A 
ENDBRANCH  28  29
ENDBRANCH  27  28
ENDBRANCH  24  27
ENDBRANCH   4  23
TORSDOF 6
