REMARK  Name = pdb/CHEMBL3675970.pdb
REMARK                            x       y       z     vdW  Elec       q    Type
REMARK                         _______ _______ _______ _____ _____    ______ ____
ROOT
ATOM      1  C   LIG    1        8.505   1.344  -0.717  0.00  0.00    +0.101 A 
ATOM      2  C   LIG    1        9.467   2.293  -1.017  0.00  0.00    +0.170 A 
ATOM      3  N   LIG    1        9.425   3.668  -1.099  0.00  0.00    -0.212 NA
ATOM      4  C   LIG    1       10.545   4.305  -1.388  0.00  0.00    +0.126 A 
ATOM      5  C   LIG    1       11.828   3.560  -1.689  0.00  0.00    +0.063 A 
ATOM      6  C   LIG    1       11.806   2.228  -1.607  0.00  0.00    +0.118 A 
ATOM      7  N   LIG    1       10.643   1.574  -1.251  0.00  0.00    -0.221 N 
ATOM      8  N   LIG    1       10.480   0.244  -1.083  0.00  0.00    -0.173 NA
ATOM      9  C   LIG    1        9.198   0.115  -0.746  0.00  0.00    +0.150 A 
ENDROOT
BRANCH   4  10
ATOM     10  N   LIG    1       10.553   5.693  -1.424  0.00  0.00    -0.308 N 
ATOM     11  C   LIG    1        9.332   6.512  -1.402  0.00  0.00    +0.107 C 
ATOM     12  C   LIG    1        9.753   7.771  -2.177  0.00  0.00    +0.029 C 
ATOM     13  C   LIG    1       11.215   7.946  -1.802  0.00  0.00    +0.021 C 
ATOM     14  C   LIG    1       11.724   6.511  -1.748  0.00  0.00    +0.107 C 
BRANCH  11  15
ATOM     15  C   LIG    1        8.874   6.824   0.009  0.00  0.00    -0.006 A 
ATOM     16  C   LIG    1        9.740   6.837   1.108  0.00  0.00    +0.046 A 
ATOM     17  C   LIG    1        9.252   7.119   2.375  0.00  0.00    +0.142 A 
ATOM     18  F   LIG    1       10.084   7.139   3.423  0.00  0.00    -0.204 F 
ATOM     19  C   LIG    1        7.906   7.380   2.531  0.00  0.00    +0.149 A 
ATOM     20  N   LIG    1        7.030   7.403   1.499  0.00  0.00    -0.260 NA
ATOM     21  C   LIG    1        7.540   7.143   0.269  0.00  0.00    +0.116 A 
ENDBRANCH  11  15
ENDBRANCH   4  10
BRANCH   1  24
ATOM     22  N   LIG    1        6.652   2.808  -0.474  0.00  0.00    -0.266 N 
ATOM     23  H   LIG    1        7.354   3.513  -0.641  0.00  0.00    +0.157 HD
ATOM     24  C   LIG    1        7.088   1.498  -0.431  0.00  0.00    +0.254 C 
ATOM     25  O   LIG    1        6.413   0.511  -0.200  0.00  0.00    -0.270 OA
BRANCH  22  30
ATOM     26  F   LIG    1        1.458   4.479   0.069  0.00  0.00    -0.204 F 
ATOM     27  C   LIG    1        2.731   4.088  -0.063  0.00  0.00    +0.142 A 
ATOM     28  C   LIG    1        3.076   2.754   0.011  0.00  0.00    +0.151 A 
ATOM     29  N   LIG    1        4.345   2.302  -0.116  0.00  0.00    -0.237 NA
ATOM     30  C   LIG    1        5.319   3.202  -0.324  0.00  0.00    +0.125 A 
ATOM     31  C   LIG    1        5.043   4.564  -0.420  0.00  0.00    +0.046 A 
ATOM     32  C   LIG    1        3.731   5.016  -0.283  0.00  0.00    +0.043 A 
ENDBRANCH  22  30
ENDBRANCH   1  24
TORSDOF 4
