REMARK  Name = pdb/CHEMBL3676026.pdb
REMARK                            x       y       z     vdW  Elec       q    Type
REMARK                         _______ _______ _______ _____ _____    ______ ____
ROOT
ATOM      1  C   LIG    1        0.217  -0.179   0.790  0.00  0.00    +0.126 A 
ATOM      2  N   LIG    1       -0.817   0.636   0.702  0.00  0.00    -0.212 NA
ATOM      3  C   LIG    1       -0.667   1.936   1.127  0.00  0.00    +0.170 A 
ATOM      4  C   LIG    1       -1.517   3.025   1.105  0.00  0.00    +0.100 A 
ATOM      5  C   LIG    1       -0.781   4.065   1.707  0.00  0.00    +0.150 A 
ATOM      6  N   LIG    1        0.452   3.692   2.066  0.00  0.00    -0.173 NA
ATOM      7  N   LIG    1        0.522   2.396   1.693  0.00  0.00    -0.221 N 
ATOM      8  C   LIG    1        1.609   1.558   1.808  0.00  0.00    +0.118 A 
ATOM      9  C   LIG    1        1.529   0.298   1.374  0.00  0.00    +0.063 A 
ENDROOT
BRANCH   1  11
ATOM     10  C   LIG    1        1.248  -2.258  -0.218  0.00  0.00    +0.110 C 
ATOM     11  N   LIG    1        0.092  -1.499   0.337  0.00  0.00    -0.308 N 
ATOM     12  C   LIG    1       -1.152  -1.942  -0.332  0.00  0.00    +0.107 C 
ATOM     13  C   LIG    1       -0.701  -2.868  -1.456  0.00  0.00    +0.021 C 
ATOM     14  C   LIG    1        0.600  -3.445  -0.938  0.00  0.00    +0.029 C 
BRANCH  10  16
ATOM     15  C   LIG    1        3.639  -2.802   0.537  0.00  0.00    +0.220 A 
ATOM     16  C   LIG    1        2.261  -2.726   0.809  0.00  0.00    +0.037 A 
ATOM     17  C   LIG    1        1.853  -3.047   2.118  0.00  0.00    +0.050 A 
ATOM     18  C   LIG    1        2.796  -3.395   3.072  0.00  0.00    +0.142 A 
ATOM     19  F   LIG    1        2.425  -3.660   4.330  0.00  0.00    -0.204 F 
ATOM     20  C   LIG    1        4.124  -3.440   2.707  0.00  0.00    +0.153 A 
ATOM     21  N   LIG    1        4.562  -3.157   1.462  0.00  0.00    -0.218 NA
BRANCH  15  23
ATOM     22  C   LIG    1        5.479  -2.117  -0.765  0.00  0.00    +0.279 C 
ATOM     23  O   LIG    1        4.100  -2.519  -0.733  0.00  0.00    -0.479 OA
ENDBRANCH  15  23
ENDBRANCH  10  16
ENDBRANCH   1  11
BRANCH   4  24
ATOM     24  C   LIG    1       -2.868   3.129   0.585  0.00  0.00    +0.249 C 
ATOM     25  N   LIG    1       -3.353   1.981  -0.003  0.00  0.00    -0.309 N 
ATOM     26  H   LIG    1       -2.763   1.150   0.007  0.00  0.00    +0.149 HD
ATOM     27  O   LIG    1       -3.510   4.161   0.651  0.00  0.00    -0.270 OA
BRANCH  25  28
ATOM     28  C   LIG    1       -4.650   1.956  -0.641  0.00  0.00    +0.132 C 
BRANCH  28  29
ATOM     29  C   LIG    1       -4.968   0.606  -1.280  0.00  0.00    +0.174 C 
BRANCH  29  30
ATOM     30  O   LIG    1       -4.046   0.288  -2.320  0.00  0.00    -0.393 OA
ATOM     31  H   LIG    1       -4.067   1.020  -2.961  0.00  0.00    +0.209 HD
ENDBRANCH  29  30
ENDBRANCH  28  29
ENDBRANCH  25  28
ENDBRANCH   4  24
TORSDOF 7
