REMARK  Name = pdb/CHEMBL3927785.pdb
REMARK                            x       y       z     vdW  Elec       q    Type
REMARK                         _______ _______ _______ _____ _____    ______ ____
ROOT
ATOM      1  C   UNK A  0        3.818  -3.227   0.802  0.00  0.00    +0.149 A 
ATOM      2  N   UNK A  0        3.725  -4.393   0.144  0.00  0.00    -0.160 NA
ATOM      3  N   UNK A  0        4.691  -5.184   0.675  0.00  0.00    -0.218 N 
ATOM      4  C   UNK A  0        5.533  -4.452   1.530  0.00  0.00    +0.129 A 
ATOM      5  C   UNK A  0        4.918  -3.242   1.686  0.00  0.00    +0.078 A 
ENDROOT
BRANCH   3   6
ATOM      6  C   UNK A  0        4.734  -6.564   0.319  0.00  0.00    +0.067 A 
ATOM      7  C   UNK A  0        5.277  -7.519   1.184  0.00  0.00    +0.028 A 
ATOM      8  C   UNK A  0        5.300  -8.871   0.823  0.00  0.00    +0.002 A 
ATOM      9  C   UNK A  0        4.760  -9.281  -0.394  0.00  0.00    +0.000 A 
ATOM     10  C   UNK A  0        4.189  -8.341  -1.250  0.00  0.00    +0.002 A 
ATOM     11  C   UNK A  0        4.167  -6.988  -0.894  0.00  0.00    +0.028 A 
ENDBRANCH   3   6
BRANCH   4  12
ATOM     12  N   UNK A  0        6.772  -4.829   2.074  0.00  0.00    -0.266 N 
ATOM     13  H   UNK A  0        7.133  -5.739   1.786  0.00  0.00    +0.157 HD
ATOM     14  C   UNK A  0        7.585  -3.964   2.900  0.00  0.00    +0.251 C 
ATOM     15  O   UNK A  0        7.235  -2.847   3.187  0.00  0.00    -0.270 OA
BRANCH  14  16
ATOM     16  C   UNK A  0        8.892  -4.479   3.376  0.00  0.00    +0.056 A 
ATOM     17  C   UNK A  0        9.168  -5.834   3.626  0.00  0.00    +0.054 A 
ATOM     18 CL   UNK A  0        7.987  -7.081   3.516  0.00  0.00    -0.083 Cl
ATOM     19  C   UNK A  0       10.441  -6.228   4.035  0.00  0.00    +0.041 A 
ATOM     20  C   UNK A  0       11.467  -5.290   4.224  0.00  0.00    +0.052 A 
ATOM     21 CL   UNK A  0       13.014  -5.987   4.564  0.00  0.00    -0.083 Cl
ATOM     22  C   UNK A  0       11.234  -3.912   4.063  0.00  0.00    +0.022 A 
ATOM     23  C   UNK A  0        9.931  -3.549   3.604  0.00  0.00    +0.026 A 
BRANCH  22  24
ATOM     24  C   UNK A  0       12.232  -2.830   4.304  0.00  0.00    +0.107 A 
ATOM     25  C   UNK A  0       13.201  -2.839   5.312  0.00  0.00    +0.149 A 
ATOM     26  F   UNK A  0       13.274  -3.820   6.221  0.00  0.00    -0.203 F 
ATOM     27  C   UNK A  0       14.090  -1.776   5.442  0.00  0.00    +0.042 A 
ATOM     28  C   UNK A  0       13.965  -0.679   4.604  0.00  0.00    +0.023 A 
ATOM     29  C   UNK A  0       12.953  -0.701   3.661  0.00  0.00    +0.111 A 
ATOM     30  N   UNK A  0       12.101  -1.744   3.485  0.00  0.00    -0.252 NA
ENDBRANCH  22  24
ENDBRANCH  14  16
ENDBRANCH   4  12
BRANCH   1  32
ATOM     31  N   ALA A  1        2.208  -2.029  -0.483  0.00  0.00    -0.244 NA
ATOM     32  C   UNK A  0        2.894  -2.117   0.594  0.00  0.00    +0.236 C 
BRANCH  31  34
ATOM     33  CB  ALA A  1        0.928  -0.996  -2.238  0.00  0.00    +0.035 C 
ATOM     34  CA  ALA A  1        1.272  -0.937  -0.749  0.00  0.00    +0.131 C 
BRANCH  34  35
ATOM     35  C   ALA A  1       -0.006  -1.128   0.077  0.00  0.00    +0.182 C 
BRANCH  35  36
ATOM     36  O   ALA A  1        0.298  -1.041   1.470  0.00  0.00    -0.393 OA
ATOM     37  H   ALA A  1        0.556  -1.948   1.738  0.00  0.00    +0.209 HD
ENDBRANCH  35  36
ENDBRANCH  34  35
ENDBRANCH  31  34
BRANCH  32  38
ATOM     38  O   UNK A  0        2.822  -1.261   1.638  0.00  0.00    -0.491 OA
ATOM     39  H   UNK A  0        2.069  -0.647   1.541  0.00  0.00    +0.294 HD
ENDBRANCH  32  38
ENDBRANCH   1  32
TORSDOF 9
