REMARK  Name = pdb/CHEMBL2151321.pdb
REMARK                            x       y       z     vdW  Elec       q    Type
REMARK                         _______ _______ _______ _____ _____    ______ ____
ROOT
ATOM      1  N   LIG    1        7.942  -0.812  -0.257  0.00  0.00    -0.266 N 
ATOM      2  C   LIG    1        8.427   0.492  -0.162  0.00  0.00    +0.168 A 
ATOM      3  N   LIG    1        7.753   1.676  -0.085  0.00  0.00    -0.213 NA
ATOM      4  C   LIG    1        8.555   2.774  -0.056  0.00  0.00    +0.122 A 
ATOM      5  C   LIG    1        9.952   2.697  -0.075  0.00  0.00    +0.046 A 
ATOM      6  C   LIG    1       10.607   1.473  -0.153  0.00  0.00    +0.035 A 
ATOM      7  C   LIG    1        9.811   0.334  -0.191  0.00  0.00    +0.108 A 
ATOM      8  N   LIG    1       10.188  -0.976  -0.260  0.00  0.00    -0.234 NA
ATOM      9  C   LIG    1        9.053  -1.634  -0.291  0.00  0.00    +0.207 A 
ENDROOT
BRANCH   1  14
ATOM     10  C   LIG    1        4.394  -1.452  -0.328  0.00  0.00    +0.213 A 
ATOM     11  N   LIG    1        5.018  -2.667  -0.488  0.00  0.00    -0.245 N 
ATOM     12  H   LIG    1        4.577  -3.568  -0.601  0.00  0.00    +0.192 HD
ATOM     13  N   LIG    1        6.360  -2.591  -0.459  0.00  0.00    -0.153 NA
ATOM     14  C   LIG    1        6.602  -1.275  -0.321  0.00  0.00    +0.165 A 
ATOM     15  C   LIG    1        5.417  -0.528  -0.256  0.00  0.00    +0.115 A 
BRANCH  10  16
ATOM     16  O   LIG    1        3.063  -1.383  -0.274  0.00  0.00    -0.474 OA
BRANCH  16  18
ATOM     17  C   LIG    1        1.130   0.006  -0.630  0.00  0.00    +0.051 C 
ATOM     18  C   LIG    1        2.520  -0.080  -0.010  0.00  0.00    +0.169 C 
ATOM     19  C   LIG    1        2.439   0.163   1.495  0.00  0.00    +0.051 C 
ENDBRANCH  16  18
ENDBRANCH  10  16
ENDBRANCH   1  14
BRANCH   4  20
ATOM     20  N   LIG    1        7.935   4.021   0.037  0.00  0.00    -0.321 N 
ATOM     21  H   LIG    1        6.927   3.940  -0.063  0.00  0.00    +0.148 HD
BRANCH  20  22
ATOM     22  C   LIG    1        8.525   5.214  -0.592  0.00  0.00    +0.117 C 
ATOM     23  C   LIG    1        8.710   5.048  -2.107  0.00  0.00    +0.034 C 
BRANCH  22  24
ATOM     24  C   LIG    1        7.664   6.444  -0.293  0.00  0.00    +0.061 A 
ATOM     25  N   LIG    1        6.678   6.762  -1.176  0.00  0.00    -0.255 NA
ATOM     26  C   LIG    1        5.943   7.870  -0.921  0.00  0.00    +0.149 A 
ATOM     27  C   LIG    1        6.129   8.670   0.189  0.00  0.00    +0.141 A 
ATOM     28  F   LIG    1        5.369   9.755   0.383  0.00  0.00    -0.204 F 
ATOM     29  C   LIG    1        7.115   8.332   1.100  0.00  0.00    +0.042 A 
ATOM     30  C   LIG    1        7.898   7.202   0.860  0.00  0.00    +0.028 A 
ENDBRANCH  22  24
ENDBRANCH  20  22
ENDBRANCH   4  20
TORSDOF 6
