REMARK  Name = pdb/CHEMBL2007421.pdb
REMARK                            x       y       z     vdW  Elec       q    Type
REMARK                         _______ _______ _______ _____ _____    ______ ____
ROOT
ATOM      1  C   LIG    1        9.039   6.732  -1.684  0.00  0.00    +0.148 A 
ATOM      2  C   LIG    1        9.250   7.659  -0.674  0.00  0.00    +0.099 A 
ATOM      3 CL   LIG    1       10.671   8.614  -0.536  0.00  0.00    -0.078 Cl
ATOM      4  C   LIG    1        8.250   7.759   0.263  0.00  0.00    +0.137 A 
ATOM      5  N   LIG    1        7.099   7.062   0.213  0.00  0.00    -0.221 NA
ATOM      6  C   LIG    1        6.933   6.242  -0.831  0.00  0.00    +0.217 A 
ATOM      7  N   LIG    1        7.871   6.044  -1.758  0.00  0.00    -0.198 NA
ENDROOT
BRANCH   1   8
ATOM      8  N   LIG    1       10.089   6.400  -2.566  0.00  0.00    -0.282 N 
ATOM      9  H   LIG    1       10.650   7.189  -2.863  0.00  0.00    +0.155 HD
BRANCH   8  14
ATOM     10  C   LIG    1       10.296   3.011  -3.546  0.00  0.00    +0.213 A 
ATOM     11  N   LIG    1       11.350   3.635  -4.149  0.00  0.00    -0.245 N 
ATOM     12  H   LIG    1       12.051   3.200  -4.742  0.00  0.00    +0.192 HD
ATOM     13  N   LIG    1       11.409   4.964  -3.921  0.00  0.00    -0.156 NA
ATOM     14  C   LIG    1       10.372   5.196  -3.118  0.00  0.00    +0.149 A 
ATOM     15  C   LIG    1        9.645   4.012  -2.862  0.00  0.00    +0.112 A 
BRANCH  10  16
ATOM     16  O   LIG    1       10.107   1.702  -3.682  0.00  0.00    -0.474 OA
BRANCH  16  18
ATOM     17  C   LIG    1        8.094   1.220  -4.899  0.00  0.00    +0.051 C 
ATOM     18  C   LIG    1        8.757   1.234  -3.527  0.00  0.00    +0.169 C 
ATOM     19  C   LIG    1        8.806  -0.170  -2.938  0.00  0.00    +0.051 C 
ENDBRANCH  16  18
ENDBRANCH  10  16
ENDBRANCH   8  14
ENDBRANCH   1   8
BRANCH   6  20
ATOM     20  N   LIG    1        5.742   5.572  -1.002  0.00  0.00    -0.305 N 
ATOM     21  H   LIG    1        5.844   4.820  -1.673  0.00  0.00    +0.150 HD
BRANCH  20  22
ATOM     22  C   LIG    1        4.953   5.273   0.184  0.00  0.00    +0.119 C 
ATOM     23  C   LIG    1        3.468   5.281  -0.199  0.00  0.00    +0.034 C 
BRANCH  22  24
ATOM     24  C   LIG    1        5.347   3.934   0.810  0.00  0.00    +0.061 A 
ATOM     25  N   LIG    1        4.670   2.817   0.423  0.00  0.00    -0.255 NA
ATOM     26  C   LIG    1        4.962   1.657   1.059  0.00  0.00    +0.149 A 
ATOM     27  C   LIG    1        5.926   1.547   2.041  0.00  0.00    +0.141 A 
ATOM     28  F   LIG    1        6.159   0.374   2.642  0.00  0.00    -0.204 F 
ATOM     29  C   LIG    1        6.646   2.674   2.400  0.00  0.00    +0.042 A 
ATOM     30  C   LIG    1        6.357   3.887   1.776  0.00  0.00    +0.028 A 
ENDBRANCH  22  24
ENDBRANCH  20  22
ENDBRANCH   6  20
TORSDOF 7
