REMARK  Name = pdb/CHEMBL3959978.pdb
REMARK                            x       y       z     vdW  Elec       q    Type
REMARK                         _______ _______ _______ _____ _____    ______ ____
ROOT
ATOM      1  C   LIG    1        5.203   1.346  -4.526  0.00  0.00    +0.149 A 
ATOM      2  N   LIG    1        5.937   2.299  -3.936  0.00  0.00    -0.160 NA
ATOM      3  N   LIG    1        5.060   3.304  -3.635  0.00  0.00    -0.218 N 
ATOM      4  C   LIG    1        3.758   2.998  -4.091  0.00  0.00    +0.129 A 
ATOM      5  C   LIG    1        3.890   1.796  -4.746  0.00  0.00    +0.078 A 
ENDROOT
BRANCH   3   6
ATOM      6  C   LIG    1        5.583   4.474  -3.005  0.00  0.00    +0.067 A 
ATOM      7  C   LIG    1        4.781   5.390  -2.320  0.00  0.00    +0.028 A 
ATOM      8  C   LIG    1        5.346   6.548  -1.774  0.00  0.00    +0.002 A 
ATOM      9  C   LIG    1        6.714   6.790  -1.884  0.00  0.00    +0.000 A 
ATOM     10  C   LIG    1        7.530   5.868  -2.530  0.00  0.00    +0.002 A 
ATOM     11  C   LIG    1        6.971   4.713  -3.081  0.00  0.00    +0.028 A 
ENDBRANCH   3   6
BRANCH   4  12
ATOM     12  N   LIG    1        2.574   3.761  -3.978  0.00  0.00    -0.266 N 
ATOM     13  H   LIG    1        2.594   4.638  -3.497  0.00  0.00    +0.157 HD
ATOM     14  C   LIG    1        1.310   3.361  -4.573  0.00  0.00    +0.251 C 
ATOM     15  O   LIG    1        1.205   2.315  -5.165  0.00  0.00    -0.270 OA
BRANCH  14  16
ATOM     16  C   LIG    1        0.121   4.235  -4.405  0.00  0.00    +0.056 A 
ATOM     17  C   LIG    1        0.179   5.626  -4.324  0.00  0.00    +0.053 A 
ATOM     18 CL   LIG    1        1.647   6.527  -4.429  0.00  0.00    -0.083 Cl
ATOM     19  C   LIG    1       -1.003   6.357  -4.182  0.00  0.00    +0.021 A 
ATOM     20  C   LIG    1       -2.238   5.704  -4.122  0.00  0.00    +0.011 A 
ATOM     21  C   LIG    1       -2.344   4.311  -4.242  0.00  0.00    +0.004 A 
ATOM     22  C   LIG    1       -1.139   3.591  -4.387  0.00  0.00    +0.024 A 
BRANCH  21  23
ATOM     23  C   LIG    1       -3.664   3.637  -4.240  0.00  0.00    +0.106 A 
ATOM     24  C   LIG    1       -4.795   4.198  -4.844  0.00  0.00    +0.149 A 
ATOM     25  F   LIG    1       -4.756   5.409  -5.418  0.00  0.00    -0.203 F 
ATOM     26  C   LIG    1       -5.997   3.502  -4.857  0.00  0.00    +0.042 A 
ATOM     27  C   LIG    1       -6.072   2.279  -4.207  0.00  0.00    +0.023 A 
ATOM     28  C   LIG    1       -4.925   1.796  -3.594  0.00  0.00    +0.111 A 
ATOM     29  N   LIG    1       -3.722   2.429  -3.616  0.00  0.00    -0.252 NA
ENDBRANCH  21  23
ENDBRANCH  14  16
ENDBRANCH   4  12
BRANCH   1  30
ATOM     30  C   LIG    1        5.812   0.063  -4.878  0.00  0.00    +0.236 C 
ATOM     31  N   LIG    1        5.099  -0.963  -5.182  0.00  0.00    -0.244 NA
BRANCH  30  32
ATOM     32  O   LIG    1        7.166   0.067  -4.837  0.00  0.00    -0.491 OA
ATOM     33  H   LIG    1        7.469   0.970  -4.615  0.00  0.00    +0.294 HD
ENDBRANCH  30  32
BRANCH  31  34
ATOM     34  C   LIG    1        5.849  -2.194  -5.474  0.00  0.00    +0.183 C 
BRANCH  34  35
ATOM     35  C   LIG    1        5.005  -3.419  -5.285  0.00  0.00    +0.011 A 
ATOM     36  C   LIG    1        5.372  -4.736  -5.501  0.00  0.00    +0.110 A 
ATOM     37  N   LIG    1        4.285  -5.505  -5.199  0.00  0.00    -0.284 N 
ATOM     38  H   LIG    1        4.197  -6.516  -5.238  0.00  0.00    +0.188 HD
ATOM     39  N   LIG    1        3.227  -4.789  -4.793  0.00  0.00    -0.182 NA
ATOM     40  C   LIG    1        3.669  -3.528  -4.829  0.00  0.00    +0.139 A 
ENDBRANCH  34  35
ENDBRANCH  31  34
ENDBRANCH   1  30
TORSDOF 8
