REMARK  Name = pdb/CHEMBL3945591.pdb
REMARK                            x       y       z     vdW  Elec       q    Type
REMARK                         _______ _______ _______ _____ _____    ______ ____
ROOT
ATOM      1  C   LIG    1        3.561  -0.419   1.359  0.00  0.00    +0.149 A 
ATOM      2  N   LIG    1        3.557  -0.885   2.619  0.00  0.00    -0.160 NA
ATOM      3  N   LIG    1        4.201   0.063   3.342  0.00  0.00    -0.218 N 
ATOM      4  C   LIG    1        4.399   1.234   2.597  0.00  0.00    +0.129 A 
ATOM      5  C   LIG    1        4.094   0.889   1.306  0.00  0.00    +0.078 A 
ENDROOT
BRANCH   3   6
ATOM      6  C   LIG    1        4.611  -0.218   4.673  0.00  0.00    +0.067 A 
ATOM      7  C   LIG    1        3.893  -1.138   5.451  0.00  0.00    +0.028 A 
ATOM      8  C   LIG    1        4.323  -1.440   6.747  0.00  0.00    +0.002 A 
ATOM      9  C   LIG    1        5.482  -0.853   7.255  0.00  0.00    +0.000 A 
ATOM     10  C   LIG    1        6.212   0.039   6.473  0.00  0.00    +0.002 A 
ATOM     11  C   LIG    1        5.780   0.358   5.184  0.00  0.00    +0.028 A 
ENDBRANCH   3   6
BRANCH   4  12
ATOM     12  N   LIG    1        4.766   2.499   3.079  0.00  0.00    -0.266 N 
ATOM     13  H   LIG    1        4.903   2.600   4.074  0.00  0.00    +0.157 HD
ATOM     14  C   LIG    1        4.865   3.666   2.231  0.00  0.00    +0.251 C 
ATOM     15  O   LIG    1        4.651   3.600   1.037  0.00  0.00    -0.270 OA
BRANCH  14  16
ATOM     16  C   LIG    1        5.188   4.973   2.857  0.00  0.00    +0.056 A 
ATOM     17  C   LIG    1        5.978   5.121   3.984  0.00  0.00    +0.054 A 
ATOM     18 CL   LIG    1        6.798   3.817   4.753  0.00  0.00    -0.083 Cl
ATOM     19  C   LIG    1        6.189   6.391   4.518  0.00  0.00    +0.041 A 
ATOM     20  C   LIG    1        5.647   7.536   3.913  0.00  0.00    +0.052 A 
ATOM     21 CL   LIG    1        5.927   9.003   4.787  0.00  0.00    -0.083 Cl
ATOM     22  C   LIG    1        4.914   7.448   2.714  0.00  0.00    +0.019 A 
ATOM     23  C   LIG    1        4.676   6.132   2.227  0.00  0.00    +0.026 A 
BRANCH  22  24
ATOM     24  C   LIG    1        4.406   8.601   1.916  0.00  0.00    +0.072 A 
ATOM     25  N   LIG    1        3.331   8.325   1.130  0.00  0.00    -0.255 NA
ATOM     26  C   LIG    1        2.874   9.294   0.299  0.00  0.00    +0.111 A 
ATOM     27  C   LIG    1        3.434  10.553   0.200  0.00  0.00    +0.020 A 
ATOM     28  C   LIG    1        4.523  10.838   1.005  0.00  0.00    +0.004 A 
ATOM     29  C   LIG    1        5.017   9.855   1.862  0.00  0.00    +0.028 A 
ENDBRANCH  22  24
ENDBRANCH  14  16
ENDBRANCH   4  12
BRANCH   1  30
ATOM     30  C   LIG    1        3.020  -1.171   0.230  0.00  0.00    +0.236 C 
ATOM     31  N   LIG    1        2.526  -0.534  -0.767  0.00  0.00    -0.241 NA
BRANCH  30  32
ATOM     32  O   LIG    1        3.112  -2.511   0.345  0.00  0.00    -0.491 OA
ATOM     33  H   LIG    1        2.624  -2.978  -0.346  0.00  0.00    +0.294 HD
ENDBRANCH  30  32
BRANCH  31  34
ATOM     34  C   LIG    1        1.978  -1.240  -1.915  0.00  0.00    +0.221 C 
BRANCH  34  35
ATOM     35  C   LIG    1        0.548  -1.547  -1.699  0.00  0.00    +0.146 A 
ATOM     36  C   LIG    1       -0.636  -0.891  -1.947  0.00  0.00    +0.157 A 
ATOM     37  N   LIG    1       -1.694  -1.662  -1.535  0.00  0.00    -0.224 NA
ATOM     38  C   LIG    1       -1.119  -2.738  -1.050  0.00  0.00    +0.308 A 
ATOM     39  O   LIG    1        0.243  -2.749  -1.115  0.00  0.00    -0.446 OA
ENDBRANCH  34  35
ENDBRANCH  31  34
ENDBRANCH   1  30
TORSDOF 8
