REMARK  Name = pdb/CHEMBL3676030.pdb
REMARK                            x       y       z     vdW  Elec       q    Type
REMARK                         _______ _______ _______ _____ _____    ______ ____
ROOT
ATOM      1  C   LIG    1        1.998  -2.209  -2.959  0.00  0.00    +0.126 A 
ATOM      2  N   LIG    1        1.683  -0.982  -3.323  0.00  0.00    -0.212 NA
ATOM      3  C   LIG    1        1.132  -0.780  -4.570  0.00  0.00    +0.170 A 
ATOM      4  C   LIG    1        0.624   0.329  -5.230  0.00  0.00    +0.100 A 
ATOM      5  C   LIG    1        0.347  -0.127  -6.533  0.00  0.00    +0.150 A 
ATOM      6  N   LIG    1        0.597  -1.421  -6.703  0.00  0.00    -0.173 NA
ATOM      7  N   LIG    1        1.009  -1.834  -5.483  0.00  0.00    -0.221 N 
ATOM      8  C   LIG    1        1.268  -3.132  -5.097  0.00  0.00    +0.118 A 
ATOM      9  C   LIG    1        1.689  -3.389  -3.857  0.00  0.00    +0.063 A 
ENDROOT
BRANCH   1  11
ATOM     10  C   LIG    1        3.180  -3.727  -1.271  0.00  0.00    +0.110 C 
ATOM     11  N   LIG    1        2.657  -2.432  -1.751  0.00  0.00    -0.308 N 
ATOM     12  C   LIG    1        2.999  -1.359  -0.818  0.00  0.00    +0.107 C 
ATOM     13  C   LIG    1        3.334  -2.078   0.485  0.00  0.00    +0.021 C 
ATOM     14  C   LIG    1        3.925  -3.399   0.032  0.00  0.00    +0.029 C 
BRANCH  10  16
ATOM     15  C   LIG    1        4.257  -5.766  -2.355  0.00  0.00    +0.220 A 
ATOM     16  C   LIG    1        4.152  -4.376  -2.233  0.00  0.00    +0.037 A 
ATOM     17  C   LIG    1        4.999  -3.591  -3.034  0.00  0.00    +0.050 A 
ATOM     18  C   LIG    1        5.868  -4.202  -3.916  0.00  0.00    +0.142 A 
ATOM     19  F   LIG    1        6.609  -3.466  -4.752  0.00  0.00    -0.204 F 
ATOM     20  C   LIG    1        5.936  -5.581  -3.928  0.00  0.00    +0.153 A 
ATOM     21  N   LIG    1        5.147  -6.380  -3.170  0.00  0.00    -0.218 NA
BRANCH  15  23
ATOM     22  C   LIG    1        3.453  -7.936  -1.917  0.00  0.00    +0.279 C 
ATOM     23  O   LIG    1        3.383  -6.542  -1.619  0.00  0.00    -0.479 OA
ENDBRANCH  15  23
ENDBRANCH  10  16
ENDBRANCH   1  11
BRANCH   4  24
ATOM     24  C   LIG    1        0.397   1.660  -4.690  0.00  0.00    +0.249 C 
ATOM     25  N   LIG    1        0.479   2.664  -5.651  0.00  0.00    -0.308 N 
ATOM     26  H   LIG    1        0.949   2.437  -6.515  0.00  0.00    +0.149 HD
ATOM     27  O   LIG    1        0.123   1.882  -3.533  0.00  0.00    -0.270 OA
BRANCH  25  28
ATOM     28  C   LIG    1        0.323   4.068  -5.294  0.00  0.00    +0.076 C 
ATOM     29  C   LIG    1       -0.185   4.890  -6.480  0.00  0.00    +0.037 C 
ATOM     30  C   LIG    1        0.887   5.087  -7.549  0.00  0.00    +0.086 C 
ATOM     31  N   LIG    1        2.145   5.627  -7.042  0.00  0.00    -0.300 NA
ATOM     32  C   LIG    1        2.650   4.938  -5.856  0.00  0.00    +0.086 C 
ATOM     33  C   LIG    1        1.627   4.658  -4.752  0.00  0.00    +0.037 C 
BRANCH  31  34
ATOM     34  C   LIG    1        2.250   7.088  -7.021  0.00  0.00    +0.112 C 
BRANCH  34  35
ATOM     35  C   LIG    1        1.458   7.867  -5.963  0.00  0.00    +0.171 C 
BRANCH  35  36
ATOM     36  O   LIG    1        1.761   9.259  -6.032  0.00  0.00    -0.394 OA
ATOM     37  H   LIG    1        2.702   9.360  -5.807  0.00  0.00    +0.209 HD
ENDBRANCH  35  36
ENDBRANCH  34  35
ENDBRANCH  31  34
ENDBRANCH  25  28
ENDBRANCH   4  24
TORSDOF 8
