REMARK  Name = pdb/CHEMBL3671423.pdb
REMARK                            x       y       z     vdW  Elec       q    Type
REMARK                         _______ _______ _______ _____ _____    ______ ____
ROOT
ATOM      1  C   LIG    1        5.923   2.263   5.361  0.00  0.00    +0.197 C 
ATOM      2  O   LIG    1        5.949   1.170   5.910  0.00  0.00    -0.287 OA
ENDROOT
BRANCH   1  10
ATOM      3  N   LIG    1        4.922   1.890   1.839  0.00  0.00    -0.323 N 
ATOM      4  C   LIG    1        4.596   3.218   2.026  0.00  0.00    +0.147 A 
ATOM      5  N   LIG    1        4.094   4.053   1.102  0.00  0.00    -0.197 NA
ATOM      6  C   LIG    1        3.768   5.257   1.580  0.00  0.00    +0.214 A 
ATOM      7  N   LIG    1        3.860   5.652   2.854  0.00  0.00    -0.222 NA
ATOM      8  C   LIG    1        4.375   4.799   3.757  0.00  0.00    +0.126 A 
ATOM      9  C   LIG    1        4.818   3.537   3.356  0.00  0.00    +0.048 A 
ATOM     10  C   LIG    1        5.457   2.431   3.976  0.00  0.00    +0.051 A 
ATOM     11  C   LIG    1        5.545   1.445   2.996  0.00  0.00    +0.100 A 
BRANCH   3  12
ATOM     12  C   LIG    1        4.615   1.054   0.648  0.00  0.00    +0.065 C 
ATOM     13  C   LIG    1        4.249  -0.391   1.080  0.00  0.00    +0.036 C 
ATOM     14  C   LIG    1        3.378   1.565  -0.136  0.00  0.00    +0.036 C 
BRANCH  12  15
ATOM     15  C   LIG    1        5.846   1.023  -0.295  0.00  0.00    +0.187 C 
BRANCH  15  17
ATOM     16  C   LIG    1        6.710   0.142  -2.317  0.00  0.00    +0.194 C 
ATOM     17  O   LIG    1        5.595   0.190  -1.435  0.00  0.00    -0.381 OA
ENDBRANCH  15  17
ENDBRANCH  12  15
ENDBRANCH   3  12
BRANCH   6  18
ATOM     18  N   LIG    1        3.214   6.159   0.696  0.00  0.00    -0.327 N 
ATOM     19  H   LIG    1        2.766   5.656  -0.056  0.00  0.00    +0.145 HD
ATOM     20  H   LIG    1        2.647   6.818   1.214  0.00  0.00    +0.145 HD
ENDBRANCH   6  18
ENDBRANCH   1  10
BRANCH   1  21
ATOM     21  C   LIG    1        6.392   3.460   6.121  0.00  0.00    +0.042 A 
ATOM     22  C   LIG    1        7.050   4.530   5.515  0.00  0.00    +0.038 A 
ATOM     23  C   LIG    1        7.459   5.638   6.264  0.00  0.00    +0.052 A 
ATOM     24  C   LIG    1        7.263   5.576   7.640  0.00  0.00    +0.134 A 
ATOM     25  N   LIG    1        6.637   4.542   8.267  0.00  0.00    -0.261 NA
ATOM     26  C   LIG    1        6.205   3.511   7.494  0.00  0.00    +0.122 A 
BRANCH  23  27
ATOM     27  N   LIG    1        8.013   6.723   5.548  0.00  0.00    -0.283 N 
ATOM     28  H   LIG    1        7.959   6.665   4.535  0.00  0.00    +0.155 HD
ATOM     29  C   LIG    1        8.508   7.906   6.057  0.00  0.00    +0.239 C 
ATOM     30  O   LIG    1        8.517   8.212   7.252  0.00  0.00    -0.273 OA
BRANCH  29  31
ATOM     31  C   LIG    1        9.065   8.847   5.015  0.00  0.00    +0.239 C 
BRANCH  31  32
ATOM     32  N   LIG    1        8.047   9.739   4.502  0.00  0.00    -0.262 N 
ATOM     33  N   LIG    1        7.323   9.376   3.424  0.00  0.00    -0.167 NA
ATOM     34  C   LIG    1        6.464  10.405   3.237  0.00  0.00    +0.165 A 
ATOM     35  C   LIG    1        6.700  11.432   4.193  0.00  0.00    +0.053 A 
ATOM     36  C   LIG    1        7.735  10.979   4.973  0.00  0.00    +0.109 A 
BRANCH  34  37
ATOM     37  C   LIG    1        5.404  10.415   2.162  0.00  0.00    +0.436 C 
ATOM     38  F   LIG    1        4.537   9.375   2.279  0.00  0.00    -0.164 F 
ATOM     39  F   LIG    1        5.927  10.364   0.909  0.00  0.00    -0.164 F 
ATOM     40  F   LIG    1        4.646  11.548   2.212  0.00  0.00    -0.164 F 
ENDBRANCH  34  37
ENDBRANCH  31  32
ENDBRANCH  29  31
ENDBRANCH  23  27
ENDBRANCH   1  21
TORSDOF 10
