REMARK  Name = pdb/CHEMBL3676027.pdb
REMARK                            x       y       z     vdW  Elec       q    Type
REMARK                         _______ _______ _______ _____ _____    ______ ____
ROOT
ATOM      1  C   LIG    1        6.587   0.920 -13.084  0.00  0.00    +0.126 A 
ATOM      2  N   LIG    1        7.696   0.240 -12.844  0.00  0.00    -0.212 NA
ATOM      3  C   LIG    1        8.319   0.417 -11.629  0.00  0.00    +0.170 A 
ATOM      4  C   LIG    1        9.363  -0.253 -10.993  0.00  0.00    +0.100 A 
ATOM      5  C   LIG    1        9.584   0.485  -9.813  0.00  0.00    +0.150 A 
ATOM      6  N   LIG    1        8.731   1.497  -9.657  0.00  0.00    -0.173 NA
ATOM      7  N   LIG    1        7.900   1.387 -10.721  0.00  0.00    -0.221 N 
ATOM      8  C   LIG    1        6.698   2.039 -10.918  0.00  0.00    +0.118 A 
ATOM      9  C   LIG    1        5.963   1.777 -12.004  0.00  0.00    +0.063 A 
ENDROOT
BRANCH   1  11
ATOM     10  C   LIG    1        4.818   1.600 -14.837  0.00  0.00    +0.110 C 
ATOM     11  N   LIG    1        6.016   0.869 -14.358  0.00  0.00    -0.308 N 
ATOM     12  C   LIG    1        6.407  -0.165 -15.325  0.00  0.00    +0.107 C 
ATOM     13  C   LIG    1        5.240  -0.260 -16.301  0.00  0.00    +0.021 C 
ATOM     14  C   LIG    1        4.641   1.132 -16.289  0.00  0.00    +0.029 C 
BRANCH  10  16
ATOM     15  C   LIG    1        3.715   3.895 -14.890  0.00  0.00    +0.220 A 
ATOM     16  C   LIG    1        4.876   3.116 -14.752  0.00  0.00    +0.037 A 
ATOM     17  C   LIG    1        6.059   3.812 -14.456  0.00  0.00    +0.050 A 
ATOM     18  C   LIG    1        6.012   5.167 -14.164  0.00  0.00    +0.142 A 
ATOM     19  F   LIG    1        7.110   5.808 -13.750  0.00  0.00    -0.204 F 
ATOM     20  C   LIG    1        4.806   5.828 -14.254  0.00  0.00    +0.153 A 
ATOM     21  N   LIG    1        3.662   5.225 -14.638  0.00  0.00    -0.218 NA
BRANCH  15  23
ATOM     22  C   LIG    1        1.445   4.165 -15.442  0.00  0.00    +0.279 C 
ATOM     23  O   LIG    1        2.557   3.274 -15.317  0.00  0.00    -0.479 OA
ENDBRANCH  15  23
ENDBRANCH  10  16
ENDBRANCH   1  11
BRANCH   4  24
ATOM     24  C   LIG    1       10.057  -1.462 -11.396  0.00  0.00    +0.249 C 
ATOM     25  N   LIG    1        9.554  -2.027 -12.543  0.00  0.00    -0.309 N 
ATOM     26  H   LIG    1        8.890  -1.484 -13.101  0.00  0.00    +0.149 HD
ATOM     27  O   LIG    1       10.959  -1.949 -10.740  0.00  0.00    -0.270 OA
BRANCH  25  28
ATOM     28  C   LIG    1       10.072  -3.250 -13.114  0.00  0.00    +0.135 C 
BRANCH  28  29
ATOM     29  C   LIG    1        9.008  -3.934 -13.978  0.00  0.00    +0.128 C 
ATOM     30  C   LIG    1        9.533  -5.233 -14.566  0.00  0.00    +0.039 C 
BRANCH  29  31
ATOM     31  O   LIG    1        8.625  -3.060 -15.047  0.00  0.00    -0.391 OA
ATOM     32  H   LIG    1        7.953  -3.527 -15.571  0.00  0.00    +0.210 HD
ENDBRANCH  29  31
ENDBRANCH  28  29
ENDBRANCH  25  28
ENDBRANCH   4  24
TORSDOF 7
