REMARK  Name = pdb/CHEMBL3671156.pdb
REMARK                            x       y       z     vdW  Elec       q    Type
REMARK                         _______ _______ _______ _____ _____    ______ ____
ROOT
ATOM      1  C   LIG    1        2.325  -5.590   0.046  0.00  0.00    +0.126 A 
ATOM      2  N   LIG    1        1.771  -4.467  -0.365  0.00  0.00    -0.212 NA
ATOM      3  C   LIG    1        0.672  -4.545  -1.187  0.00  0.00    +0.170 A 
ATOM      4  C   LIG    1       -0.074  -3.573  -1.833  0.00  0.00    +0.100 A 
ATOM      5  C   LIG    1       -1.077  -4.296  -2.513  0.00  0.00    +0.150 A 
ATOM      6  N   LIG    1       -0.974  -5.616  -2.353  0.00  0.00    -0.173 NA
ATOM      7  N   LIG    1        0.115  -5.768  -1.565  0.00  0.00    -0.221 N 
ATOM      8  C   LIG    1        0.684  -6.955  -1.145  0.00  0.00    +0.118 A 
ATOM      9  C   LIG    1        1.761  -6.939  -0.354  0.00  0.00    +0.063 A 
ENDROOT
BRANCH   1  11
ATOM     10  C   LIG    1        4.055  -4.274   1.338  0.00  0.00    +0.108 C 
ATOM     11  N   LIG    1        3.444  -5.531   0.865  0.00  0.00    -0.308 N 
ATOM     12  C   LIG    1        4.310  -6.653   1.190  0.00  0.00    +0.107 C 
ATOM     13  C   LIG    1        5.704  -6.077   1.065  0.00  0.00    +0.021 C 
ATOM     14  C   LIG    1        5.560  -4.615   1.461  0.00  0.00    +0.029 C 
BRANCH  10  18
ATOM     15  F   LIG    1        0.843  -4.584   5.066  0.00  0.00    -0.205 F 
ATOM     16  C   LIG    1        1.864  -3.941   4.485  0.00  0.00    +0.124 A 
ATOM     17  C   LIG    1        2.390  -4.436   3.293  0.00  0.00    +0.046 A 
ATOM     18  C   LIG    1        3.460  -3.787   2.654  0.00  0.00    +0.011 A 
ATOM     19  C   LIG    1        3.958  -2.623   3.263  0.00  0.00    +0.129 A 
ATOM     20  F   LIG    1        4.967  -1.952   2.689  0.00  0.00    -0.205 F 
ATOM     21  C   LIG    1        3.432  -2.129   4.461  0.00  0.00    +0.041 A 
ATOM     22  C   LIG    1        2.375  -2.794   5.077  0.00  0.00    +0.041 A 
ENDBRANCH  10  18
ENDBRANCH   1  11
BRANCH   4  23
ATOM     23  C   LIG    1        0.123  -2.136  -1.855  0.00  0.00    +0.249 C 
ATOM     24  N   LIG    1        1.224  -1.687  -1.157  0.00  0.00    -0.310 N 
ATOM     25  H   LIG    1        1.773  -2.386  -0.658  0.00  0.00    +0.149 HD
ATOM     26  O   LIG    1       -0.621  -1.387  -2.470  0.00  0.00    -0.270 OA
BRANCH  24  27
ATOM     27  C   LIG    1        1.655  -0.302  -1.196  0.00  0.00    +0.126 C 
BRANCH  27  28
ATOM     28  C   LIG    1        1.040   0.537  -0.078  0.00  0.00    +0.141 C 
BRANCH  28  29
ATOM     29  N   LIG    1        1.476   1.919  -0.123  0.00  0.00    -0.335 N 
ATOM     30  C   LIG    1        2.584   2.432   0.489  0.00  0.00    +0.199 A 
ATOM     31  N   LIG    1        2.716   3.716   0.244  0.00  0.00    -0.244 NA
ATOM     32  C   LIG    1        1.636   4.049  -0.533  0.00  0.00    +0.130 A 
ATOM     33  C   LIG    1        0.841   2.949  -0.758  0.00  0.00    +0.107 A 
ENDBRANCH  28  29
ENDBRANCH  27  28
ENDBRANCH  24  27
ENDBRANCH   4  23
TORSDOF 6
