REMARK  Name = pdb/CHEMBL3898571.pdb
REMARK                            x       y       z     vdW  Elec       q    Type
REMARK                         _______ _______ _______ _____ _____    ______ ____
ROOT
ATOM      1  C   LIG    1        3.436  -5.564  -1.176  0.00  0.00    +0.131 C 
ATOM      2  N   LIG    1        2.160  -5.640  -0.764  0.00  0.00    -0.141 NA
ATOM      3  N   LIG    1        1.845  -6.956  -0.800  0.00  0.00    -0.201 N 
ATOM      4  C   LIG    1        2.984  -7.752  -0.997  0.00  0.00    +0.185 C 
ATOM      5  C   LIG    1        3.971  -6.865  -1.366  0.00  0.00    +0.056 C 
ENDROOT
BRANCH   3   6
ATOM      6  C   LIG    1        0.495  -7.361  -0.608  0.00  0.00    +0.052 A 
ATOM      7  C   LIG    1        0.011  -8.555  -1.154  0.00  0.00    +0.025 A 
ATOM      8  C   LIG    1       -1.334  -8.901  -0.999  0.00  0.00    +0.002 A 
ATOM      9  C   LIG    1       -2.200  -8.061  -0.300  0.00  0.00    +0.000 A 
ATOM     10  C   LIG    1       -1.724  -6.873   0.251  0.00  0.00    +0.002 A 
ATOM     11  C   LIG    1       -0.384  -6.515   0.088  0.00  0.00    +0.025 A 
ENDBRANCH   3   6
BRANCH   4  12
ATOM     12  N   LIG    1        3.092  -9.138  -0.773  0.00  0.00    -0.282 N 
ATOM     13  H   LIG    1        2.284  -9.622  -0.435  0.00  0.00    +0.152 HD
ATOM     14  C   LIG    1        4.329  -9.878  -0.875  0.00  0.00    +0.247 C 
ATOM     15  O   LIG    1        5.362  -9.305  -1.201  0.00  0.00    -0.270 OA
BRANCH  14  16
ATOM     16  C   LIG    1        4.373 -11.297  -0.491  0.00  0.00    +0.056 A 
ATOM     17  C   LIG    1        3.357 -12.196  -0.791  0.00  0.00    +0.056 A 
ATOM     18 CL   LIG    1        1.979 -11.785  -1.740  0.00  0.00    -0.083 Cl
ATOM     19  C   LIG    1        3.458 -13.520  -0.361  0.00  0.00    +0.059 A 
ATOM     20  C   LIG    1        4.592 -13.952   0.327  0.00  0.00    +0.134 A 
ATOM     21  F   LIG    1        4.578 -15.213   0.778  0.00  0.00    -0.205 F 
ATOM     22  C   LIG    1        5.688 -13.114   0.563  0.00  0.00    +0.039 A 
ATOM     23  C   LIG    1        5.538 -11.762   0.163  0.00  0.00    +0.027 A 
BRANCH  22  24
ATOM     24  C   LIG    1        6.943 -13.594   1.193  0.00  0.00    +0.109 A 
ATOM     25  C   LIG    1        7.413 -14.909   1.095  0.00  0.00    +0.149 A 
ATOM     26  F   LIG    1        6.779 -15.840   0.369  0.00  0.00    -0.203 F 
ATOM     27  C   LIG    1        8.599 -15.278   1.720  0.00  0.00    +0.042 A 
ATOM     28  C   LIG    1        9.322 -14.321   2.415  0.00  0.00    +0.023 A 
ATOM     29  C   LIG    1        8.821 -13.030   2.453  0.00  0.00    +0.111 A 
ATOM     30  N   LIG    1        7.658 -12.646   1.864  0.00  0.00    -0.252 NA
ENDBRANCH  22  24
ENDBRANCH  14  16
ENDBRANCH   4  12
BRANCH   1  32
ATOM     31  N   LIG    1        5.161  -4.197  -2.097  0.00  0.00    -0.243 NA
ATOM     32  C   LIG    1        4.140  -4.285  -1.320  0.00  0.00    +0.233 C 
BRANCH  32  33
ATOM     33  O   LIG    1        3.643  -3.285  -0.559  0.00  0.00    -0.491 OA
ATOM     34  H   LIG    1        4.274  -2.546  -0.469  0.00  0.00    +0.294 HD
ENDBRANCH  32  33
BRANCH  31  35
ATOM     35  C   LIG    1        5.785  -2.889  -2.337  0.00  0.00    +0.200 C 
BRANCH  35  38
ATOM     36  C   LIG    1        6.311  -1.044   0.798  0.00  0.00    +0.116 A 
ATOM     37  N   LIG    1        5.723  -1.566  -0.293  0.00  0.00    -0.235 NA
ATOM     38  C   LIG    1        6.497  -2.303  -1.140  0.00  0.00    +0.065 A 
ATOM     39  C   LIG    1        7.837  -2.571  -0.895  0.00  0.00    +0.025 A 
ATOM     40  C   LIG    1        8.420  -2.026   0.242  0.00  0.00    +0.005 A 
ATOM     41  C   LIG    1        7.649  -1.243   1.096  0.00  0.00    +0.043 A 
BRANCH  36  42
ATOM     42  N   LIG    1        5.514  -0.252   1.616  0.00  0.00    -0.343 N 
ATOM     43  H   LIG    1        4.565  -0.260   1.253  0.00  0.00    +0.144 HD
ATOM     44  H   LIG    1        5.552  -0.543   2.585  0.00  0.00    +0.144 HD
ENDBRANCH  36  42
ENDBRANCH  35  38
ENDBRANCH  31  35
ENDBRANCH   1  32
TORSDOF 9
