REMARK  Name = pdb/CHEMBL3896203.pdb
REMARK                            x       y       z     vdW  Elec       q    Type
REMARK                         _______ _______ _______ _____ _____    ______ ____
ROOT
ATOM      1  C   LIG    1        1.728   2.497   1.267  0.00  0.00    +0.105 A 
ATOM      2  C   LIG    1        2.631   3.530   1.096  0.00  0.00    +0.145 A 
ATOM      3  N   LIG    1        2.295   4.838   1.073  0.00  0.00    -0.201 NA
ATOM      4  C   LIG    1        0.980   5.111   1.190  0.00  0.00    +0.323 A 
ATOM      5  N   LIG    1        0.024   4.209   1.452  0.00  0.00    -0.201 NA
ATOM      6  C   LIG    1        0.442   2.930   1.532  0.00  0.00    +0.145 A 
ENDROOT
BRANCH   1   8
ATOM      7  C   LIG    1        1.432   0.138   1.003  0.00  0.00    +0.285 C 
ATOM      8  N   LIG    1        2.151   1.166   1.305  0.00  0.00    -0.196 NA
BRANCH   7   9
ATOM      9  O   LIG    1        0.219   0.221   0.426  0.00  0.00    -0.481 OA
ATOM     10  H   LIG    1        0.078   1.074  -0.008  0.00  0.00    +0.295 HD
ENDBRANCH   7   9
BRANCH   7  11
ATOM     11  N   LIG    1        1.722  -1.177   1.180  0.00  0.00    -0.267 N 
ATOM     12  H   LIG    1        0.896  -1.762   1.185  0.00  0.00    +0.157 HD
BRANCH  11  13
ATOM     13  C   LIG    1        2.874  -1.766   1.746  0.00  0.00    +0.061 A 
ATOM     14  C   LIG    1        3.045  -3.167   1.823  0.00  0.00    +0.092 A 
ATOM     15  N   LIG    1        4.146  -3.721   2.418  0.00  0.00    -0.253 NA
ATOM     16  C   LIG    1        5.121  -2.913   2.891  0.00  0.00    +0.124 A 
ATOM     17  C   LIG    1        5.092  -1.542   2.788  0.00  0.00    +0.075 A 
ATOM     18  C   LIG    1        3.955  -0.984   2.197  0.00  0.00    +0.039 A 
BRANCH  14  19
ATOM     19  C   LIG    1        2.087  -4.190   1.308  0.00  0.00    +0.002 A 
ATOM     20  C   LIG    1        1.323  -4.026   0.136  0.00  0.00    +0.010 A 
ATOM     21  C   LIG    1        0.427  -5.016  -0.299  0.00  0.00    +0.001 A 
ATOM     22  C   LIG    1        0.306  -6.214   0.399  0.00  0.00    +0.000 A 
ATOM     23  C   LIG    1        1.083  -6.427   1.531  0.00  0.00    +0.001 A 
ATOM     24  C   LIG    1        1.952  -5.426   1.978  0.00  0.00    +0.010 A 
ENDBRANCH  14  19
BRANCH  17  25
ATOM     25  C   LIG    1        6.226  -0.700   3.297  0.00  0.00    +0.419 C 
ATOM     26  F   LIG    1        7.406  -0.981   2.683  0.00  0.00    -0.166 F 
ATOM     27  F   LIG    1        6.440  -0.860   4.630  0.00  0.00    -0.166 F 
ATOM     28  F   LIG    1        6.014   0.633   3.109  0.00  0.00    -0.166 F 
ENDBRANCH  17  25
ENDBRANCH  11  13
ENDBRANCH   7  11
ENDBRANCH   1   8
BRANCH   4  29
ATOM     29  O   LIG    1        0.534   6.412   1.000  0.00  0.00    -0.424 OA
BRANCH  29  30
ATOM     30  C   LIG    1        1.290   7.207   0.171  0.00  0.00    +0.132 A 
ATOM     31  C   LIG    1        1.866   6.740  -1.011  0.00  0.00    +0.047 A 
ATOM     32  C   LIG    1        2.662   7.582  -1.780  0.00  0.00    +0.012 A 
ATOM     33  C   LIG    1        2.847   8.926  -1.424  0.00  0.00    -0.010 A 
ATOM     34  C   LIG    1        2.213   9.399  -0.263  0.00  0.00    +0.012 A 
ATOM     35  C   LIG    1        1.439   8.544   0.531  0.00  0.00    +0.047 A 
BRANCH  33  36
ATOM     36  C   LIG    1        3.678   9.810  -2.246  0.00  0.00    +0.041 A 
ATOM     37  S   LIG    1        3.798   9.574  -3.943  0.00  0.00    -0.052 S 
ATOM     38  C   LIG    1        4.880  10.880  -4.071  0.00  0.00    +0.168 A 
ATOM     39  N   LIG    1        5.104  11.540  -2.956  0.00  0.00    -0.232 NA
ATOM     40  C   LIG    1        4.451  10.906  -1.909  0.00  0.00    +0.129 A 
BRANCH  38  41
ATOM     41  N   LIG    1        5.397  11.240  -5.297  0.00  0.00    -0.250 N 
ATOM     42  C   LIG    1        5.486  10.377  -6.399  0.00  0.00    +0.221 C 
ATOM     43  O   LIG    1        5.142   9.219  -6.521  0.00  0.00    -0.275 OA
ATOM     44  C   LIG    1        6.223  11.125  -7.487  0.00  0.00    +0.098 C 
ATOM     45  C   LIG    1        6.125  12.573  -7.047  0.00  0.00    +0.029 C 
ATOM     46  C   LIG    1        6.098  12.473  -5.537  0.00  0.00    +0.116 C 
ENDBRANCH  38  41
ENDBRANCH  33  36
ENDBRANCH  29  30
ENDBRANCH   4  29
TORSDOF 10
