REMARK  Name = pdb/CHEMBL3675931.pdb
REMARK                            x       y       z     vdW  Elec       q    Type
REMARK                         _______ _______ _______ _____ _____    ______ ____
ROOT
ATOM      1  C   LIG    1        3.179  -1.775   0.001  0.00  0.00    +0.126 A 
ATOM      2  N   LIG    1        2.976  -0.720  -0.763  0.00  0.00    -0.212 NA
ATOM      3  C   LIG    1        2.516  -0.928  -2.038  0.00  0.00    +0.170 A 
ATOM      4  C   LIG    1        2.244  -0.049  -3.072  0.00  0.00    +0.100 A 
ATOM      5  C   LIG    1        1.903  -0.890  -4.152  0.00  0.00    +0.150 A 
ATOM      6  N   LIG    1        1.870  -2.184  -3.824  0.00  0.00    -0.173 NA
ATOM      7  N   LIG    1        2.234  -2.205  -2.521  0.00  0.00    -0.221 N 
ATOM      8  C   LIG    1        2.337  -3.306  -1.687  0.00  0.00    +0.118 A 
ATOM      9  C   LIG    1        2.792  -3.164  -0.436  0.00  0.00    +0.063 A 
ENDROOT
BRANCH   1  11
ATOM     10  C   LIG    1        4.525  -2.510   2.031  0.00  0.00    +0.105 C 
ATOM     11  N   LIG    1        3.747  -1.557   1.241  0.00  0.00    -0.308 N 
ATOM     12  C   LIG    1        3.354  -0.410   2.059  0.00  0.00    +0.107 C 
ATOM     13  C   LIG    1        3.504  -0.909   3.489  0.00  0.00    +0.021 C 
ATOM     14  C   LIG    1        4.706  -1.830   3.397  0.00  0.00    +0.029 C 
BRANCH  10  16
ATOM     15  C   LIG    1        6.787  -2.162   0.721  0.00  0.00    -0.017 A 
ATOM     16  C   LIG    1        5.868  -2.952   1.458  0.00  0.00    -0.019 A 
ATOM     17  C   LIG    1        6.264  -4.267   1.804  0.00  0.00    +0.044 A 
ATOM     18  C   LIG    1        7.502  -4.782   1.432  0.00  0.00    +0.124 A 
ATOM     19  F   LIG    1        7.834  -6.027   1.797  0.00  0.00    -0.205 F 
ATOM     20  C   LIG    1        8.397  -4.019   0.709  0.00  0.00    +0.039 A 
ATOM     21  C   LIG    1        8.043  -2.718   0.362  0.00  0.00    +0.009 A 
BRANCH  15  22
ATOM     22  C   LIG    1        6.576  -0.721   0.327  0.00  0.00    +0.191 C 
BRANCH  22  23
ATOM     23  O   LIG    1        7.076   0.124   1.353  0.00  0.00    -0.390 OA
ATOM     24  H   LIG    1        6.963   1.034   1.029  0.00  0.00    +0.210 HD
ENDBRANCH  22  23
ENDBRANCH  15  22
ENDBRANCH  10  16
ENDBRANCH   1  11
BRANCH   4  25
ATOM     25  C   LIG    1        2.313   1.400  -3.071  0.00  0.00    +0.249 C 
ATOM     26  N   LIG    1        2.577   1.958  -1.832  0.00  0.00    -0.310 N 
ATOM     27  H   LIG    1        2.753   1.316  -1.066  0.00  0.00    +0.149 HD
ATOM     28  O   LIG    1        2.130   2.057  -4.079  0.00  0.00    -0.270 OA
BRANCH  26  29
ATOM     29  C   LIG    1        2.779   3.379  -1.626  0.00  0.00    +0.120 C 
BRANCH  29  30
ATOM     30  C   LIG    1        1.541   4.240  -1.961  0.00  0.00    +0.103 C 
BRANCH  30  31
ATOM     31  N   LIG    1        1.732   5.683  -1.702  0.00  0.00    -0.297 NA
ATOM     32  C   LIG    1        0.485   6.448  -1.961  0.00  0.00    +0.112 C 
ATOM     33  C   LIG    1        0.131   6.595  -3.453  0.00  0.00    +0.175 C 
ATOM     34  O   LIG    1        1.210   7.189  -4.187  0.00  0.00    -0.377 OA
ATOM     35  C   LIG    1        2.410   6.422  -4.033  0.00  0.00    +0.175 C 
ATOM     36  C   LIG    1        2.792   6.280  -2.550  0.00  0.00    +0.112 C 
ENDBRANCH  30  31
ENDBRANCH  29  30
ENDBRANCH  26  29
ENDBRANCH   4  25
TORSDOF 8
