REMARK  Name = pdb/CHEMBL2152287.pdb
REMARK                            x       y       z     vdW  Elec       q    Type
REMARK                         _______ _______ _______ _____ _____    ______ ____
ROOT
ATOM      1  C   LIG    1        2.106  -0.020   0.368  0.00  0.00    +0.027 A 
ATOM      2  C   LIG    1        2.745  -1.202   0.776  0.00  0.00    +0.031 A 
ATOM      3  C   LIG    1        4.135  -1.268   1.013  0.00  0.00    -0.013 A 
ATOM      4  C   LIG    1        4.857  -0.066   0.880  0.00  0.00    +0.033 A 
ATOM      5  C   LIG    1        4.219   1.132   0.547  0.00  0.00    +0.050 A 
ATOM      6  C   LIG    1        2.847   1.158   0.303  0.00  0.00    +0.047 A 
ENDROOT
BRANCH   3   7
ATOM      7  C   LIG    1        4.806  -2.544   1.383  0.00  0.00    +0.001 A 
ATOM      8  C   LIG    1        6.141  -2.816   1.024  0.00  0.00    +0.022 A 
ATOM      9  C   LIG    1        6.748  -4.034   1.407  0.00  0.00    +0.027 A 
ATOM     10  C   LIG    1        8.027  -4.667   1.233  0.00  0.00    +0.009 A 
ATOM     11  C   LIG    1        7.948  -5.897   1.870  0.00  0.00    +0.093 A 
ATOM     12  N   LIG    1        6.692  -6.030   2.402  0.00  0.00    -0.345 N 
ATOM     13  H   LIG    1        6.339  -6.822   2.920  0.00  0.00    +0.167 HD
ATOM     14  C   LIG    1        5.951  -4.918   2.123  0.00  0.00    +0.139 A 
ATOM     15  N   LIG    1        4.671  -4.755   2.494  0.00  0.00    -0.237 NA
ATOM     16  C   LIG    1        4.156  -3.559   2.100  0.00  0.00    +0.121 A 
BRANCH  10  17
ATOM     17  C   LIG    1        9.231  -4.210   0.543  0.00  0.00    -0.013 A 
ATOM     18  C   LIG    1        9.561  -2.855   0.490  0.00  0.00    +0.028 A 
ATOM     19  C   LIG    1       10.704  -2.472  -0.195  0.00  0.00    +0.111 A 
ATOM     20  N   LIG    1       11.535  -3.334  -0.815  0.00  0.00    -0.263 NA
ATOM     21  C   LIG    1       11.210  -4.641  -0.741  0.00  0.00    +0.111 A 
ATOM     22  C   LIG    1       10.086  -5.120  -0.087  0.00  0.00    +0.028 A 
ENDBRANCH  10  17
ENDBRANCH   3   7
BRANCH   1  23
ATOM     23  N   LIG    1        0.709   0.016   0.246  0.00  0.00    -0.358 N 
ATOM     24  H   LIG    1        0.297  -0.877  -0.008  0.00  0.00    +0.142 HD
ATOM     25  H   LIG    1        0.369   0.766  -0.350  0.00  0.00    +0.142 HD
ENDBRANCH   1  23
BRANCH   5  26
ATOM     26  N   LIG    1        4.993   2.323   0.375  0.00  0.00    -0.216 N 
ATOM     27  H   LIG    1        4.520   3.182   0.660  0.00  0.00    +0.174 HD
BRANCH  26  28
ATOM     28  S   LIG    1        5.646   2.579  -1.177  0.00  0.00    +0.075 S 
ATOM     29  O   LIG    1        5.365   3.959  -1.522  0.00  0.00    -0.150 OA
ATOM     30  O   LIG    1        5.266   1.498  -2.055  0.00  0.00    -0.150 OA
BRANCH  28  31
ATOM     31  C   LIG    1        7.384   2.453  -0.891  0.00  0.00    +0.144 A 
ATOM     32  C   LIG    1        8.001   3.343  -0.020  0.00  0.00    +0.153 A 
ATOM     33  F   LIG    1        7.300   4.292   0.615  0.00  0.00    -0.203 F 
ATOM     34  C   LIG    1        9.370   3.258   0.219  0.00  0.00    +0.078 A 
ATOM     35  C   LIG    1       10.112   2.279  -0.432  0.00  0.00    +0.126 A 
ATOM     36  F   LIG    1       11.426   2.180  -0.195  0.00  0.00    -0.205 F 
ATOM     37  C   LIG    1        9.511   1.395  -1.325  0.00  0.00    +0.040 A 
ATOM     38  C   LIG    1        8.137   1.479  -1.560  0.00  0.00    +0.034 A 
ENDBRANCH  28  31
ENDBRANCH  26  28
ENDBRANCH   5  26
TORSDOF 6
