REMARK  Name = pdb/CHEMBL3675932.pdb
REMARK                            x       y       z     vdW  Elec       q    Type
REMARK                         _______ _______ _______ _____ _____    ______ ____
ROOT
ATOM      1  C   LIG    1        6.234  -2.148   4.351  0.00  0.00    +0.100 A 
ATOM      2  C   LIG    1        6.798  -1.538   5.462  0.00  0.00    +0.170 A 
ATOM      3  N   LIG    1        7.093  -0.231   5.753  0.00  0.00    -0.212 NA
ATOM      4  C   LIG    1        7.733   0.004   6.878  0.00  0.00    +0.126 A 
ATOM      5  C   LIG    1        8.151  -1.076   7.836  0.00  0.00    +0.063 A 
ATOM      6  C   LIG    1        7.804  -2.326   7.519  0.00  0.00    +0.118 A 
ATOM      7  N   LIG    1        7.114  -2.580   6.345  0.00  0.00    -0.221 N 
ATOM      8  N   LIG    1        6.693  -3.782   5.892  0.00  0.00    -0.173 NA
ATOM      9  C   LIG    1        6.179  -3.515   4.695  0.00  0.00    +0.150 A 
ENDROOT
BRANCH   4  10
ATOM     10  N   LIG    1        8.059   1.303   7.228  0.00  0.00    -0.308 N 
ATOM     11  C   LIG    1        6.967   2.168   7.734  0.00  0.00    +0.105 C 
ATOM     12  C   LIG    1        7.101   3.472   6.936  0.00  0.00    +0.029 C 
ATOM     13  C   LIG    1        8.567   3.526   6.550  0.00  0.00    +0.021 C 
ATOM     14  C   LIG    1        8.906   2.067   6.301  0.00  0.00    +0.107 C 
BRANCH  11  15
ATOM     15  C   LIG    1        7.059   2.349   9.251  0.00  0.00    -0.019 A 
ATOM     16  C   LIG    1        5.918   2.579  10.065  0.00  0.00    -0.017 A 
ATOM     17  C   LIG    1        6.077   2.722  11.463  0.00  0.00    +0.009 A 
ATOM     18  C   LIG    1        7.329   2.621  12.065  0.00  0.00    +0.039 A 
ATOM     19  C   LIG    1        8.438   2.399  11.271  0.00  0.00    +0.124 A 
ATOM     20  F   LIG    1        9.647   2.298  11.838  0.00  0.00    -0.205 F 
ATOM     21  C   LIG    1        8.317   2.275   9.890  0.00  0.00    +0.044 A 
BRANCH  16  22
ATOM     22  C   LIG    1        4.508   2.706   9.534  0.00  0.00    +0.191 C 
BRANCH  22  23
ATOM     23  O   LIG    1        4.188   4.064   9.276  0.00  0.00    -0.390 OA
ATOM     24  H   LIG    1        4.966   4.489   8.881  0.00  0.00    +0.210 HD
ENDBRANCH  22  23
ENDBRANCH  16  22
ENDBRANCH  11  15
ENDBRANCH   4  10
BRANCH   1  27
ATOM     25  N   LIG    1        5.895  -0.219   2.955  0.00  0.00    -0.309 N 
ATOM     26  H   LIG    1        6.323   0.304   3.719  0.00  0.00    +0.149 HD
ATOM     27  C   LIG    1        5.791  -1.581   3.100  0.00  0.00    +0.249 C 
ATOM     28  O   LIG    1        5.333  -2.300   2.202  0.00  0.00    -0.270 OA
BRANCH  25  29
ATOM     29  C   LIG    1        5.536   0.444   1.705  0.00  0.00    +0.138 C 
BRANCH  29  30
ATOM     30  C   LIG    1        4.067   0.904   1.656  0.00  0.00    +0.157 C 
BRANCH  30  31
ATOM     31  O   LIG    1        3.820   1.868   2.694  0.00  0.00    -0.388 OA
ATOM     32  H   LIG    1        4.190   1.496   3.514  0.00  0.00    +0.210 HD
ENDBRANCH  30  31
BRANCH  30  33
ATOM     33  C   LIG    1        3.077  -0.260   1.790  0.00  0.00    +0.188 C 
BRANCH  33  34
ATOM     34  O   LIG    1        1.732   0.204   1.676  0.00  0.00    -0.392 OA
ATOM     35  H   LIG    1        1.628   0.896   2.356  0.00  0.00    +0.210 HD
ENDBRANCH  33  34
ENDBRANCH  30  33
ENDBRANCH  29  30
ENDBRANCH  25  29
ENDBRANCH   1  27
TORSDOF 10
