REMARK  Name = pdb/CHEMBL3676064.pdb
REMARK                            x       y       z     vdW  Elec       q    Type
REMARK                         _______ _______ _______ _____ _____    ______ ____
ROOT
ATOM      1  C   LIG    1       -4.172   5.868   1.166  0.00  0.00    +0.126 A 
ATOM      2  N   LIG    1       -3.105   5.226   0.737  0.00  0.00    -0.212 NA
ATOM      3  C   LIG    1       -1.949   5.324   1.465  0.00  0.00    +0.170 A 
ATOM      4  C   LIG    1       -0.699   4.750   1.301  0.00  0.00    +0.100 A 
ATOM      5  C   LIG    1        0.055   5.255   2.381  0.00  0.00    +0.150 A 
ATOM      6  N   LIG    1       -0.638   6.073   3.174  0.00  0.00    -0.173 NA
ATOM      7  N   LIG    1       -1.872   6.105   2.619  0.00  0.00    -0.221 N 
ATOM      8  C   LIG    1       -2.984   6.794   3.076  0.00  0.00    +0.118 A 
ATOM      9  C   LIG    1       -4.146   6.714   2.417  0.00  0.00    +0.063 A 
ENDROOT
BRANCH   1  11
ATOM     10  C   LIG    1       -6.626   5.386   1.106  0.00  0.00    +0.107 C 
ATOM     11  N   LIG    1       -5.353   5.780   0.435  0.00  0.00    -0.308 N 
ATOM     12  C   LIG    1       -5.329   5.225  -0.925  0.00  0.00    +0.107 C 
ATOM     13  C   LIG    1       -6.165   3.968  -0.823  0.00  0.00    +0.021 C 
ATOM     14  C   LIG    1       -7.279   4.381   0.130  0.00  0.00    +0.029 C 
BRANCH  10  17
ATOM     15  C   LIG    1       -8.587   5.553   3.500  0.00  0.00    +0.066 C 
ATOM     16  C   LIG    1       -8.421   6.646   2.484  0.00  0.00    +0.043 A 
ATOM     17  C   LIG    1       -7.520   6.586   1.401  0.00  0.00    -0.003 A 
ATOM     18  C   LIG    1       -7.480   7.715   0.560  0.00  0.00    +0.047 A 
ATOM     19  C   LIG    1       -8.278   8.820   0.817  0.00  0.00    +0.142 A 
ATOM     20  F   LIG    1       -8.220   9.896   0.024  0.00  0.00    -0.204 F 
ATOM     21  C   LIG    1       -9.120   8.791   1.903  0.00  0.00    +0.149 A 
ATOM     22  N   LIG    1       -9.209   7.731   2.734  0.00  0.00    -0.257 NA
ENDBRANCH  10  17
ENDBRANCH   1  11
BRANCH   4  23
ATOM     23  C   LIG    1       -0.234   3.843   0.276  0.00  0.00    +0.249 C 
ATOM     24  N   LIG    1       -1.149   3.489  -0.686  0.00  0.00    -0.306 N 
ATOM     25  H   LIG    1       -2.087   3.877  -0.596  0.00  0.00    +0.149 HD
ATOM     26  O   LIG    1        0.920   3.398   0.277  0.00  0.00    -0.270 OA
BRANCH  24  27
ATOM     27  C   LIG    1       -0.794   2.627  -1.804  0.00  0.00    +0.102 C 
ATOM     28  C   LIG    1       -0.382   1.211  -1.342  0.00  0.00    +0.135 C 
ATOM     29  C   LIG    1       -0.885   0.293  -2.444  0.00  0.00    +0.033 C 
ATOM     30  C   LIG    1       -2.217   0.915  -2.821  0.00  0.00    +0.004 C 
ATOM     31  C   LIG    1       -1.952   2.419  -2.791  0.00  0.00    +0.025 C 
BRANCH  28  32
ATOM     32  O   LIG    1        1.025   1.083  -1.199  0.00  0.00    -0.390 OA
ATOM     33  H   LIG    1        1.319   1.863  -0.678  0.00  0.00    +0.210 HD
ENDBRANCH  28  32
ENDBRANCH  24  27
ENDBRANCH   4  23
TORSDOF 5
