REMARK  Name = pdb/CHEMBL3984178.pdb
REMARK                            x       y       z     vdW  Elec       q    Type
REMARK                         _______ _______ _______ _____ _____    ______ ____
ROOT
ATOM      1  C   LIG    1       -0.584  -4.566  -0.018  0.00  0.00    +0.149 A 
ATOM      2  N   LIG    1       -1.349  -5.609  -0.380  0.00  0.00    -0.160 NA
ATOM      3  N   LIG    1       -0.559  -6.695  -0.234  0.00  0.00    -0.218 N 
ATOM      4  C   LIG    1        0.767  -6.315  -0.017  0.00  0.00    +0.129 A 
ATOM      5  C   LIG    1        0.757  -4.954   0.134  0.00  0.00    +0.078 A 
ENDROOT
BRANCH   3   6
ATOM      6  C   LIG    1       -1.144  -7.991  -0.306  0.00  0.00    +0.067 A 
ATOM      7  C   LIG    1       -0.642  -9.067   0.436  0.00  0.00    +0.028 A 
ATOM      8  C   LIG    1       -1.264 -10.320   0.363  0.00  0.00    +0.002 A 
ATOM      9  C   LIG    1       -2.389 -10.505  -0.440  0.00  0.00    +0.000 A 
ATOM     10  C   LIG    1       -2.907  -9.434  -1.162  0.00  0.00    +0.002 A 
ATOM     11  C   LIG    1       -2.299  -8.178  -1.085  0.00  0.00    +0.028 A 
ENDBRANCH   3   6
BRANCH   4  12
ATOM     12  N   LIG    1        1.893  -7.132  -0.022  0.00  0.00    -0.266 N 
ATOM     13  H   LIG    1        1.733  -8.114  -0.206  0.00  0.00    +0.157 HD
ATOM     14  C   LIG    1        3.242  -6.650   0.141  0.00  0.00    +0.251 C 
ATOM     15  O   LIG    1        3.484  -5.474   0.296  0.00  0.00    -0.270 OA
BRANCH  14  16
ATOM     16  C   LIG    1        4.328  -7.680   0.109  0.00  0.00    +0.056 A 
ATOM     17  C   LIG    1        4.143  -9.036  -0.049  0.00  0.00    +0.054 A 
ATOM     18 CL   LIG    1        2.622  -9.827  -0.233  0.00  0.00    -0.083 Cl
ATOM     19  C   LIG    1        5.240  -9.887  -0.088  0.00  0.00    +0.041 A 
ATOM     20  C   LIG    1        6.544  -9.399   0.044  0.00  0.00    +0.052 A 
ATOM     21 CL   LIG    1        7.770 -10.602  -0.152  0.00  0.00    -0.083 Cl
ATOM     22  C   LIG    1        6.793  -8.031   0.258  0.00  0.00    +0.019 A 
ATOM     23  C   LIG    1        5.652  -7.182   0.263  0.00  0.00    +0.026 A 
BRANCH  22  24
ATOM     24  C   LIG    1        8.129  -7.413   0.463  0.00  0.00    +0.073 A 
ATOM     25  N   LIG    1        8.222  -6.114   0.066  0.00  0.00    -0.252 NA
ATOM     26  C   LIG    1        9.400  -5.465   0.258  0.00  0.00    +0.149 A 
ATOM     27  C   LIG    1       10.512  -6.057   0.819  0.00  0.00    +0.141 A 
ATOM     28  F   LIG    1       11.650  -5.372   0.976  0.00  0.00    -0.204 F 
ATOM     29  C   LIG    1       10.422  -7.371   1.232  0.00  0.00    +0.042 A 
ATOM     30  C   LIG    1        9.211  -8.049   1.076  0.00  0.00    +0.031 A 
ENDBRANCH  22  24
ENDBRANCH  14  16
ENDBRANCH   4  12
BRANCH   1  32
ATOM     31  N   LIG    1       -0.520  -2.386   0.934  0.00  0.00    -0.208 NA
ATOM     32  C   LIG    1       -1.139  -3.236   0.179  0.00  0.00    +0.241 C 
BRANCH  31  35
ATOM     33  C   LIG    1       -1.817  -0.405  -1.348  0.00  0.00    +0.070 C 
ATOM     34  C   LIG    1       -1.524  -0.189   0.090  0.00  0.00    +0.085 A 
ATOM     35  C   LIG    1       -1.018  -1.087   1.065  0.00  0.00    +0.108 A 
ATOM     36  C   LIG    1       -0.965  -0.362   2.231  0.00  0.00    +0.133 A 
ATOM     37  N   LIG    1       -1.419   0.886   1.911  0.00  0.00    -0.282 N 
ATOM     38  H   LIG    1       -1.495   1.704   2.508  0.00  0.00    +0.188 HD
ATOM     39  N   LIG    1       -1.805   1.004   0.632  0.00  0.00    -0.177 NA
ENDBRANCH  31  35
BRANCH  32  40
ATOM     40  O   LIG    1       -2.323  -3.060  -0.441  0.00  0.00    -0.491 OA
ATOM     41  H   LIG    1       -2.813  -2.332  -0.042  0.00  0.00    +0.294 HD
ENDBRANCH  32  40
ENDBRANCH   1  32
TORSDOF 7
