REMARK  Name = pdb/CHEMBL3661616.pdb
REMARK                            x       y       z     vdW  Elec       q    Type
REMARK                         _______ _______ _______ _____ _____    ______ ____
ROOT
ATOM      1  C   LIG    1        1.939   5.563  -1.005  0.00  0.00    +0.042 A 
ATOM      2  C   LIG    1        2.459   6.573  -0.184  0.00  0.00    +0.038 A 
ATOM      3  C   LIG    1        1.603   7.491   0.432  0.00  0.00    +0.052 A 
ATOM      4  C   LIG    1        0.239   7.357   0.174  0.00  0.00    +0.134 A 
ATOM      5  N   LIG    1       -0.295   6.394  -0.623  0.00  0.00    -0.261 NA
ATOM      6  C   LIG    1        0.563   5.512  -1.180  0.00  0.00    +0.122 A 
ENDROOT
BRANCH   3   7
ATOM      7  N   LIG    1        2.178   8.475   1.268  0.00  0.00    -0.284 N 
ATOM      8  H   LIG    1        3.188   8.467   1.343  0.00  0.00    +0.155 HD
ATOM      9  C   LIG    1        1.501   9.452   1.978  0.00  0.00    +0.222 C 
ATOM     10  O   LIG    1        0.281   9.602   2.005  0.00  0.00    -0.275 OA
BRANCH   9  11
ATOM     11  C   LIG    1        2.420  10.397   2.741  0.00  0.00    +0.131 C 
BRANCH  11  12
ATOM     12  C   LIG    1        2.838  11.589   1.912  0.00  0.00    -0.038 A 
ATOM     13  C   LIG    1        4.189  11.820   1.611  0.00  0.00    +0.016 A 
ATOM     14  C   LIG    1        4.577  12.924   0.829  0.00  0.00    +0.055 A 
ATOM     15  C   LIG    1        3.592  13.803   0.357  0.00  0.00    +0.012 A 
ATOM     16  C   LIG    1        2.249  13.585   0.658  0.00  0.00    +0.001 A 
ATOM     17  C   LIG    1        1.875  12.488   1.432  0.00  0.00    +0.004 A 
BRANCH  14  18
ATOM     18  C   LIG    1        6.032  13.151   0.501  0.00  0.00    +0.417 C 
ATOM     19  F   LIG    1        6.576  12.105  -0.183  0.00  0.00    -0.166 F 
ATOM     20  F   LIG    1        6.801  13.308   1.614  0.00  0.00    -0.166 F 
ATOM     21  F   LIG    1        6.255  14.254  -0.267  0.00  0.00    -0.166 F 
ENDBRANCH  14  18
ENDBRANCH  11  12
ENDBRANCH   9  11
ENDBRANCH   3   7
BRANCH   1  22
ATOM     22  C   LIG    1        2.835   4.535  -1.575  0.00  0.00    +0.197 C 
ATOM     23  O   LIG    1        3.839   4.215  -0.924  0.00  0.00    -0.287 OA
BRANCH  22  31
ATOM     24  N   LIG    1        1.817   3.593  -4.982  0.00  0.00    -0.323 N 
ATOM     25  C   LIG    1        2.461   2.435  -4.587  0.00  0.00    +0.145 A 
ATOM     26  N   LIG    1        2.624   1.325  -5.327  0.00  0.00    -0.218 NA
ATOM     27  C   LIG    1        3.361   0.388  -4.713  0.00  0.00    +0.223 A 
ATOM     28  N   LIG    1        3.890   0.440  -3.480  0.00  0.00    -0.243 NA
ATOM     29  C   LIG    1        3.680   1.562  -2.754  0.00  0.00    +0.124 A 
ATOM     30  C   LIG    1        2.947   2.619  -3.300  0.00  0.00    +0.048 A 
ATOM     31  C   LIG    1        2.533   3.910  -2.856  0.00  0.00    +0.051 A 
ATOM     32  C   LIG    1        1.830   4.470  -3.913  0.00  0.00    +0.100 A 
BRANCH  24  34
ATOM     33  C   LIG    1        1.972   3.107  -7.437  0.00  0.00    +0.036 C 
ATOM     34  C   LIG    1        1.240   3.886  -6.319  0.00  0.00    +0.064 C 
ATOM     35  C   LIG    1        1.386   5.386  -6.683  0.00  0.00    +0.036 C 
BRANCH  34  36
ATOM     36  C   LIG    1       -0.265   3.519  -6.363  0.00  0.00    +0.183 C 
BRANCH  36  37
ATOM     37  O   LIG    1       -1.039   4.266  -5.425  0.00  0.00    -0.393 OA
ATOM     38  H   LIG    1       -0.950   3.827  -4.561  0.00  0.00    +0.209 HD
ENDBRANCH  36  37
ENDBRANCH  34  36
ENDBRANCH  24  34
ENDBRANCH  22  31
ENDBRANCH   1  22
TORSDOF 9
