REMARK  Name = pdb/CHEMBL3676025.pdb
REMARK                            x       y       z     vdW  Elec       q    Type
REMARK                         _______ _______ _______ _____ _____    ______ ____
ROOT
ATOM      1  C   LIG    1        2.758  -1.876  -1.295  0.00  0.00    +0.126 A 
ATOM      2  N   LIG    1        2.204  -0.853  -1.925  0.00  0.00    -0.212 NA
ATOM      3  C   LIG    1        1.106  -1.095  -2.725  0.00  0.00    +0.170 A 
ATOM      4  C   LIG    1        0.267  -0.274  -3.465  0.00  0.00    +0.100 A 
ATOM      5  C   LIG    1       -0.646  -1.156  -4.083  0.00  0.00    +0.150 A 
ATOM      6  N   LIG    1       -0.447  -2.429  -3.754  0.00  0.00    -0.173 NA
ATOM      7  N   LIG    1        0.600  -2.388  -2.904  0.00  0.00    -0.221 N 
ATOM      8  C   LIG    1        1.144  -3.454  -2.222  0.00  0.00    +0.118 A 
ATOM      9  C   LIG    1        2.183  -3.270  -1.405  0.00  0.00    +0.063 A 
ENDROOT
BRANCH   1  11
ATOM     10  C   LIG    1        4.599  -2.727   0.253  0.00  0.00    +0.110 C 
ATOM     11  N   LIG    1        3.892  -1.675  -0.510  0.00  0.00    -0.308 N 
ATOM     12  C   LIG    1        4.343  -0.354  -0.082  0.00  0.00    +0.107 C 
ATOM     13  C   LIG    1        4.875  -0.594   1.326  0.00  0.00    +0.021 C 
ATOM     14  C   LIG    1        5.516  -1.966   1.223  0.00  0.00    +0.029 C 
BRANCH  10  16
ATOM     15  C   LIG    1        5.648  -4.985  -0.240  0.00  0.00    +0.220 A 
ATOM     16  C   LIG    1        5.399  -3.664  -0.628  0.00  0.00    +0.037 A 
ATOM     17  C   LIG    1        5.956  -3.247  -1.849  0.00  0.00    +0.050 A 
ATOM     18  C   LIG    1        6.676  -4.145  -2.624  0.00  0.00    +0.142 A 
ATOM     19  F   LIG    1        7.203  -3.762  -3.790  0.00  0.00    -0.204 F 
ATOM     20  C   LIG    1        6.837  -5.437  -2.166  0.00  0.00    +0.153 A 
ATOM     21  N   LIG    1        6.343  -5.878  -0.986  0.00  0.00    -0.218 NA
BRANCH  15  23
ATOM     22  C   LIG    1        5.471  -6.754   1.287  0.00  0.00    +0.279 C 
ATOM     23  O   LIG    1        5.157  -5.395   0.984  0.00  0.00    -0.479 OA
ENDBRANCH  15  23
ENDBRANCH  10  16
ENDBRANCH   1  11
BRANCH   4  24
ATOM     24  C   LIG    1        0.249   1.161  -3.616  0.00  0.00    +0.249 C 
ATOM     25  N   LIG    1        1.157   1.859  -2.858  0.00  0.00    -0.308 N 
ATOM     26  H   LIG    1        1.832   1.317  -2.325  0.00  0.00    +0.149 HD
ATOM     27  O   LIG    1       -0.559   1.709  -4.370  0.00  0.00    -0.270 OA
BRANCH  25  28
ATOM     28  C   LIG    1        1.223   3.301  -2.918  0.00  0.00    +0.076 C 
ATOM     29  C   LIG    1        2.300   3.901  -2.018  0.00  0.00    +0.053 C 
ATOM     30  C   LIG    1        1.861   5.356  -1.827  0.00  0.00    +0.116 C 
ATOM     31  C   LIG    1        0.386   5.425  -2.231  0.00  0.00    +0.033 C 
ATOM     32  C   LIG    1       -0.042   3.977  -2.392  0.00  0.00    +0.025 C 
BRANCH  30  33
ATOM     33  O   LIG    1        2.636   6.201  -2.667  0.00  0.00    -0.392 OA
ATOM     34  H   LIG    1        2.297   7.107  -2.566  0.00  0.00    +0.210 HD
ENDBRANCH  30  33
ENDBRANCH  25  28
ENDBRANCH   4  24
TORSDOF 6
