REMARK  Name = pdb/CHEMBL3969718.pdb
REMARK                            x       y       z     vdW  Elec       q    Type
REMARK                         _______ _______ _______ _____ _____    ______ ____
ROOT
ATOM      1  C   LIG    1        0.749   4.844  -0.505  0.00  0.00    +0.042 A 
ATOM      2  C   LIG    1        0.525   5.940  -1.368  0.00  0.00    +0.042 A 
ATOM      3  C   LIG    1       -0.778   6.224  -1.821  0.00  0.00    +0.086 A 
ATOM      4  C   LIG    1       -1.772   5.331  -1.428  0.00  0.00    +0.138 A 
ATOM      5  N   LIG    1       -1.607   4.298  -0.572  0.00  0.00    -0.260 NA
ATOM      6  C   LIG    1       -0.354   4.114  -0.112  0.00  0.00    +0.122 A 
ENDROOT
BRANCH   1   7
ATOM      7  C   LIG    1        2.129   4.561  -0.048  0.00  0.00    +0.197 C 
ATOM      8  O   LIG    1        2.878   5.509   0.041  0.00  0.00    -0.287 OA
BRANCH   7  17
ATOM      9  N   LIG    1        2.716   0.928   0.543  0.00  0.00    -0.336 N 
ATOM     10  C   LIG    1        4.009   1.417   0.693  0.00  0.00    +0.089 A 
ATOM     11  C   LIG    1        5.244   0.823   0.984  0.00  0.00    +0.165 A 
ATOM     12  F   LIG    1        5.368  -0.476   1.276  0.00  0.00    -0.202 F 
ATOM     13  C   LIG    1        6.365   1.642   0.972  0.00  0.00    +0.151 A 
ATOM     14  N   LIG    1        6.353   2.964   0.705  0.00  0.00    -0.260 NA
ATOM     15  C   LIG    1        5.163   3.551   0.456  0.00  0.00    +0.121 A 
ATOM     16  C   LIG    1        3.967   2.811   0.452  0.00  0.00    +0.032 A 
ATOM     17  C   LIG    1        2.599   3.184   0.231  0.00  0.00    +0.049 A 
ATOM     18  C   LIG    1        1.896   2.015   0.300  0.00  0.00    +0.099 A 
BRANCH   9  20
ATOM     19  C   LIG    1        2.996  -1.247  -0.619  0.00  0.00    +0.036 C 
ATOM     20  C   LIG    1        2.234  -0.483   0.482  0.00  0.00    +0.063 C 
ATOM     21  C   LIG    1        0.720  -0.569   0.096  0.00  0.00    +0.036 C 
BRANCH  20  22
ATOM     22  C   LIG    1        2.368  -1.244   1.826  0.00  0.00    +0.183 C 
BRANCH  22  23
ATOM     23  O   LIG    1        1.650  -0.617   2.885  0.00  0.00    -0.393 OA
ATOM     24  H   LIG    1        2.169   0.156   3.170  0.00  0.00    +0.209 HD
ENDBRANCH  22  23
ENDBRANCH  20  22
ENDBRANCH   9  20
ENDBRANCH   7  17
ENDBRANCH   1   7
BRANCH   3  25
ATOM     25  N   LIG    1       -0.990   7.330  -2.675  0.00  0.00    -0.214 NA
ATOM     26  C   LIG    1       -2.122   7.966  -2.661  0.00  0.00    +0.210 C 
BRANCH  26  27
ATOM     27  O   LIG    1       -3.133   7.659  -1.817  0.00  0.00    -0.494 OA
ATOM     28  H   LIG    1       -3.981   8.069  -2.069  0.00  0.00    +0.293 HD
ENDBRANCH  26  27
BRANCH  26  29
ATOM     29  C   LIG    1       -2.426   9.105  -3.586  0.00  0.00    +0.238 C 
BRANCH  29  30
ATOM     30  N   LIG    1       -3.098   8.632  -4.780  0.00  0.00    -0.262 N 
ATOM     31  N   LIG    1       -4.446   8.544  -4.802  0.00  0.00    -0.167 NA
ATOM     32  C   LIG    1       -4.731   8.132  -6.059  0.00  0.00    +0.165 A 
ATOM     33  C   LIG    1       -3.537   7.953  -6.811  0.00  0.00    +0.053 A 
ATOM     34  C   LIG    1       -2.512   8.281  -5.958  0.00  0.00    +0.109 A 
BRANCH  32  35
ATOM     35  C   LIG    1       -6.137   7.893  -6.555  0.00  0.00    +0.436 C 
ATOM     36  F   LIG    1       -6.900   9.018  -6.523  0.00  0.00    -0.164 F 
ATOM     37  F   LIG    1       -6.789   6.949  -5.826  0.00  0.00    -0.164 F 
ATOM     38  F   LIG    1       -6.152   7.458  -7.847  0.00  0.00    -0.164 F 
ENDBRANCH  32  35
ENDBRANCH  29  30
ENDBRANCH  26  29
ENDBRANCH   3  25
TORSDOF 10
