REMARK  Name = pdb/CHEMBL3675943.pdb
REMARK                            x       y       z     vdW  Elec       q    Type
REMARK                         _______ _______ _______ _____ _____    ______ ____
ROOT
ATOM      1  C   LIG    1        0.858  -0.025   0.239  0.00  0.00    +0.031 C 
ATOM      2  C   LIG    1        2.371  -0.142   0.042  0.00  0.00    +0.031 C 
ATOM      3  N   LIG    1        2.929  -1.456   0.423  0.00  0.00    -0.303 N 
ATOM      4  C   LIG    1        4.283  -1.296   1.001  0.00  0.00    +0.108 C 
ATOM      5  C   LIG    1        4.498   0.223   1.114  0.00  0.00    +0.029 C 
ATOM      6  C   LIG    1        3.097   0.806   1.013  0.00  0.00    +0.027 C 
ATOM      7  C   LIG    1        2.728   0.182  -1.416  0.00  0.00    +0.031 C 
ENDROOT
BRANCH   3   8
ATOM      8  C   LIG    1        2.160  -2.599   0.612  0.00  0.00    +0.126 A 
ATOM      9  N   LIG    1        1.427  -3.056  -0.386  0.00  0.00    -0.212 NA
ATOM     10  C   LIG    1        0.700  -4.209  -0.180  0.00  0.00    +0.170 A 
ATOM     11  C   LIG    1       -0.127  -4.958  -1.001  0.00  0.00    +0.100 A 
ATOM     12  C   LIG    1       -0.580  -6.012  -0.183  0.00  0.00    +0.150 A 
ATOM     13  N   LIG    1       -0.083  -5.969   1.052  0.00  0.00    -0.173 NA
ATOM     14  N   LIG    1        0.706  -4.872   1.050  0.00  0.00    -0.221 N 
ATOM     15  C   LIG    1        1.453  -4.388   2.107  0.00  0.00    +0.118 A 
ATOM     16  C   LIG    1        2.186  -3.281   1.960  0.00  0.00    +0.063 A 
BRANCH  11  17
ATOM     17  C   LIG    1       -0.481  -4.760  -2.389  0.00  0.00    +0.247 C 
ATOM     18  N   LIG    1        0.107  -3.701  -3.010  0.00  0.00    -0.325 N 
ATOM     19  H   LIG    1       -0.076  -3.556  -3.990  0.00  0.00    +0.145 HD
ATOM     20  H   LIG    1        0.770  -3.116  -2.512  0.00  0.00    +0.145 HD
ATOM     21  O   LIG    1       -1.254  -5.499  -2.994  0.00  0.00    -0.270 OA
ENDBRANCH  11  17
ENDBRANCH   3   8
BRANCH   4  22
ATOM     22  C   LIG    1        5.348  -2.004   0.183  0.00  0.00    +0.011 A 
ATOM     23  C   LIG    1        6.675  -2.008   0.634  0.00  0.00    +0.129 A 
ATOM     24  F   LIG    1        6.995  -1.352   1.758  0.00  0.00    -0.205 F 
ATOM     25  C   LIG    1        7.684  -2.693  -0.047  0.00  0.00    +0.041 A 
ATOM     26  C   LIG    1        7.377  -3.400  -1.208  0.00  0.00    +0.041 A 
ATOM     27  C   LIG    1        6.069  -3.398  -1.675  0.00  0.00    +0.124 A 
ATOM     28  F   LIG    1        5.766  -4.077  -2.788  0.00  0.00    -0.205 F 
ATOM     29  C   LIG    1        5.065  -2.709  -1.000  0.00  0.00    +0.046 A 
ENDBRANCH   4  22
TORSDOF 3
