REMARK  Name = pdb/CHEMBL3676092.pdb
REMARK                            x       y       z     vdW  Elec       q    Type
REMARK                         _______ _______ _______ _____ _____    ______ ____
ROOT
ATOM      1  C   LIG    1        3.800  -4.128  -1.413  0.00  0.00    +0.126 A 
ATOM      2  N   LIG    1        3.205  -3.057  -1.899  0.00  0.00    -0.212 NA
ATOM      3  C   LIG    1        2.376  -3.211  -2.991  0.00  0.00    +0.170 A 
ATOM      4  C   LIG    1        1.556  -2.341  -3.690  0.00  0.00    +0.100 A 
ATOM      5  C   LIG    1        1.019  -3.115  -4.736  0.00  0.00    +0.150 A 
ATOM      6  N   LIG    1        1.418  -4.386  -4.705  0.00  0.00    -0.173 NA
ATOM      7  N   LIG    1        2.200  -4.456  -3.604  0.00  0.00    -0.221 N 
ATOM      8  C   LIG    1        2.775  -5.593  -3.071  0.00  0.00    +0.118 A 
ATOM      9  C   LIG    1        3.541  -5.508  -1.980  0.00  0.00    +0.063 A 
ENDROOT
BRANCH   1  11
ATOM     10  C   LIG    1        5.015  -2.723   0.292  0.00  0.00    +0.110 C 
ATOM     11  N   LIG    1        4.697  -4.018  -0.351  0.00  0.00    -0.308 N 
ATOM     12  C   LIG    1        5.829  -4.940  -0.196  0.00  0.00    +0.107 C 
ATOM     13  C   LIG    1        6.977  -4.086   0.319  0.00  0.00    +0.021 C 
ATOM     14  C   LIG    1        6.267  -3.029   1.134  0.00  0.00    +0.029 C 
BRANCH  10  19
ATOM     15  C   LIG    1        2.876   1.185   2.555  0.00  0.00    +0.152 C 
ATOM     16  N   LIG    1        2.905  -0.236   2.251  0.00  0.00    -0.315 N 
ATOM     17  C   LIG    1        3.936  -0.737   1.450  0.00  0.00    +0.256 A 
ATOM     18  O   LIG    1        4.841  -0.044   0.991  0.00  0.00    -0.267 OA
ATOM     19  C   LIG    1        3.912  -2.219   1.181  0.00  0.00    +0.040 A 
ATOM     20  C   LIG    1        2.954  -2.967   1.759  0.00  0.00    +0.050 A 
ATOM     21  C   LIG    1        1.958  -2.375   2.603  0.00  0.00    +0.140 A 
ATOM     22  F   LIG    1        1.036  -3.176   3.170  0.00  0.00    -0.204 F 
ATOM     23  C   LIG    1        1.950  -1.058   2.823  0.00  0.00    +0.127 A 
ENDBRANCH  10  19
ENDBRANCH   1  11
BRANCH   4  24
ATOM     24  C   LIG    1        1.262  -0.944  -3.461  0.00  0.00    +0.249 C 
ATOM     25  N   LIG    1        2.243  -0.232  -2.802  0.00  0.00    -0.308 N 
ATOM     26  H   LIG    1        3.068  -0.746  -2.522  0.00  0.00    +0.149 HD
ATOM     27  O   LIG    1        0.231  -0.437  -3.865  0.00  0.00    -0.270 OA
BRANCH  25  28
ATOM     28  C   LIG    1        2.080   1.196  -2.511  0.00  0.00    +0.073 C 
ATOM     29  C   LIG    1        3.354   1.890  -1.974  0.00  0.00    +0.022 C 
ATOM     30  C   LIG    1        2.422   2.681  -1.031  0.00  0.00    +0.004 C 
ATOM     31  C   LIG    1        1.445   1.491  -1.130  0.00  0.00    +0.022 C 
ENDBRANCH  25  28
ENDBRANCH   4  24
TORSDOF 4
