REMARK  Name = pdb/CHEMBL1967116.pdb
REMARK                            x       y       z     vdW  Elec       q    Type
REMARK                         _______ _______ _______ _____ _____    ______ ____
ROOT
ATOM      1  C   LIG    1        3.420  -5.305  -2.063  0.00  0.00    +0.035 A 
ATOM      2  C   LIG    1        2.583  -5.053  -0.972  0.00  0.00    +0.024 A 
ATOM      3  C   LIG    1        1.305  -5.633  -0.902  0.00  0.00    +0.010 A 
ATOM      4  C   LIG    1        0.818  -6.425  -1.945  0.00  0.00    -0.017 A 
ATOM      5  C   LIG    1        1.648  -6.609  -3.061  0.00  0.00    +0.010 A 
ATOM      6  C   LIG    1        2.928  -6.066  -3.115  0.00  0.00    +0.024 A 
ENDROOT
BRANCH   4   7
ATOM      7  C   LIG    1       -0.467  -7.140  -1.880  0.00  0.00    +0.000 A 
ATOM      8  C   LIG    1       -1.736  -6.812  -1.213  0.00  0.00    +0.037 A 
ATOM      9  C   LIG    1       -2.163  -5.683  -0.456  0.00  0.00    +0.125 A 
ATOM     10  N   LIG    1       -3.364  -5.669   0.152  0.00  0.00    -0.239 NA
ATOM     11  C   LIG    1       -4.212  -6.694  -0.021  0.00  0.00    +0.122 A 
ATOM     12  C   LIG    1       -3.960  -7.808  -0.799  0.00  0.00    +0.018 A 
ATOM     13  C   LIG    1       -2.674  -7.858  -1.381  0.00  0.00    +0.032 A 
ATOM     14  S   LIG    1       -2.022  -9.136  -2.339  0.00  0.00    -0.095 S 
ATOM     15  C   LIG    1       -0.531  -8.381  -2.487  0.00  0.00    +0.055 A 
BRANCH  12  16
ATOM     16  C   LIG    1       -4.948  -8.857  -0.974  0.00  0.00    +0.022 A 
ATOM     17  C   LIG    1       -5.899  -9.192  -0.030  0.00  0.00    +0.116 A 
ATOM     18  N   LIG    1       -6.615 -10.228  -0.553  0.00  0.00    -0.274 N 
ATOM     19  C   LIG    1       -7.669 -10.959   0.106  0.00  0.00    +0.172 C 
ATOM     20  N   LIG    1       -6.234 -10.572  -1.792  0.00  0.00    -0.179 NA
ATOM     21  C   LIG    1       -5.228  -9.733  -2.051  0.00  0.00    +0.143 A 
ENDBRANCH  12  16
BRANCH   9  22
ATOM     22  N   LIG    1       -1.464  -4.490  -0.281  0.00  0.00    -0.343 N 
ATOM     23  H   LIG    1       -1.252  -4.071  -1.181  0.00  0.00    +0.144 HD
ATOM     24  H   LIG    1       -2.070  -3.894   0.279  0.00  0.00    +0.144 HD
ENDBRANCH   9  22
ENDBRANCH   4   7
BRANCH   1  28
ATOM     25  N   LIG    1        6.903  -4.406  -2.651  0.00  0.00    -0.269 N 
ATOM     26  H   LIG    1        6.833  -3.681  -1.952  0.00  0.00    +0.156 HD
ATOM     27  C   LIG    1        5.729  -5.053  -2.977  0.00  0.00    +0.308 C 
ATOM     28  N   LIG    1        4.743  -4.816  -2.032  0.00  0.00    -0.269 N 
ATOM     29  H   LIG    1        5.030  -4.376  -1.171  0.00  0.00    +0.156 HD
ATOM     30  O   LIG    1        5.583  -5.729  -4.002  0.00  0.00    -0.252 OA
BRANCH  25  34
ATOM     31  C   LIG    1       11.190  -2.264  -3.765  0.00  0.00    +0.044 C 
ATOM     32  C   LIG    1       10.193  -3.362  -3.974  0.00  0.00    -0.049 A 
ATOM     33  C   LIG    1        8.999  -3.392  -3.242  0.00  0.00    +0.026 A 
ATOM     34  C   LIG    1        8.090  -4.437  -3.414  0.00  0.00    +0.035 A 
ATOM     35  C   LIG    1        8.396  -5.462  -4.314  0.00  0.00    +0.023 A 
ATOM     36  C   LIG    1        9.548  -5.402  -5.097  0.00  0.00    +0.002 A 
ATOM     37  C   LIG    1       10.442  -4.351  -4.931  0.00  0.00    +0.003 A 
ENDBRANCH  25  34
ENDBRANCH   1  28
TORSDOF 5
