REMARK  Name = pdb/CHEMBL3971279.pdb
REMARK                            x       y       z     vdW  Elec       q    Type
REMARK                         _______ _______ _______ _____ _____    ______ ____
ROOT
ATOM      1  C   LIG    1        4.952   0.123   2.384  0.00  0.00    +0.131 C 
ATOM      2  N   LIG    1        5.058   0.886   3.480  0.00  0.00    -0.141 NA
ATOM      3  N   LIG    1        4.784   2.147   3.062  0.00  0.00    -0.201 N 
ATOM      4  C   LIG    1        4.248   2.138   1.770  0.00  0.00    +0.185 C 
ATOM      5  C   LIG    1        4.468   0.874   1.289  0.00  0.00    +0.056 C 
ENDROOT
BRANCH   3   6
ATOM      6  C   LIG    1        5.035   3.249   3.927  0.00  0.00    +0.052 A 
ATOM      7  C   LIG    1        5.068   3.037   5.314  0.00  0.00    +0.025 A 
ATOM      8  C   LIG    1        5.322   4.101   6.185  0.00  0.00    +0.002 A 
ATOM      9  C   LIG    1        5.574   5.373   5.677  0.00  0.00    +0.000 A 
ATOM     10  C   LIG    1        5.578   5.583   4.300  0.00  0.00    +0.002 A 
ATOM     11  C   LIG    1        5.312   4.525   3.420  0.00  0.00    +0.025 A 
ENDBRANCH   3   6
BRANCH   4  12
ATOM     12  N   LIG    1        3.553   3.171   1.127  0.00  0.00    -0.282 N 
ATOM     13  H   LIG    1        3.395   4.011   1.674  0.00  0.00    +0.152 HD
ATOM     14  C   LIG    1        2.942   3.064  -0.171  0.00  0.00    +0.247 C 
ATOM     15  O   LIG    1        3.056   2.039  -0.821  0.00  0.00    -0.270 OA
BRANCH  14  16
ATOM     16  C   LIG    1        2.173   4.224  -0.710  0.00  0.00    +0.056 A 
ATOM     17  C   LIG    1        2.001   5.446  -0.054  0.00  0.00    +0.056 A 
ATOM     18 CL   LIG    1        2.638   5.831   1.502  0.00  0.00    -0.083 Cl
ATOM     19  C   LIG    1        1.281   6.469  -0.671  0.00  0.00    +0.059 A 
ATOM     20  C   LIG    1        0.739   6.294  -1.942  0.00  0.00    +0.134 A 
ATOM     21  F   LIG    1        0.125   7.354  -2.482  0.00  0.00    -0.205 F 
ATOM     22  C   LIG    1        0.874   5.095  -2.648  0.00  0.00    +0.039 A 
ATOM     23  C   LIG    1        1.595   4.064  -1.995  0.00  0.00    +0.027 A 
BRANCH  22  24
ATOM     24  C   LIG    1        0.368   4.909  -4.029  0.00  0.00    +0.109 A 
ATOM     25  C   LIG    1       -0.754   5.548  -4.564  0.00  0.00    +0.149 A 
ATOM     26  F   LIG    1       -1.537   6.345  -3.824  0.00  0.00    -0.203 F 
ATOM     27  C   LIG    1       -1.107   5.339  -5.895  0.00  0.00    +0.042 A 
ATOM     28  C   LIG    1       -0.345   4.478  -6.673  0.00  0.00    +0.023 A 
ATOM     29  C   LIG    1        0.739   3.857  -6.079  0.00  0.00    +0.111 A 
ATOM     30  N   LIG    1        1.108   4.050  -4.788  0.00  0.00    -0.252 NA
ENDBRANCH  22  24
ENDBRANCH  14  16
ENDBRANCH   4  12
BRANCH   1  31
ATOM     31  C   LIG    1        5.252  -1.305   2.364  0.00  0.00    +0.233 C 
ATOM     32  N   LIG    1        5.212  -1.994   3.442  0.00  0.00    -0.241 NA
BRANCH  31  33
ATOM     33  O   LIG    1        5.547  -1.781   1.134  0.00  0.00    -0.491 OA
ATOM     34  H   LIG    1        5.795  -2.714   1.142  0.00  0.00    +0.294 HD
ENDBRANCH  31  33
BRANCH  32  35
ATOM     35  C   LIG    1        5.461  -3.420   3.454  0.00  0.00    +0.222 C 
BRANCH  35  36
ATOM     36  C   LIG    1        4.698  -4.043   4.561  0.00  0.00    +0.158 A 
ATOM     37  C   LIG    1        4.654  -3.856   5.921  0.00  0.00    +0.069 A 
ATOM     38  C   LIG    1        3.732  -4.819   6.366  0.00  0.00    +0.157 A 
ATOM     39  N   LIG    1        3.232  -5.539   5.359  0.00  0.00    -0.086 NA
ATOM     40  O   LIG    1        3.841  -5.044   4.218  0.00  0.00    -0.358 OA
ENDBRANCH  35  36
ENDBRANCH  32  35
ENDBRANCH   1  31
TORSDOF 8
