REMARK  Name = pdb/CHEMBL3671431.pdb
REMARK                            x       y       z     vdW  Elec       q    Type
REMARK                         _______ _______ _______ _____ _____    ______ ____
ROOT
ATOM      1  C   LIG    1        6.496   2.360  -7.782  0.00  0.00    +0.052 A 
ATOM      2  C   LIG    1        6.086   1.027  -7.670  0.00  0.00    +0.038 A 
ATOM      3  C   LIG    1        6.501   0.085  -8.616  0.00  0.00    +0.042 A 
ATOM      4  C   LIG    1        7.405   0.493  -9.586  0.00  0.00    +0.122 A 
ATOM      5  N   LIG    1        7.829   1.773  -9.722  0.00  0.00    -0.261 NA
ATOM      6  C   LIG    1        7.351   2.683  -8.833  0.00  0.00    +0.134 A 
ENDROOT
BRANCH   1   8
ATOM      7  C   LIG    1        6.220   4.630  -6.765  0.00  0.00    +0.222 C 
ATOM      8  N   LIG    1        5.991   3.267  -6.827  0.00  0.00    -0.284 N 
ATOM      9  H   LIG    1        5.347   2.886  -6.143  0.00  0.00    +0.155 HD
ATOM     10  O   LIG    1        6.947   5.270  -7.517  0.00  0.00    -0.275 OA
BRANCH   7  11
ATOM     11  C   LIG    1        5.506   5.300  -5.598  0.00  0.00    +0.131 C 
BRANCH  11  15
ATOM     12  C   LIG    1        1.210   4.850  -5.702  0.00  0.00    +0.051 A 
ATOM     13  C   LIG    1        1.956   4.356  -4.628  0.00  0.00    +0.025 A 
ATOM     14  C   LIG    1        3.339   4.495  -4.598  0.00  0.00    +0.006 A 
ATOM     15  C   LIG    1        4.003   5.150  -5.639  0.00  0.00    -0.039 A 
ATOM     16  C   LIG    1        3.252   5.674  -6.704  0.00  0.00    +0.006 A 
ATOM     17  C   LIG    1        1.859   5.525  -6.735  0.00  0.00    +0.025 A 
BRANCH  12  19
ATOM     18  C   LIG    1       -0.744   3.381  -5.344  0.00  0.00    +0.157 C 
ATOM     19  N   LIG    1       -0.224   4.718  -5.700  0.00  0.00    -0.211 N 
BRANCH  19  20
ATOM     20  S   LIG    1       -1.109   6.021  -5.029  0.00  0.00    +0.042 S 
ATOM     21  C   LIG    1       -0.709   5.893  -3.293  0.00  0.00    +0.218 C 
ATOM     22  O   LIG    1       -2.512   5.725  -5.174  0.00  0.00    -0.155 OA
ATOM     23  O   LIG    1       -0.556   7.277  -5.521  0.00  0.00    -0.155 OA
ENDBRANCH  19  20
ENDBRANCH  12  19
ENDBRANCH  11  15
ENDBRANCH   7  11
ENDBRANCH   1   8
BRANCH   3  24
ATOM     24  C   LIG    1        6.027  -1.319  -8.618  0.00  0.00    +0.197 C 
ATOM     25  O   LIG    1        6.819  -2.202  -8.934  0.00  0.00    -0.287 OA
BRANCH  24  26
ATOM     26  C   LIG    1        4.632  -1.628  -8.297  0.00  0.00    +0.051 A 
ATOM     27  C   LIG    1        4.115  -2.871  -7.827  0.00  0.00    +0.048 A 
ATOM     28  C   LIG    1        4.646  -4.110  -7.473  0.00  0.00    +0.126 A 
ATOM     29  N   LIG    1        3.830  -5.089  -7.016  0.00  0.00    -0.222 NA
ATOM     30  C   LIG    1        2.519  -4.837  -6.923  0.00  0.00    +0.214 A 
ATOM     31  N   LIG    1        1.905  -3.708  -7.281  0.00  0.00    -0.197 NA
ATOM     32  C   LIG    1        2.736  -2.747  -7.713  0.00  0.00    +0.147 A 
ATOM     33  N   LIG    1        2.375  -1.478  -8.122  0.00  0.00    -0.323 N 
ATOM     34  C   LIG    1        3.535  -0.793  -8.445  0.00  0.00    +0.100 A 
BRANCH  30  35
ATOM     35  N   LIG    1        1.711  -5.854  -6.450  0.00  0.00    -0.327 N 
ATOM     36  H   LIG    1        2.152  -6.745  -6.632  0.00  0.00    +0.145 HD
ATOM     37  H   LIG    1        0.773  -5.725  -6.801  0.00  0.00    +0.145 HD
ENDBRANCH  30  35
BRANCH  33  38
ATOM     38  C   LIG    1        1.000  -0.931  -8.239  0.00  0.00    +0.064 C 
ATOM     39  C   LIG    1        0.015  -1.558  -7.225  0.00  0.00    +0.036 C 
ATOM     40  C   LIG    1        0.440  -1.200  -9.654  0.00  0.00    +0.036 C 
BRANCH  38  41
ATOM     41  C   LIG    1        0.987   0.612  -8.011  0.00  0.00    +0.183 C 
BRANCH  41  42
ATOM     42  O   LIG    1        1.486   0.980  -6.725  0.00  0.00    -0.393 OA
ATOM     43  H   LIG    1        0.866   0.638  -6.060  0.00  0.00    +0.209 HD
ENDBRANCH  41  42
ENDBRANCH  38  41
ENDBRANCH  33  38
ENDBRANCH  24  26
ENDBRANCH   3  24
TORSDOF 11
