REMARK  Name = pdb/CHEMBL3673479.pdb
REMARK                            x       y       z     vdW  Elec       q    Type
REMARK                         _______ _______ _______ _____ _____    ______ ____
ROOT
ATOM      1  C   LIG    1        3.516   0.651   1.095  0.00  0.00    +0.162 A 
ATOM      2  C   LIG    1        4.454   0.110   1.988  0.00  0.00    +0.162 A 
ATOM      3  C   LIG    1        5.098   0.948   2.904  0.00  0.00    +0.050 A 
ATOM      4  C   LIG    1        4.775   2.300   2.991  0.00  0.00    +0.009 A 
ATOM      5  C   LIG    1        3.811   2.855   2.145  0.00  0.00    -0.024 A 
ATOM      6  C   LIG    1        3.195   2.021   1.194  0.00  0.00    +0.054 A 
ENDROOT
BRANCH   1   8
ATOM      7  C   LIG    1        3.111  -1.403  -0.076  0.00  0.00    +0.277 C 
ATOM      8  O   LIG    1        2.838  -0.013   0.098  0.00  0.00    -0.491 OA
ENDBRANCH   1   8
BRANCH   2   9
ATOM      9  O   LIG    1        4.745  -1.226   1.924  0.00  0.00    -0.484 OA
BRANCH   9  10
ATOM     10  C   LIG    1        5.160  -1.843   3.135  0.00  0.00    +0.266 C 
BRANCH  10  11
ATOM     11  C   LIG    1        4.726  -3.276   3.122  0.00  0.00    +0.008 A 
ATOM     12  C   LIG    1        5.534  -4.270   2.594  0.00  0.00    +0.118 A 
ATOM     13  N   LIG    1        5.209  -5.582   2.582  0.00  0.00    -0.259 NA
ATOM     14  C   LIG    1        4.017  -5.956   3.113  0.00  0.00    +0.044 A 
ATOM     15  C   LIG    1        3.142  -5.010   3.646  0.00  0.00    +0.024 A 
ATOM     16  C   LIG    1        3.493  -3.663   3.644  0.00  0.00    +0.010 A 
BRANCH  14  17
ATOM     17  C   LIG    1        3.640  -7.416   3.103  0.00  0.00    +0.038 C 
ATOM     18  C   LIG    1        3.809  -8.237   4.360  0.00  0.00    +0.010 C 
ATOM     19  C   LIG    1        4.708  -8.482   3.185  0.00  0.00    +0.010 C 
ENDBRANCH  14  17
ENDBRANCH  10  11
ENDBRANCH   9  10
ENDBRANCH   2   9
BRANCH   5  20
ATOM     20  C   LIG    1        3.473   4.322   2.288  0.00  0.00    +0.161 C 
BRANCH  20  21
ATOM     21  N   LIG    1        2.427   4.552   3.259  0.00  0.00    -0.293 N 
ATOM     22  C   LIG    1        2.634   4.851   4.585  0.00  0.00    +0.162 A 
ATOM     23  N   LIG    1        3.813   4.898   5.248  0.00  0.00    -0.235 NA
ATOM     24  C   LIG    1        3.644   5.229   6.556  0.00  0.00    +0.121 A 
ATOM     25  C   LIG    1        2.434   5.504   7.208  0.00  0.00    +0.005 A 
ATOM     26  C   LIG    1        1.257   5.453   6.450  0.00  0.00    +0.041 A 
ATOM     27  C   LIG    1        1.371   5.110   5.096  0.00  0.00    +0.110 A 
ATOM     28  N   LIG    1        0.419   4.978   4.113  0.00  0.00    -0.213 NA
ATOM     29  C   LIG    1        1.070   4.655   3.039  0.00  0.00    +0.195 A 
BRANCH  25  30
ATOM     30  C   LIG    1        2.393   5.833   8.621  0.00  0.00    +0.021 A 
ATOM     31  C   LIG    1        3.301   5.389   9.562  0.00  0.00    +0.116 A 
ATOM     32  N   LIG    1        2.905   5.912  10.759  0.00  0.00    -0.274 N 
ATOM     33  C   LIG    1        3.560   5.719  12.030  0.00  0.00    +0.172 C 
ATOM     34  N   LIG    1        1.797   6.666  10.672  0.00  0.00    -0.179 NA
ATOM     35  C   LIG    1        1.483   6.613   9.374  0.00  0.00    +0.143 A 
ENDBRANCH  25  30
BRANCH  29  36
ATOM     36  N   LIG    1        0.512   4.447   1.822  0.00  0.00    -0.329 N 
ATOM     37  H   LIG    1       -0.504   4.392   1.850  0.00  0.00    +0.145 HD
ATOM     38  H   LIG    1        0.912   3.770   1.188  0.00  0.00    +0.145 HD
ENDBRANCH  29  36
ENDBRANCH  20  21
ENDBRANCH   5  20
TORSDOF 9
