REMARK  Name = pdb/CHEMBL176544.pdb
REMARK                            x       y       z     vdW  Elec       q    Type
REMARK                         _______ _______ _______ _____ _____    ______ ____
ROOT
ATOM      1  C   LIG    1        5.465   1.585   0.323  0.00  0.00    +0.025 C 
ATOM      2  C   LIG    1        6.594   1.673  -0.395  0.00  0.00    +0.065 C 
ATOM      3  C   LIG    1        7.647   2.664  -0.163  0.00  0.00    +0.097 A 
ATOM      4  N   LIG    1        7.679   3.623   0.775  0.00  0.00    -0.253 NA
ATOM      5  C   LIG    1        8.798   4.389   0.739  0.00  0.00    +0.111 A 
ATOM      6  C   LIG    1        9.846   4.223  -0.177  0.00  0.00    +0.022 A 
ATOM      7  C   LIG    1        9.767   3.210  -1.135  0.00  0.00    +0.027 A 
ATOM      8  C   LIG    1        8.637   2.428  -1.108  0.00  0.00    +0.060 A 
ATOM      9  N   LIG    1        8.288   1.364  -1.929  0.00  0.00    -0.280 N 
ATOM     10  H   LIG    1        8.824   1.000  -2.702  0.00  0.00    +0.155 HD
ATOM     11  C   LIG    1        7.044   0.848  -1.574  0.00  0.00    +0.250 C 
ATOM     12  O   LIG    1        6.472  -0.063  -2.137  0.00  0.00    -0.270 OA
ENDROOT
BRANCH   1  21
ATOM     13  C   LIG    1        0.948  -0.200  -0.429  0.00  0.00    +0.149 C 
ATOM     14  N   LIG    1        2.364  -0.151  -0.147  0.00  0.00    -0.349 N 
ATOM     15  C   LIG    1        3.154  -1.251   0.120  0.00  0.00    +0.049 A 
ATOM     16  C   LIG    1        2.834  -2.616   0.201  0.00  0.00    +0.026 A 
ATOM     17  C   LIG    1        3.861  -3.516   0.500  0.00  0.00    +0.002 A 
ATOM     18  C   LIG    1        5.162  -3.072   0.713  0.00  0.00    +0.001 A 
ATOM     19  C   LIG    1        5.471  -1.710   0.630  0.00  0.00    +0.010 A 
ATOM     20  C   LIG    1        4.456  -0.778   0.322  0.00  0.00    +0.007 A 
ATOM     21  C   LIG    1        4.413   0.639   0.169  0.00  0.00    +0.001 A 
ATOM     22  C   LIG    1        3.109   0.998  -0.091  0.00  0.00    +0.094 A 
ENDBRANCH   1  21
TORSDOF 1
