REMARK  Name = pdb/CHEMBL3977304.pdb
REMARK                            x       y       z     vdW  Elec       q    Type
REMARK                         _______ _______ _______ _____ _____    ______ ____
ROOT
ATOM      1  C   LIG    1        4.961   0.389   0.182  0.00  0.00    +0.105 A 
ATOM      2  C   LIG    1        4.006   0.831  -0.702  0.00  0.00    +0.145 A 
ATOM      3  N   LIG    1        3.538   2.106  -0.765  0.00  0.00    -0.201 NA
ATOM      4  C   LIG    1        4.038   2.956   0.151  0.00  0.00    +0.323 A 
ATOM      5  N   LIG    1        4.965   2.648   1.069  0.00  0.00    -0.201 NA
ATOM      6  C   LIG    1        5.393   1.367   1.065  0.00  0.00    +0.145 A 
ENDROOT
BRANCH   1   8
ATOM      7  C   LIG    1        5.760  -1.696  -0.619  0.00  0.00    +0.285 C 
ATOM      8  N   LIG    1        5.423  -0.922   0.329  0.00  0.00    -0.196 NA
BRANCH   7   9
ATOM      9  N   LIG    1        5.762  -1.538  -1.993  0.00  0.00    -0.267 N 
ATOM     10  H   LIG    1        5.580  -0.591  -2.317  0.00  0.00    +0.157 HD
BRANCH   9  12
ATOM     11  C   LIG    1        6.241  -2.134  -4.365  0.00  0.00    +0.088 A 
ATOM     12  C   LIG    1        5.873  -2.483  -3.037  0.00  0.00    +0.061 A 
ATOM     13  C   LIG    1        5.647  -3.856  -2.782  0.00  0.00    +0.037 A 
ATOM     14  C   LIG    1        5.838  -4.861  -3.742  0.00  0.00    +0.057 A 
ATOM     15  C   LIG    1        6.204  -4.488  -5.031  0.00  0.00    +0.014 A 
ATOM     16  C   LIG    1        6.378  -3.139  -5.348  0.00  0.00    +0.030 A 
BRANCH  11  21
ATOM     17  C   LIG    1        6.792   2.156  -6.895  0.00  0.00    +0.069 C 
ATOM     18  C   LIG    1        6.774   1.069  -5.891  0.00  0.00    +0.080 A 
ATOM     19  N   LIG    1        7.060   1.302  -4.575  0.00  0.00    -0.134 NA
ATOM     20  N   LIG    1        6.843   0.181  -3.895  0.00  0.00    -0.060 NA
ATOM     21  N   LIG    1        6.498  -0.793  -4.769  0.00  0.00    -0.218 N 
ATOM     22  C   LIG    1        6.434  -0.256  -6.040  0.00  0.00    +0.139 A 
ENDBRANCH  11  21
BRANCH  14  23
ATOM     23  C   LIG    1        5.627  -6.305  -3.354  0.00  0.00    +0.417 C 
ATOM     24  F   LIG    1        4.380  -6.523  -2.858  0.00  0.00    -0.166 F 
ATOM     25  F   LIG    1        6.494  -6.712  -2.386  0.00  0.00    -0.166 F 
ATOM     26  F   LIG    1        5.783  -7.173  -4.389  0.00  0.00    -0.166 F 
ENDBRANCH  14  23
ENDBRANCH   9  12
ENDBRANCH   7   9
BRANCH   7  27
ATOM     27  O   LIG    1        6.284  -2.865  -0.185  0.00  0.00    -0.481 OA
ATOM     28  H   LIG    1        6.831  -3.279  -0.854  0.00  0.00    +0.295 HD
ENDBRANCH   7  27
ENDBRANCH   1   8
BRANCH   4  29
ATOM     29  O   LIG    1        3.674   4.295   0.142  0.00  0.00    -0.424 OA
BRANCH  29  30
ATOM     30  C   LIG    1        2.448   4.679  -0.336  0.00  0.00    +0.132 A 
ATOM     31  C   LIG    1        1.263   3.968  -0.186  0.00  0.00    +0.047 A 
ATOM     32  C   LIG    1        0.053   4.506  -0.659  0.00  0.00    +0.012 A 
ATOM     33  C   LIG    1       -0.025   5.786  -1.253  0.00  0.00    -0.014 A 
ATOM     34  C   LIG    1        1.184   6.498  -1.339  0.00  0.00    +0.012 A 
ATOM     35  C   LIG    1        2.399   5.953  -0.900  0.00  0.00    +0.047 A 
BRANCH  33  36
ATOM     36  C   LIG    1       -1.327   6.355  -1.722  0.00  0.00    +0.023 A 
ATOM     37  C   LIG    1       -1.476   7.254  -2.803  0.00  0.00    +0.124 A 
ATOM     38  N   LIG    1       -2.660   7.767  -3.210  0.00  0.00    -0.239 NA
ATOM     39  C   LIG    1       -3.773   7.378  -2.553  0.00  0.00    +0.133 A 
ATOM     40  C   LIG    1       -3.756   6.503  -1.488  0.00  0.00    +0.060 A 
ATOM     41 CL   LIG    1       -5.210   6.040  -0.704  0.00  0.00    -0.082 Cl
ATOM     42  C   LIG    1       -2.528   6.002  -1.067  0.00  0.00    +0.033 A 
BRANCH  37  43
ATOM     43  N   LIG    1       -0.412   7.706  -3.580  0.00  0.00    -0.343 N 
ATOM     44  H   LIG    1        0.084   6.926  -3.999  0.00  0.00    +0.144 HD
ATOM     45  H   LIG    1       -0.815   8.316  -4.288  0.00  0.00    +0.144 HD
ENDBRANCH  37  43
ENDBRANCH  33  36
ENDBRANCH  29  30
ENDBRANCH   4  29
TORSDOF 10
