REMARK  Name = pdb/CHEMBL3678287.pdb
REMARK                            x       y       z     vdW  Elec       q    Type
REMARK                         _______ _______ _______ _____ _____    ______ ____
ROOT
ATOM      1  C   LIG    1        2.649   1.115  -4.343  0.00  0.00    +0.162 A 
ATOM      2  C   LIG    1        3.405   0.199  -5.090  0.00  0.00    +0.162 A 
ATOM      3  C   LIG    1        4.737   0.552  -5.391  0.00  0.00    +0.050 A 
ATOM      4  C   LIG    1        5.313   1.755  -4.952  0.00  0.00    +0.009 A 
ATOM      5  C   LIG    1        4.562   2.671  -4.211  0.00  0.00    -0.024 A 
ATOM      6  C   LIG    1        3.232   2.335  -3.924  0.00  0.00    +0.054 A 
ENDROOT
BRANCH   1   8
ATOM      7  C   LIG    1        0.455   0.398  -4.806  0.00  0.00    +0.277 C 
ATOM      8  O   LIG    1        1.353   1.016  -3.914  0.00  0.00    -0.491 OA
ENDBRANCH   1   8
BRANCH   2   9
ATOM      9  O   LIG    1        3.027  -0.964  -5.708  0.00  0.00    -0.482 OA
BRANCH   9  10
ATOM     10  C   LIG    1        2.167  -1.955  -5.136  0.00  0.00    +0.285 C 
BRANCH  10  11
ATOM     11  C   LIG    1        1.986  -3.096  -6.082  0.00  0.00    +0.086 A 
ATOM     12  N   LIG    1        1.539  -4.287  -5.551  0.00  0.00    -0.237 NA
ATOM     13  C   LIG    1        1.453  -5.196  -6.502  0.00  0.00    +0.182 A 
ATOM     14  S   LIG    1        1.659  -4.594  -8.104  0.00  0.00    -0.071 S 
ATOM     15  C   LIG    1        2.039  -3.052  -7.466  0.00  0.00    +0.074 A 
BRANCH  13  16
ATOM     16  C   LIG    1        1.282  -6.656  -6.244  0.00  0.00    +0.441 C 
ATOM     17  F   LIG    1        0.093  -6.945  -5.651  0.00  0.00    -0.164 F 
ATOM     18  F   LIG    1        2.256  -7.118  -5.412  0.00  0.00    -0.164 F 
ATOM     19  F   LIG    1        1.352  -7.412  -7.371  0.00  0.00    -0.164 F 
ENDBRANCH  13  16
ENDBRANCH  10  11
ENDBRANCH   9  10
ENDBRANCH   2   9
BRANCH   5  20
ATOM     20  C   LIG    1        5.173   3.952  -3.683  0.00  0.00    +0.161 C 
BRANCH  20  21
ATOM     21  N   LIG    1        5.470   3.929  -2.250  0.00  0.00    -0.293 N 
ATOM     22  C   LIG    1        5.318   5.020  -1.421  0.00  0.00    +0.162 A 
ATOM     23  N   LIG    1        4.938   6.271  -1.736  0.00  0.00    -0.235 NA
ATOM     24  C   LIG    1        4.907   7.090  -0.641  0.00  0.00    +0.121 A 
ATOM     25  C   LIG    1        5.216   6.737   0.680  0.00  0.00    +0.005 A 
ATOM     26  C   LIG    1        5.591   5.415   0.932  0.00  0.00    +0.041 A 
ATOM     27  C   LIG    1        5.653   4.534  -0.157  0.00  0.00    +0.110 A 
ATOM     28  N   LIG    1        6.020   3.229  -0.197  0.00  0.00    -0.213 NA
ATOM     29  C   LIG    1        5.953   2.885  -1.498  0.00  0.00    +0.195 A 
BRANCH  25  30
ATOM     30  C   LIG    1        5.163   7.696   1.770  0.00  0.00    +0.021 A 
ATOM     31  C   LIG    1        5.408   9.049   1.657  0.00  0.00    +0.116 A 
ATOM     32  N   LIG    1        5.288   9.569   2.914  0.00  0.00    -0.274 N 
ATOM     33  C   LIG    1        5.452  10.949   3.300  0.00  0.00    +0.172 C 
ATOM     34  N   LIG    1        4.979   8.651   3.846  0.00  0.00    -0.179 NA
ATOM     35  C   LIG    1        4.914   7.511   3.152  0.00  0.00    +0.143 A 
ENDBRANCH  25  30
BRANCH  29  36
ATOM     36  N   LIG    1        6.305   1.701  -1.940  0.00  0.00    -0.329 N 
ATOM     37  H   LIG    1        6.663   1.055  -1.241  0.00  0.00    +0.145 HD
ATOM     38  H   LIG    1        6.841   1.628  -2.815  0.00  0.00    +0.145 HD
ENDBRANCH  29  36
ENDBRANCH  20  21
ENDBRANCH   5  20
TORSDOF 9
