REMARK  Name = pdb/CHEMBL3666262.pdb
REMARK                            x       y       z     vdW  Elec       q    Type
REMARK                         _______ _______ _______ _____ _____    ______ ____
ROOT
ATOM      1  C   LIG    1        3.934   2.370  -3.771  0.00  0.00    +0.197 C 
ATOM      2  O   LIG    1        3.784   1.383  -4.484  0.00  0.00    -0.287 OA
ENDROOT
BRANCH   1  10
ATOM      3  N   LIG    1        2.576   3.298  -0.505  0.00  0.00    -0.323 N 
ATOM      4  C   LIG    1        2.484   1.925  -0.410  0.00  0.00    +0.147 A 
ATOM      5  N   LIG    1        2.033   1.237   0.650  0.00  0.00    -0.197 NA
ATOM      6  C   LIG    1        2.104  -0.088   0.502  0.00  0.00    +0.214 A 
ATOM      7  N   LIG    1        2.646  -0.738  -0.536  0.00  0.00    -0.222 NA
ATOM      8  C   LIG    1        3.097  -0.020  -1.594  0.00  0.00    +0.126 A 
ATOM      9  C   LIG    1        3.006   1.371  -1.571  0.00  0.00    +0.048 A 
ATOM     10  C   LIG    1        3.342   2.448  -2.442  0.00  0.00    +0.051 A 
ATOM     11  C   LIG    1        2.937   3.606  -1.798  0.00  0.00    +0.100 A 
BRANCH   3  13
ATOM     12  C   LIG    1        0.951   4.787   0.621  0.00  0.00    +0.036 C 
ATOM     13  C   LIG    1        2.404   4.285   0.586  0.00  0.00    +0.064 C 
ATOM     14  C   LIG    1        3.327   5.516   0.366  0.00  0.00    +0.036 C 
BRANCH  13  15
ATOM     15  C   LIG    1        2.764   3.702   1.982  0.00  0.00    +0.183 C 
BRANCH  15  16
ATOM     16  O   LIG    1        4.098   3.192   2.014  0.00  0.00    -0.393 OA
ATOM     17  H   LIG    1        4.054   2.299   1.619  0.00  0.00    +0.209 HD
ENDBRANCH  15  16
ENDBRANCH  13  15
ENDBRANCH   3  13
BRANCH   6  18
ATOM     18  N   LIG    1        1.634  -0.856   1.547  0.00  0.00    -0.327 N 
ATOM     19  H   LIG    1        1.648  -0.336   2.412  0.00  0.00    +0.145 HD
ATOM     20  H   LIG    1        2.075  -1.765   1.538  0.00  0.00    +0.145 HD
ENDBRANCH   6  18
ENDBRANCH   1  10
BRANCH   1  21
ATOM     21  C   LIG    1        4.774   3.496  -4.262  0.00  0.00    +0.042 A 
ATOM     22  C   LIG    1        5.552   4.306  -3.419  0.00  0.00    +0.038 A 
ATOM     23  C   LIG    1        6.372   5.306  -3.956  0.00  0.00    +0.052 A 
ATOM     24  C   LIG    1        6.427   5.397  -5.344  0.00  0.00    +0.134 A 
ATOM     25  N   LIG    1        5.663   4.649  -6.185  0.00  0.00    -0.261 NA
ATOM     26  C   LIG    1        4.844   3.725  -5.626  0.00  0.00    +0.122 A 
BRANCH  23  27
ATOM     27  N   LIG    1        7.057   6.162  -3.057  0.00  0.00    -0.284 N 
ATOM     28  H   LIG    1        6.752   6.137  -2.090  0.00  0.00    +0.155 HD
ATOM     29  C   LIG    1        8.119   7.001  -3.366  0.00  0.00    +0.222 C 
ATOM     30  O   LIG    1        8.640   7.105  -4.473  0.00  0.00    -0.275 OA
BRANCH  29  31
ATOM     31  C   LIG    1        8.655   7.786  -2.173  0.00  0.00    +0.131 C 
BRANCH  31  32
ATOM     32  C   LIG    1        8.067   9.163  -1.932  0.00  0.00    -0.039 A 
ATOM     33  C   LIG    1        7.059   9.717  -2.729  0.00  0.00    +0.005 A 
ATOM     34  C   LIG    1        6.549  10.993  -2.442  0.00  0.00    +0.019 A 
ATOM     35  C   LIG    1        7.010  11.742  -1.373  0.00  0.00    +0.052 A 
ATOM     36  C   LIG    1        8.051  11.199  -0.573  0.00  0.00    +0.019 A 
ATOM     37  C   LIG    1        8.563   9.925  -0.856  0.00  0.00    +0.005 A 
BRANCH  35  38
ATOM     38  C   LIG    1        6.478  13.045  -1.075  0.00  0.00    +0.099 C 
ATOM     39  N   LIG    1        6.027  14.081  -0.838  0.00  0.00    -0.191 NA
ENDBRANCH  35  38
ENDBRANCH  31  32
ENDBRANCH  29  31
ENDBRANCH  23  27
ENDBRANCH   1  21
TORSDOF 10
