REMARK  Name = pdb/CHEMBL458286.pdb
REMARK                            x       y       z     vdW  Elec       q    Type
REMARK                         _______ _______ _______ _____ _____    ______ ____
ROOT
ATOM      1  C   LIG    1        8.246   5.067  -1.278  0.00  0.00    +0.148 A 
ATOM      2  C   LIG    1        8.976   6.065  -0.666  0.00  0.00    +0.099 A 
ATOM      3 CL   LIG    1       10.691   6.038  -0.545  0.00  0.00    -0.078 Cl
ATOM      4  C   LIG    1        8.245   7.107  -0.134  0.00  0.00    +0.137 A 
ATOM      5  N   LIG    1        6.893   7.190  -0.184  0.00  0.00    -0.221 NA
ATOM      6  C   LIG    1        6.265   6.206  -0.829  0.00  0.00    +0.217 A 
ATOM      7  N   LIG    1        6.907   5.176  -1.381  0.00  0.00    -0.198 NA
ENDROOT
BRANCH   1   8
ATOM      8  N   LIG    1        8.849   3.872  -1.717  0.00  0.00    -0.282 N 
ATOM      9  H   LIG    1        9.864   3.903  -1.734  0.00  0.00    +0.155 HD
BRANCH   8  14
ATOM     10  C   LIG    1        6.748   1.235  -2.817  0.00  0.00    +0.213 A 
ATOM     11  N   LIG    1        8.024   0.744  -2.839  0.00  0.00    -0.245 N 
ATOM     12  H   LIG    1        8.301  -0.193  -3.110  0.00  0.00    +0.192 HD
ATOM     13  N   LIG    1        8.968   1.633  -2.491  0.00  0.00    -0.156 NA
ATOM     14  C   LIG    1        8.275   2.729  -2.154  0.00  0.00    +0.149 A 
ATOM     15  C   LIG    1        6.886   2.499  -2.319  0.00  0.00    +0.112 A 
BRANCH  10  16
ATOM     16  O   LIG    1        5.728   0.469  -3.233  0.00  0.00    -0.474 OA
BRANCH  16  18
ATOM     17  C   LIG    1        4.231   0.703  -5.091  0.00  0.00    +0.051 C 
ATOM     18  C   LIG    1        4.532   1.144  -3.658  0.00  0.00    +0.169 C 
ATOM     19  C   LIG    1        3.390   0.731  -2.736  0.00  0.00    +0.051 C 
ENDBRANCH  16  18
ENDBRANCH  10  16
ENDBRANCH   8  14
ENDBRANCH   1   8
BRANCH   6  20
ATOM     20  N   LIG    1        4.883   6.229  -0.880  0.00  0.00    -0.307 N 
ATOM     21  H   LIG    1        4.539   6.883  -0.191  0.00  0.00    +0.149 HD
BRANCH  20  22
ATOM     22  C   LIG    1        4.200   4.939  -0.978  0.00  0.00    +0.100 C 
ATOM     23  C   LIG    1        4.466   4.050   0.246  0.00  0.00    +0.033 C 
BRANCH  22  24
ATOM     24  C   LIG    1        2.705   5.161  -1.177  0.00  0.00    -0.027 A 
ATOM     25  C   LIG    1        1.957   5.879  -0.230  0.00  0.00    +0.008 A 
ATOM     26  C   LIG    1        0.606   6.147  -0.445  0.00  0.00    +0.038 A 
ATOM     27  C   LIG    1       -0.011   5.686  -1.600  0.00  0.00    +0.123 A 
ATOM     28  F   LIG    1       -1.301   5.973  -1.817  0.00  0.00    -0.205 F 
ATOM     29  C   LIG    1        0.692   4.936  -2.535  0.00  0.00    +0.038 A 
ATOM     30  C   LIG    1        2.047   4.667  -2.323  0.00  0.00    +0.008 A 
ENDBRANCH  22  24
ENDBRANCH  20  22
ENDBRANCH   6  20
TORSDOF 7
