REMARK  Name = pdb/CHEMBL3960311.pdb
REMARK                            x       y       z     vdW  Elec       q    Type
REMARK                         _______ _______ _______ _____ _____    ______ ____
ROOT
ATOM      1  C   LIG    1        3.082   5.453  -1.327  0.00  0.00    +0.042 A 
ATOM      2  C   LIG    1        3.396   5.877  -0.025  0.00  0.00    +0.042 A 
ATOM      3  C   LIG    1        3.650   7.229   0.236  0.00  0.00    +0.086 A 
ATOM      4  C   LIG    1        3.707   8.074  -0.873  0.00  0.00    +0.138 A 
ATOM      5  N   LIG    1        3.372   7.728  -2.129  0.00  0.00    -0.260 NA
ATOM      6  C   LIG    1        3.012   6.441  -2.302  0.00  0.00    +0.122 A 
ENDROOT
BRANCH   1   7
ATOM      7  C   LIG    1        2.780   4.010  -1.589  0.00  0.00    +0.197 C 
ATOM      8  O   LIG    1        2.795   3.233  -0.637  0.00  0.00    -0.287 OA
BRANCH   7  16
ATOM      9  N   LIG    1        2.147   3.459  -5.180  0.00  0.00    -0.338 N 
ATOM     10  C   LIG    1        1.405   2.410  -4.654  0.00  0.00    +0.053 A 
ATOM     11  C   LIG    1        0.566   1.436  -5.213  0.00  0.00    +0.046 A 
ATOM     12  C   LIG    1        0.018   0.494  -4.362  0.00  0.00    +0.113 A 
ATOM     13  N   LIG    1        0.233   0.448  -3.040  0.00  0.00    -0.263 NA
ATOM     14  C   LIG    1        1.013   1.403  -2.482  0.00  0.00    +0.121 A 
ATOM     15  C   LIG    1        1.607   2.412  -3.260  0.00  0.00    +0.029 A 
ATOM     16  C   LIG    1        2.421   3.543  -2.932  0.00  0.00    +0.049 A 
ATOM     17  C   LIG    1        2.856   4.038  -4.143  0.00  0.00    +0.099 A 
BRANCH   9  19
ATOM     18  C   LIG    1        3.824   3.648  -6.971  0.00  0.00    +0.036 C 
ATOM     19  C   LIG    1        2.346   3.907  -6.586  0.00  0.00    +0.063 C 
ATOM     20  C   LIG    1        2.071   5.428  -6.730  0.00  0.00    +0.036 C 
BRANCH  19  21
ATOM     21  C   LIG    1        1.441   3.193  -7.620  0.00  0.00    +0.183 C 
BRANCH  21  22
ATOM     22  O   LIG    1        0.058   3.438  -7.367  0.00  0.00    -0.393 OA
ATOM     23  H   LIG    1       -0.459   2.803  -7.891  0.00  0.00    +0.209 HD
ENDBRANCH  21  22
ENDBRANCH  19  21
ENDBRANCH   9  19
ENDBRANCH   7  16
ENDBRANCH   1   7
BRANCH   3  24
ATOM     24  N   LIG    1        3.838   7.661   1.563  0.00  0.00    -0.216 NA
ATOM     25  C   LIG    1        3.493   8.856   1.931  0.00  0.00    +0.192 C 
BRANCH  25  26
ATOM     26  O   LIG    1        2.902   9.737   1.090  0.00  0.00    -0.495 OA
ATOM     27  H   LIG    1        2.745  10.615   1.470  0.00  0.00    +0.293 HD
ENDBRANCH  25  26
BRANCH  25  28
ATOM     28  C   LIG    1        3.637   9.386   3.340  0.00  0.00    +0.130 C 
BRANCH  28  29
ATOM     29  C   LIG    1        4.783   8.798   4.124  0.00  0.00    -0.038 A 
ATOM     30  C   LIG    1        5.851   9.607   4.533  0.00  0.00    +0.005 A 
ATOM     31  C   LIG    1        6.926   9.058   5.237  0.00  0.00    +0.019 A 
ATOM     32  C   LIG    1        6.949   7.691   5.528  0.00  0.00    +0.052 A 
ATOM     33  C   LIG    1        5.885   6.880   5.131  0.00  0.00    +0.019 A 
ATOM     34  C   LIG    1        4.799   7.435   4.454  0.00  0.00    +0.005 A 
BRANCH  32  35
ATOM     35  C   LIG    1        8.058   7.117   6.242  0.00  0.00    +0.099 C 
ATOM     36  N   LIG    1        8.941   6.655   6.820  0.00  0.00    -0.191 NA
ENDBRANCH  32  35
ENDBRANCH  28  29
ENDBRANCH  25  28
ENDBRANCH   3  24
TORSDOF 10
