REMARK  Name = pdb/CHEMBL3676094.pdb
REMARK                            x       y       z     vdW  Elec       q    Type
REMARK                         _______ _______ _______ _____ _____    ______ ____
ROOT
ATOM      1  C   LIG    1        3.688  -4.173  -1.244  0.00  0.00    +0.126 A 
ATOM      2  N   LIG    1        3.115  -3.093  -1.753  0.00  0.00    -0.212 NA
ATOM      3  C   LIG    1        2.254  -3.250  -2.820  0.00  0.00    +0.170 A 
ATOM      4  C   LIG    1        1.461  -2.362  -3.550  0.00  0.00    +0.100 A 
ATOM      5  C   LIG    1        0.872  -3.164  -4.550  0.00  0.00    +0.150 A 
ATOM      6  N   LIG    1        1.207  -4.448  -4.468  0.00  0.00    -0.173 NA
ATOM      7  N   LIG    1        2.018  -4.505  -3.388  0.00  0.00    -0.221 N 
ATOM      8  C   LIG    1        2.566  -5.644  -2.830  0.00  0.00    +0.118 A 
ATOM      9  C   LIG    1        3.366  -5.555  -1.765  0.00  0.00    +0.063 A 
ENDROOT
BRANCH   1  11
ATOM     10  C   LIG    1        5.429  -5.119   0.392  0.00  0.00    +0.110 C 
ATOM     11  N   LIG    1        4.613  -4.037  -0.212  0.00  0.00    -0.308 N 
ATOM     12  C   LIG    1        4.712  -2.815   0.584  0.00  0.00    +0.107 C 
ATOM     13  C   LIG    1        5.215  -3.293   1.940  0.00  0.00    +0.021 C 
ATOM     14  C   LIG    1        6.142  -4.438   1.575  0.00  0.00    +0.029 C 
BRANCH  10  19
ATOM     15  C   LIG    1        7.977  -9.134  -1.219  0.00  0.00    +0.152 C 
ATOM     16  N   LIG    1        7.670  -7.716  -1.321  0.00  0.00    -0.315 N 
ATOM     17  C   LIG    1        6.807  -7.151  -0.373  0.00  0.00    +0.256 A 
ATOM     18  O   LIG    1        6.339  -7.777   0.575  0.00  0.00    -0.267 OA
ATOM     19  C   LIG    1        6.437  -5.701  -0.575  0.00  0.00    +0.040 A 
ATOM     20  C   LIG    1        6.996  -5.040  -1.606  0.00  0.00    +0.050 A 
ATOM     21  C   LIG    1        7.922  -5.680  -2.495  0.00  0.00    +0.140 A 
ATOM     22  F   LIG    1        8.470  -4.951  -3.485  0.00  0.00    -0.204 F 
ATOM     23  C   LIG    1        8.217  -6.974  -2.354  0.00  0.00    +0.127 A 
ENDBRANCH  10  19
ENDBRANCH   1  11
BRANCH   4  24
ATOM     24  C   LIG    1        1.227  -0.936  -3.396  0.00  0.00    +0.249 C 
ATOM     25  N   LIG    1        1.884  -0.352  -2.342  0.00  0.00    -0.311 N 
ATOM     26  H   LIG    1        2.546  -0.929  -1.816  0.00  0.00    +0.149 HD
ATOM     27  O   LIG    1        0.480  -0.317  -4.151  0.00  0.00    -0.270 OA
BRANCH  25  28
ATOM     28  C   LIG    1        1.832   1.069  -2.101  0.00  0.00    +0.108 C 
BRANCH  28  29
ATOM     29  C   LIG    1        2.049   1.334  -0.647  0.00  0.00    +0.006 C 
ATOM     30  C   LIG    1        2.994   2.413  -0.176  0.00  0.00    +0.005 C 
ATOM     31  C   LIG    1        3.356   0.968   0.014  0.00  0.00    +0.005 C 
ENDBRANCH  28  29
ENDBRANCH  25  28
ENDBRANCH   4  24
TORSDOF 5
