REMARK  Name = pdb/CHEMBL3979991.pdb
REMARK                            x       y       z     vdW  Elec       q    Type
REMARK                         _______ _______ _______ _____ _____    ______ ____
ROOT
ATOM      1  C   LIG    1        2.883   0.620  -1.498  0.00  0.00    +0.149 A 
ATOM      2  N   LIG    1        3.756   0.765  -2.504  0.00  0.00    -0.160 NA
ATOM      3  N   LIG    1        3.957   2.103  -2.608  0.00  0.00    -0.218 N 
ATOM      4  C   LIG    1        3.226   2.814  -1.653  0.00  0.00    +0.129 A 
ATOM      5  C   LIG    1        2.484   1.863  -0.974  0.00  0.00    +0.078 A 
ENDROOT
BRANCH   3   6
ATOM      6  C   LIG    1        4.858   2.569  -3.605  0.00  0.00    +0.067 A 
ATOM      7  C   LIG    1        5.648   3.706  -3.413  0.00  0.00    +0.028 A 
ATOM      8  C   LIG    1        6.539   4.108  -4.413  0.00  0.00    +0.002 A 
ATOM      9  C   LIG    1        6.644   3.385  -5.602  0.00  0.00    +0.000 A 
ATOM     10  C   LIG    1        5.870   2.244  -5.793  0.00  0.00    +0.002 A 
ATOM     11  C   LIG    1        4.990   1.826  -4.794  0.00  0.00    +0.028 A 
ENDBRANCH   3   6
BRANCH   4  12
ATOM     12  N   LIG    1        3.160   4.201  -1.463  0.00  0.00    -0.266 N 
ATOM     13  H   LIG    1        3.700   4.778  -2.103  0.00  0.00    +0.157 HD
ATOM     14  C   LIG    1        2.358   4.859  -0.466  0.00  0.00    +0.251 C 
ATOM     15  O   LIG    1        1.695   4.218   0.346  0.00  0.00    -0.270 OA
BRANCH  14  16
ATOM     16  C   LIG    1        2.371   6.327  -0.427  0.00  0.00    +0.056 A 
ATOM     17  C   LIG    1        2.590   7.134  -1.553  0.00  0.00    +0.054 A 
ATOM     18 CL   LIG    1        2.881   6.508  -3.135  0.00  0.00    -0.083 Cl
ATOM     19  C   LIG    1        2.567   8.518  -1.422  0.00  0.00    +0.041 A 
ATOM     20  C   LIG    1        2.337   9.132  -0.180  0.00  0.00    +0.052 A 
ATOM     21 CL   LIG    1        2.461  10.858  -0.202  0.00  0.00    -0.083 Cl
ATOM     22  C   LIG    1        2.088   8.368   0.980  0.00  0.00    +0.019 A 
ATOM     23  C   LIG    1        2.112   6.963   0.810  0.00  0.00    +0.026 A 
BRANCH  22  24
ATOM     24  C   LIG    1        1.837   8.921   2.341  0.00  0.00    +0.072 A 
ATOM     25  N   LIG    1        2.281   8.140   3.363  0.00  0.00    -0.255 NA
ATOM     26  C   LIG    1        2.083   8.570   4.634  0.00  0.00    +0.111 A 
ATOM     27  C   LIG    1        1.467   9.763   4.959  0.00  0.00    +0.020 A 
ATOM     28  C   LIG    1        1.008  10.554   3.919  0.00  0.00    +0.004 A 
ATOM     29  C   LIG    1        1.173  10.120   2.603  0.00  0.00    +0.028 A 
ENDBRANCH  22  24
ENDBRANCH  14  16
ENDBRANCH   4  12
BRANCH   1  30
ATOM     30  C   LIG    1        2.520  -0.715  -1.057  0.00  0.00    +0.236 C 
ATOM     31  N   LIG    1        1.433  -0.940  -0.414  0.00  0.00    -0.243 NA
BRANCH  30  32
ATOM     32  O   LIG    1        3.440  -1.661  -1.358  0.00  0.00    -0.491 OA
ATOM     33  H   LIG    1        4.175  -1.242  -1.846  0.00  0.00    +0.294 HD
ENDBRANCH  30  32
BRANCH  31  34
ATOM     34  C   LIG    1        1.200  -2.340  -0.060  0.00  0.00    +0.201 C 
BRANCH  34  35
ATOM     35  C   LIG    1        1.653  -2.608   1.319  0.00  0.00    +0.077 A 
ATOM     36  N   LIG    1        1.512  -3.828   1.918  0.00  0.00    -0.260 N 
ATOM     37  H   LIG    1        1.109  -4.685   1.556  0.00  0.00    +0.190 HD
ATOM     38  N   LIG    1        2.004  -3.824   3.165  0.00  0.00    -0.068 NA
ATOM     39  N   LIG    1        2.480  -2.609   3.402  0.00  0.00    -0.138 NA
ATOM     40  C   LIG    1        2.276  -1.852   2.285  0.00  0.00    +0.161 A 
ENDBRANCH  34  35
ENDBRANCH  31  34
ENDBRANCH   1  30
TORSDOF 8
