REMARK  Name = pdb/CHEMBL3970342.pdb
REMARK                            x       y       z     vdW  Elec       q    Type
REMARK                         _______ _______ _______ _____ _____    ______ ____
ROOT
ATOM      1  C   LIG    1        4.353   3.271  10.559  0.00  0.00    +0.323 A 
ATOM      2  N   LIG    1        3.073   3.133  10.161  0.00  0.00    -0.201 NA
ATOM      3  C   LIG    1        2.124   3.429  11.075  0.00  0.00    +0.145 A 
ATOM      4  C   LIG    1        2.390   3.771  12.386  0.00  0.00    +0.105 A 
ATOM      5  C   LIG    1        3.740   3.803  12.687  0.00  0.00    +0.145 A 
ATOM      6  N   LIG    1        4.740   3.558  11.810  0.00  0.00    -0.201 NA
ENDROOT
BRANCH   4   7
ATOM      7  N   LIG    1        1.367   4.173  13.270  0.00  0.00    -0.196 NA
ATOM      8  C   LIG    1        1.344   3.728  14.480  0.00  0.00    +0.285 C 
BRANCH   8   9
ATOM      9  N   LIG    1        0.457   4.041  15.468  0.00  0.00    -0.268 N 
ATOM     10  H   LIG    1        0.064   3.245  15.960  0.00  0.00    +0.157 HD
BRANCH   9  11
ATOM     11  C   LIG    1       -0.385   5.178  15.529  0.00  0.00    +0.054 A 
ATOM     12  C   LIG    1       -1.545   5.154  16.324  0.00  0.00    +0.062 A 
ATOM     13 CL   LIG    1       -2.009   3.707  17.154  0.00  0.00    -0.082 Cl
ATOM     14  C   LIG    1       -2.346   6.290  16.475  0.00  0.00    +0.022 A 
ATOM     15  C   LIG    1       -1.969   7.491  15.872  0.00  0.00    +0.014 A 
ATOM     16  C   LIG    1       -0.800   7.557  15.100  0.00  0.00    +0.057 A 
ATOM     17  C   LIG    1       -0.038   6.388  14.910  0.00  0.00    +0.037 A 
BRANCH  16  18
ATOM     18  C   LIG    1       -0.332   8.874  14.524  0.00  0.00    +0.417 C 
ATOM     19  F   LIG    1       -0.111   9.806  15.494  0.00  0.00    -0.166 F 
ATOM     20  F   LIG    1       -1.236   9.428  13.672  0.00  0.00    -0.166 F 
ATOM     21  F   LIG    1        0.835   8.782  13.829  0.00  0.00    -0.166 F 
ENDBRANCH  16  18
ENDBRANCH   9  11
ENDBRANCH   8   9
BRANCH   8  22
ATOM     22  O   LIG    1        2.257   2.845  14.923  0.00  0.00    -0.481 OA
ATOM     23  H   LIG    1        2.186   2.714  15.880  0.00  0.00    +0.295 HD
ENDBRANCH   8  22
ENDBRANCH   4   7
BRANCH   1  24
ATOM     24  O   LIG    1        5.379   3.176   9.627  0.00  0.00    -0.424 OA
BRANCH  24  28
ATOM     25  C   LIG    1        4.736   4.069   5.578  0.00  0.00    -0.010 A 
ATOM     26  C   LIG    1        5.746   3.190   5.990  0.00  0.00    +0.012 A 
ATOM     27  C   LIG    1        5.934   2.910   7.351  0.00  0.00    +0.047 A 
ATOM     28  C   LIG    1        5.118   3.508   8.315  0.00  0.00    +0.132 A 
ATOM     29  C   LIG    1        4.150   4.430   7.905  0.00  0.00    +0.047 A 
ATOM     30  C   LIG    1        3.935   4.678   6.549  0.00  0.00    +0.012 A 
BRANCH  25  33
ATOM     31  C   LIG    1        4.277   5.567   1.958  0.00  0.00    +0.156 A 
ATOM     32  S   LIG    1        5.209   5.820   3.468  0.00  0.00    -0.053 S 
ATOM     33  C   LIG    1        4.506   4.379   4.173  0.00  0.00    +0.038 A 
ATOM     34  C   LIG    1        3.683   3.759   3.309  0.00  0.00    +0.100 A 
ATOM     35  N   LIG    1        3.602   4.379   2.089  0.00  0.00    -0.342 N 
ATOM     36  H   LIG    1        2.914   4.114   1.396  0.00  0.00    +0.167 HD
BRANCH  31  37
ATOM     37  N   LIG    1        4.207   6.346   0.944  0.00  0.00    -0.228 NA
BRANCH  37  38
ATOM     38  C   LIG    1        4.955   7.604   0.964  0.00  0.00    +0.130 C 
BRANCH  38  40
ATOM     39  C   LIG    1        5.442   9.659  -0.415  0.00  0.00    +0.005 C 
ATOM     40  C   LIG    1        4.704   8.331  -0.357  0.00  0.00    +0.017 C 
ENDBRANCH  38  40
ENDBRANCH  37  38
ENDBRANCH  31  37
ENDBRANCH  25  33
ENDBRANCH  24  28
ENDBRANCH   1  24
TORSDOF 11
