REMARK  Name = pdb/CHEMBL3676041.pdb
REMARK                            x       y       z     vdW  Elec       q    Type
REMARK                         _______ _______ _______ _____ _____    ______ ____
ROOT
ATOM      1  C   LIG    1        6.705   3.480  -2.808  0.00  0.00    +0.100 A 
ATOM      2  C   LIG    1        6.482   4.846  -2.930  0.00  0.00    +0.170 A 
ATOM      3  N   LIG    1        5.852   5.766  -2.127  0.00  0.00    -0.212 NA
ATOM      4  C   LIG    1        5.701   6.993  -2.582  0.00  0.00    +0.126 A 
ATOM      5  C   LIG    1        6.251   7.414  -3.927  0.00  0.00    +0.063 A 
ATOM      6  C   LIG    1        6.885   6.490  -4.654  0.00  0.00    +0.118 A 
ATOM      7  N   LIG    1        7.013   5.200  -4.175  0.00  0.00    -0.221 N 
ATOM      8  N   LIG    1        7.624   4.164  -4.794  0.00  0.00    -0.173 NA
ATOM      9  C   LIG    1        7.421   3.136  -3.974  0.00  0.00    +0.150 A 
ENDROOT
BRANCH   4  10
ATOM     10  N   LIG    1        5.037   7.943  -1.818  0.00  0.00    -0.308 N 
ATOM     11  C   LIG    1        4.607   7.707  -0.429  0.00  0.00    +0.108 C 
ATOM     12  C   LIG    1        3.406   8.654  -0.248  0.00  0.00    +0.029 C 
ATOM     13  C   LIG    1        3.689   9.794  -1.211  0.00  0.00    +0.021 C 
ATOM     14  C   LIG    1        4.330   9.086  -2.394  0.00  0.00    +0.107 C 
BRANCH  11  15
ATOM     15  C   LIG    1        5.722   8.002   0.558  0.00  0.00    +0.011 A 
ATOM     16  C   LIG    1        5.713   7.380   1.813  0.00  0.00    +0.129 A 
ATOM     17  F   LIG    1        4.718   6.540   2.134  0.00  0.00    -0.205 F 
ATOM     18  C   LIG    1        6.716   7.611   2.756  0.00  0.00    +0.041 A 
ATOM     19  C   LIG    1        7.756   8.488   2.456  0.00  0.00    +0.041 A 
ATOM     20  C   LIG    1        7.771   9.125   1.222  0.00  0.00    +0.124 A 
ATOM     21  F   LIG    1        8.763   9.977   0.932  0.00  0.00    -0.205 F 
ATOM     22  C   LIG    1        6.771   8.895   0.280  0.00  0.00    +0.046 A 
ENDBRANCH  11  15
ENDBRANCH   4  10
BRANCH   1  25
ATOM     23  N   LIG    1        6.240   3.101  -0.501  0.00  0.00    -0.309 N 
ATOM     24  H   LIG    1        6.480   4.084  -0.389  0.00  0.00    +0.149 HD
ATOM     25  C   LIG    1        6.317   2.564  -1.758  0.00  0.00    +0.249 C 
ATOM     26  O   LIG    1        6.109   1.369  -1.991  0.00  0.00    -0.270 OA
BRANCH  23  27
ATOM     27  C   LIG    1        5.994   2.283   0.672  0.00  0.00    +0.132 C 
BRANCH  27  28
ATOM     28  C   LIG    1        7.268   1.672   1.281  0.00  0.00    +0.178 C 
BRANCH  28  30
ATOM     29  C   LIG    1        7.755   3.351   2.916  0.00  0.00    +0.194 C 
ATOM     30  O   LIG    1        8.203   2.641   1.770  0.00  0.00    -0.381 OA
ENDBRANCH  28  30
ENDBRANCH  27  28
ENDBRANCH  23  27
ENDBRANCH   1  25
TORSDOF 6
