REMARK  Name = pdb/CHEMBL3666259.pdb
REMARK                            x       y       z     vdW  Elec       q    Type
REMARK                         _______ _______ _______ _____ _____    ______ ____
ROOT
ATOM      1  C   LIG    1        4.895   3.057   4.811  0.00  0.00    +0.042 A 
ATOM      2  C   LIG    1        4.185   3.548   5.915  0.00  0.00    +0.038 A 
ATOM      3  C   LIG    1        4.782   4.484   6.769  0.00  0.00    +0.052 A 
ATOM      4  C   LIG    1        6.070   4.912   6.447  0.00  0.00    +0.134 A 
ATOM      5  N   LIG    1        6.782   4.452   5.387  0.00  0.00    -0.261 NA
ATOM      6  C   LIG    1        6.190   3.518   4.614  0.00  0.00    +0.122 A 
ENDROOT
BRANCH   3   7
ATOM      7  N   LIG    1        4.048   4.918   7.896  0.00  0.00    -0.284 N 
ATOM      8  H   LIG    1        3.126   4.514   8.015  0.00  0.00    +0.155 HD
ATOM      9  C   LIG    1        4.494   5.788   8.883  0.00  0.00    +0.222 C 
ATOM     10  O   LIG    1        5.613   6.287   8.929  0.00  0.00    -0.275 OA
BRANCH   9  11
ATOM     11  C   LIG    1        3.446   6.039   9.964  0.00  0.00    +0.131 C 
BRANCH  11  12
ATOM     12  C   LIG    1        3.559   7.406  10.596  0.00  0.00    -0.038 A 
ATOM     13  C   LIG    1        4.391   7.618  11.707  0.00  0.00    +0.016 A 
ATOM     14  C   LIG    1        4.540   8.900  12.265  0.00  0.00    +0.055 A 
ATOM     15  C   LIG    1        3.835   9.972  11.698  0.00  0.00    +0.012 A 
ATOM     16  C   LIG    1        3.010   9.770  10.592  0.00  0.00    +0.001 A 
ATOM     17  C   LIG    1        2.877   8.496  10.041  0.00  0.00    +0.004 A 
BRANCH  14  18
ATOM     18  C   LIG    1        5.457   9.108  13.445  0.00  0.00    +0.417 C 
ATOM     19  F   LIG    1        6.744   8.746  13.182  0.00  0.00    -0.166 F 
ATOM     20  F   LIG    1        5.080   8.378  14.532  0.00  0.00    -0.166 F 
ATOM     21  F   LIG    1        5.515  10.402  13.871  0.00  0.00    -0.166 F 
ENDBRANCH  14  18
ENDBRANCH  11  12
ENDBRANCH   9  11
ENDBRANCH   3   7
BRANCH   1  22
ATOM     22  C   LIG    1        4.307   2.017   3.930  0.00  0.00    +0.197 C 
ATOM     23  O   LIG    1        3.508   1.216   4.420  0.00  0.00    -0.287 OA
BRANCH  22  31
ATOM     24  N   LIG    1        5.476   2.546   0.483  0.00  0.00    -0.323 N 
ATOM     25  C   LIG    1        5.178   1.200   0.434  0.00  0.00    +0.147 A 
ATOM     26  N   LIG    1        5.308   0.407  -0.639  0.00  0.00    -0.197 NA
ATOM     27  C   LIG    1        4.924  -0.854  -0.428  0.00  0.00    +0.214 A 
ATOM     28  N   LIG    1        4.500  -1.368   0.732  0.00  0.00    -0.222 NA
ATOM     29  C   LIG    1        4.381  -0.546   1.802  0.00  0.00    +0.126 A 
ATOM     30  C   LIG    1        4.707   0.803   1.678  0.00  0.00    +0.048 A 
ATOM     31  C   LIG    1        4.705   1.947   2.526  0.00  0.00    +0.051 A 
ATOM     32  C   LIG    1        5.127   3.008   1.736  0.00  0.00    +0.100 A 
BRANCH  24  34
ATOM     33  C   LIG    1        7.651   3.299  -0.392  0.00  0.00    +0.036 C 
ATOM     34  C   LIG    1        6.121   3.357  -0.579  0.00  0.00    +0.064 C 
ATOM     35  C   LIG    1        5.684   4.841  -0.496  0.00  0.00    +0.036 C 
BRANCH  34  36
ATOM     36  C   LIG    1        5.804   2.867  -2.020  0.00  0.00    +0.183 C 
BRANCH  36  37
ATOM     37  O   LIG    1        4.406   2.867  -2.295  0.00  0.00    -0.393 OA
ATOM     38  H   LIG    1        4.039   2.088  -1.833  0.00  0.00    +0.209 HD
ENDBRANCH  36  37
ENDBRANCH  34  36
ENDBRANCH  24  34
BRANCH  27  39
ATOM     39  N   LIG    1        4.992  -1.707  -1.511  0.00  0.00    -0.327 N 
ATOM     40  H   LIG    1        5.669  -1.371  -2.180  0.00  0.00    +0.145 HD
ATOM     41  H   LIG    1        5.081  -2.662  -1.193  0.00  0.00    +0.145 HD
ENDBRANCH  27  39
ENDBRANCH  22  31
ENDBRANCH   1  22
TORSDOF 10
