REMARK  Name = pdb/CHEMBL3673436.pdb
REMARK                            x       y       z     vdW  Elec       q    Type
REMARK                         _______ _______ _______ _____ _____    ______ ____
ROOT
ATOM      1  C   LIG    1        5.417   8.062 -10.930  0.00  0.00    +0.160 C 
ENDROOT
BRANCH   1   2
ATOM      2  N   LIG    1        6.584   8.945 -10.797  0.00  0.00    -0.308 N 
ATOM      3  C   LIG    1        6.698   9.921  -9.832  0.00  0.00    +0.070 A 
ATOM      4  C   LIG    1        5.997  10.157  -8.664  0.00  0.00    +0.028 A 
ATOM      5  C   LIG    1        6.346  11.266  -7.909  0.00  0.00    +0.011 A 
ATOM      6  C   LIG    1        7.356  12.131  -8.334  0.00  0.00    -0.013 A 
ATOM      7  C   LIG    1        8.064  11.875  -9.521  0.00  0.00    +0.038 A 
ATOM      8  C   LIG    1        7.735  10.721 -10.271  0.00  0.00    +0.091 A 
ATOM      9  N   LIG    1        8.320  10.218 -11.379  0.00  0.00    -0.215 NA
ATOM     10  C   LIG    1        7.658   9.078 -11.650  0.00  0.00    +0.194 A 
BRANCH   6  11
ATOM     11  C   LIG    1        7.675  13.284  -7.523  0.00  0.00    +0.020 A 
ATOM     12  C   LIG    1        7.515  13.341  -6.155  0.00  0.00    +0.116 A 
ATOM     13  N   LIG    1        7.911  14.588  -5.781  0.00  0.00    -0.274 N 
ATOM     14  C   LIG    1        7.899  15.112  -4.439  0.00  0.00    +0.172 C 
ATOM     15  N   LIG    1        8.315  15.356  -6.808  0.00  0.00    -0.179 NA
ATOM     16  C   LIG    1        8.176  14.556  -7.869  0.00  0.00    +0.142 A 
ENDBRANCH   6  11
BRANCH  10  17
ATOM     17  N   LIG    1        8.054   8.246 -12.578  0.00  0.00    -0.329 N 
ATOM     18  H   LIG    1        8.881   8.484 -13.117  0.00  0.00    +0.145 HD
ATOM     19  H   LIG    1        7.525   7.455 -12.938  0.00  0.00    +0.145 HD
ENDBRANCH  10  17
ENDBRANCH   1   2
BRANCH   1  23
ATOM     20  C   LIG    1        5.375   4.868  -7.878  0.00  0.00    +0.162 A 
ATOM     21  C   LIG    1        5.821   4.716  -9.197  0.00  0.00    +0.162 A 
ATOM     22  C   LIG    1        5.849   5.798 -10.094  0.00  0.00    +0.054 A 
ATOM     23  C   LIG    1        5.296   7.032  -9.813  0.00  0.00    -0.024 A 
ATOM     24  C   LIG    1        4.612   7.113  -8.594  0.00  0.00    +0.009 A 
ATOM     25  C   LIG    1        4.685   6.066  -7.621  0.00  0.00    +0.050 A 
BRANCH  21  26
ATOM     26  O   LIG    1        5.977   3.448  -9.686  0.00  0.00    -0.491 OA
ATOM     27  C   LIG    1        6.905   3.302 -10.749  0.00  0.00    +0.277 C 
ENDBRANCH  21  26
BRANCH  20  28
ATOM     28  O   LIG    1        5.440   3.879  -6.887  0.00  0.00    -0.484 OA
BRANCH  28  29
ATOM     29  C   LIG    1        6.720   3.172  -6.788  0.00  0.00    +0.264 C 
BRANCH  29  33
ATOM     30  C   LIG    1        7.196  -0.774  -4.855  0.00  0.00    +0.120 A 
ATOM     31  C   LIG    1        8.200  -0.183  -5.604  0.00  0.00    +0.046 A 
ATOM     32  C   LIG    1        8.059   1.131  -6.090  0.00  0.00    +0.010 A 
ATOM     33  C   LIG    1        6.879   1.891  -5.914  0.00  0.00    -0.010 A 
ATOM     34  C   LIG    1        5.952   1.359  -5.011  0.00  0.00    +0.010 A 
ATOM     35  C   LIG    1        6.107   0.035  -4.494  0.00  0.00    +0.046 A 
BRANCH  30  37
ATOM     36  C   LIG    1        8.439  -2.793  -4.488  0.00  0.00    +0.277 C 
ATOM     37  O   LIG    1        7.180  -2.103  -4.502  0.00  0.00    -0.495 OA
ENDBRANCH  30  37
ENDBRANCH  29  33
ENDBRANCH  28  29
ENDBRANCH  20  28
ENDBRANCH   1  23
TORSDOF 9
