REMARK  Name = pdb/CHEMBL3904254.pdb
REMARK                            x       y       z     vdW  Elec       q    Type
REMARK                         _______ _______ _______ _____ _____    ______ ____
ROOT
ATOM      1  C   LIG    1        3.422  -1.232   0.579  0.00  0.00    +0.149 A 
ATOM      2  N   LIG    1        3.146  -2.313   1.327  0.00  0.00    -0.160 NA
ATOM      3  N   LIG    1        3.810  -2.111   2.497  0.00  0.00    -0.218 N 
ATOM      4  C   LIG    1        4.445  -0.854   2.537  0.00  0.00    +0.129 A 
ATOM      5  C   LIG    1        4.258  -0.323   1.273  0.00  0.00    +0.078 A 
ENDROOT
BRANCH   3   6
ATOM      6  C   LIG    1        3.760  -3.109   3.512  0.00  0.00    +0.067 A 
ATOM      7  C   LIG    1        2.716  -4.047   3.548  0.00  0.00    +0.028 A 
ATOM      8  C   LIG    1        2.646  -4.970   4.599  0.00  0.00    +0.002 A 
ATOM      9  C   LIG    1        3.632  -4.992   5.585  0.00  0.00    +0.000 A 
ATOM     10  C   LIG    1        4.702  -4.107   5.513  0.00  0.00    +0.002 A 
ATOM     11  C   LIG    1        4.768  -3.179   4.476  0.00  0.00    +0.028 A 
ENDBRANCH   3   6
BRANCH   4  12
ATOM     12  N   LIG    1        5.064  -0.240   3.654  0.00  0.00    -0.266 N 
ATOM     13  H   LIG    1        5.002  -0.720   4.544  0.00  0.00    +0.157 HD
ATOM     14  C   LIG    1        5.713   1.042   3.641  0.00  0.00    +0.251 C 
ATOM     15  O   LIG    1        5.711   1.712   2.611  0.00  0.00    -0.270 OA
BRANCH  14  16
ATOM     16  C   LIG    1        6.329   1.598   4.881  0.00  0.00    +0.056 A 
ATOM     17  C   LIG    1        6.981   0.856   5.873  0.00  0.00    +0.056 A 
ATOM     18 CL   LIG    1        7.295  -0.828   5.729  0.00  0.00    -0.083 Cl
ATOM     19  C   LIG    1        7.512   1.499   7.001  0.00  0.00    +0.059 A 
ATOM     20  C   LIG    1        7.476   2.890   7.103  0.00  0.00    +0.134 A 
ATOM     21  F   LIG    1        8.001   3.444   8.206  0.00  0.00    -0.205 F 
ATOM     22  C   LIG    1        6.942   3.685   6.085  0.00  0.00    +0.036 A 
ATOM     23  C   LIG    1        6.331   3.002   5.006  0.00  0.00    +0.027 A 
BRANCH  22  24
ATOM     24  C   LIG    1        7.048   5.162   6.069  0.00  0.00    +0.074 A 
ATOM     25  N   LIG    1        6.111   5.800   5.321  0.00  0.00    -0.255 NA
ATOM     26  C   LIG    1        6.205   7.145   5.194  0.00  0.00    +0.111 A 
ATOM     27  C   LIG    1        7.200   7.908   5.778  0.00  0.00    +0.020 A 
ATOM     28  C   LIG    1        8.157   7.253   6.538  0.00  0.00    +0.004 A 
ATOM     29  C   LIG    1        8.085   5.868   6.683  0.00  0.00    +0.028 A 
ENDBRANCH  22  24
ENDBRANCH  14  16
ENDBRANCH   4  12
BRANCH   1  30
ATOM     30  C   LIG    1        2.805  -1.099  -0.740  0.00  0.00    +0.236 C 
ATOM     31  N   LIG    1        2.990  -0.061  -1.475  0.00  0.00    -0.243 NA
BRANCH  30  32
ATOM     32  O   LIG    1        2.003  -2.137  -1.081  0.00  0.00    -0.491 OA
ATOM     33  H   LIG    1        2.011  -2.792  -0.356  0.00  0.00    +0.294 HD
ENDBRANCH  30  32
BRANCH  31  34
ATOM     34  C   LIG    1        2.273  -0.039  -2.749  0.00  0.00    +0.201 C 
BRANCH  34  35
ATOM     35  C   LIG    1        3.254   0.071  -3.845  0.00  0.00    +0.077 A 
ATOM     36  N   LIG    1        3.724   1.257  -4.333  0.00  0.00    -0.260 N 
ATOM     37  H   LIG    1        3.511   2.206  -4.048  0.00  0.00    +0.190 HD
ATOM     38  N   LIG    1        4.590   1.063  -5.340  0.00  0.00    -0.068 NA
ATOM     39  N   LIG    1        4.704  -0.246  -5.522  0.00  0.00    -0.138 NA
ATOM     40  C   LIG    1        3.894  -0.869  -4.618  0.00  0.00    +0.161 A 
ENDBRANCH  34  35
ENDBRANCH  31  34
ENDBRANCH   1  30
TORSDOF 8
