REMARK  Name = pdb/CHEMBL3678289.pdb
REMARK                            x       y       z     vdW  Elec       q    Type
REMARK                         _______ _______ _______ _____ _____    ______ ____
ROOT
ATOM      1  C   LIG    1        5.400   4.914 -12.215  0.00  0.00    +0.161 C 
ENDROOT
BRANCH   1   2
ATOM      2  N   LIG    1        4.380   5.923 -12.373  0.00  0.00    -0.293 N 
ATOM      3  C   LIG    1        3.115   5.656 -12.821  0.00  0.00    +0.162 A 
ATOM      4  N   LIG    1        2.558   4.447 -13.034  0.00  0.00    -0.234 NA
ATOM      5  C   LIG    1        1.327   4.548 -13.592  0.00  0.00    +0.130 A 
ATOM      6  C   LIG    1        0.689   5.739 -13.948  0.00  0.00    +0.045 A 
ATOM      7  C   LIG    1        1.300   6.960 -13.658  0.00  0.00    +0.050 A 
ATOM      8  C   LIG    1        2.563   6.905 -13.067  0.00  0.00    +0.111 A 
ATOM      9  N   LIG    1        3.425   7.902 -12.699  0.00  0.00    -0.213 NA
ATOM     10  C   LIG    1        4.507   7.289 -12.282  0.00  0.00    +0.195 A 
BRANCH  10  11
ATOM     11  N   LIG    1        5.602   7.910 -11.826  0.00  0.00    -0.329 N 
ATOM     12  H   LIG    1        5.578   8.924 -11.894  0.00  0.00    +0.145 HD
ATOM     13  H   LIG    1        6.533   7.527 -11.930  0.00  0.00    +0.145 HD
ENDBRANCH  10  11
BRANCH   6  14
ATOM     14  C   LIG    1       -0.513   5.703 -14.692  0.00  0.00    -0.065 C 
ATOM     15  C   LIG    1       -1.474   5.629 -15.442  0.00  0.00    -0.095 C 
BRANCH  15  16
ATOM     16  C   LIG    1       -2.546   5.471 -16.421  0.00  0.00    +0.117 C 
BRANCH  16  17
ATOM     17  C   LIG    1       -1.988   5.075 -17.790  0.00  0.00    +0.168 C 
BRANCH  17  18
ATOM     18  O   LIG    1       -1.304   3.825 -17.733  0.00  0.00    -0.394 OA
ATOM     19  H   LIG    1       -0.515   3.959 -17.178  0.00  0.00    +0.209 HD
ENDBRANCH  17  18
ENDBRANCH  16  17
ENDBRANCH  15  16
ENDBRANCH   6  14
ENDBRANCH   1   2
BRANCH   1  23
ATOM     20  C   LIG    1        6.093   3.198  -8.298  0.00  0.00    +0.162 A 
ATOM     21  C   LIG    1        6.790   2.749  -9.423  0.00  0.00    +0.162 A 
ATOM     22  C   LIG    1        6.478   3.314 -10.673  0.00  0.00    +0.054 A 
ATOM     23  C   LIG    1        5.549   4.349 -10.837  0.00  0.00    -0.024 A 
ATOM     24  C   LIG    1        4.821   4.733  -9.740  0.00  0.00    +0.009 A 
ATOM     25  C   LIG    1        5.035   4.065  -8.546  0.00  0.00    +0.050 A 
BRANCH  21  26
ATOM     26  O   LIG    1        7.774   1.799  -9.298  0.00  0.00    -0.491 OA
ATOM     27  C   LIG    1        7.952   0.965 -10.449  0.00  0.00    +0.277 C 
ENDBRANCH  21  26
BRANCH  20  28
ATOM     28  O   LIG    1        6.370   2.731  -7.042  0.00  0.00    -0.484 OA
BRANCH  28  29
ATOM     29  C   LIG    1        6.095   3.501  -5.830  0.00  0.00    +0.266 C 
BRANCH  29  33
ATOM     30  C   LIG    1        4.642   7.417  -6.590  0.00  0.00    +0.214 A 
ATOM     31  N   LIG    1        5.974   7.212  -6.531  0.00  0.00    -0.221 NA
ATOM     32  C   LIG    1        6.391   5.968  -6.210  0.00  0.00    +0.121 A 
ATOM     33  C   LIG    1        5.541   4.917  -5.883  0.00  0.00    +0.008 A 
ATOM     34  C   LIG    1        4.160   5.197  -5.851  0.00  0.00    +0.013 A 
ATOM     35  C   LIG    1        3.704   6.443  -6.293  0.00  0.00    +0.067 A 
BRANCH  30  37
ATOM     36  C   LIG    1        5.023   9.709  -6.785  0.00  0.00    +0.279 C 
ATOM     37  O   LIG    1        4.168   8.611  -7.088  0.00  0.00    -0.480 OA
ENDBRANCH  30  37
ENDBRANCH  29  33
ENDBRANCH  28  29
ENDBRANCH  20  28
ENDBRANCH   1  23
TORSDOF 12
