REMARK  Name = pdb/CHEMBL601719.pdb
REMARK                            x       y       z     vdW  Elec       q    Type
REMARK                         _______ _______ _______ _____ _____    ______ ____
ROOT
ATOM      1  C   LIG    1        0.871   4.566   1.197  0.00  0.00    +0.161 A 
ATOM      2  C   LIG    1        1.007   5.951   0.992  0.00  0.00    +0.158 A 
ATOM      3  N   LIG    1        1.094   6.851   1.989  0.00  0.00    -0.236 NA
ATOM      4  C   LIG    1        1.008   6.383   3.255  0.00  0.00    +0.121 A 
ATOM      5  C   LIG    1        0.848   5.041   3.584  0.00  0.00    +0.007 A 
ATOM      6  C   LIG    1        0.811   4.124   2.519  0.00  0.00    +0.059 A 
ENDROOT
BRANCH   5   7
ATOM      7  C   LIG    1        0.674   4.598   4.959  0.00  0.00    +0.021 A 
ATOM      8  C   LIG    1        0.674   5.394   6.088  0.00  0.00    +0.117 A 
ATOM      9  N   LIG    1        0.399   4.572   7.154  0.00  0.00    -0.268 N 
ATOM     10  N   LIG    1        0.271   3.285   6.789  0.00  0.00    -0.179 NA
ATOM     11  C   LIG    1        0.422   3.305   5.470  0.00  0.00    +0.143 A 
BRANCH   9  12
ATOM     12  C   LIG    1        0.311   4.964   8.563  0.00  0.00    +0.110 C 
ATOM     13  C   LIG    1        0.176   3.773   9.528  0.00  0.00    +0.042 C 
ATOM     14  C   LIG    1       -1.236   3.188   9.523  0.00  0.00    +0.083 C 
ATOM     15  N   LIG    1       -2.232   4.218   9.824  0.00  0.00    -0.316 NA
ATOM     16  H   LIG    1       -3.158   3.788   9.804  0.00  0.00    +0.122 HD
ATOM     17  C   LIG    1       -2.192   5.304   8.847  0.00  0.00    +0.083 C 
ATOM     18  C   LIG    1       -0.821   5.973   8.816  0.00  0.00    +0.042 C 
ENDBRANCH   9  12
ENDBRANCH   5   7
BRANCH   2  19
ATOM     19  N   LIG    1        1.076   6.497  -0.290  0.00  0.00    -0.340 N 
ATOM     20  H   LIG    1        0.321   6.144  -0.866  0.00  0.00    +0.144 HD
ATOM     21  H   LIG    1        1.064   7.507  -0.184  0.00  0.00    +0.144 HD
ENDBRANCH   2  19
BRANCH   1  22
ATOM     22  O   LIG    1        0.776   3.782   0.074  0.00  0.00    -0.481 OA
BRANCH  22  24
ATOM     23  C   LIG    1        1.816   1.582   0.281  0.00  0.00    +0.057 C 
ATOM     24  C   LIG    1        0.511   2.373   0.162  0.00  0.00    +0.204 C 
BRANCH  24  25
ATOM     25  C   LIG    1       -0.307   1.883  -1.040  0.00  0.00    +0.032 A 
ATOM     26  C   LIG    1       -1.326   0.911  -0.859  0.00  0.00    +0.084 A 
ATOM     27 CL   LIG    1       -1.633   0.176   0.683  0.00  0.00    -0.080 Cl
ATOM     28  C   LIG    1       -2.113   0.469  -1.936  0.00  0.00    +0.142 A 
ATOM     29  F   LIG    1       -3.082  -0.439  -1.744  0.00  0.00    -0.204 F 
ATOM     30  C   LIG    1       -1.906   0.945  -3.218  0.00  0.00    +0.041 A 
ATOM     31  C   LIG    1       -0.882   1.859  -3.435  0.00  0.00    +0.023 A 
ATOM     32  C   LIG    1       -0.086   2.318  -2.368  0.00  0.00    +0.049 A 
ATOM     33 CL   LIG    1        1.191   3.399  -2.805  0.00  0.00    -0.083 Cl
ENDBRANCH  24  25
ENDBRANCH  22  24
ENDBRANCH   1  22
TORSDOF 6
