REMARK  Name = pdb/CHEMBL3675911.pdb
REMARK                            x       y       z     vdW  Elec       q    Type
REMARK                         _______ _______ _______ _____ _____    ______ ____
ROOT
ATOM      1  C   LIG    1        8.116  -4.252   0.850  0.00  0.00    +0.100 A 
ATOM      2  C   LIG    1        9.293  -4.080   1.545  0.00  0.00    +0.170 A 
ATOM      3  N   LIG    1       10.061  -2.967   1.780  0.00  0.00    -0.212 NA
ATOM      4  C   LIG    1       11.211  -3.126   2.401  0.00  0.00    +0.126 A 
ATOM      5  C   LIG    1       11.666  -4.479   2.896  0.00  0.00    +0.063 A 
ATOM      6  C   LIG    1       10.872  -5.526   2.650  0.00  0.00    +0.118 A 
ATOM      7  N   LIG    1        9.683  -5.351   1.967  0.00  0.00    -0.221 N 
ATOM      8  N   LIG    1        8.806  -6.307   1.587  0.00  0.00    -0.173 NA
ATOM      9  C   LIG    1        7.884  -5.642   0.889  0.00  0.00    +0.150 A 
ENDROOT
BRANCH   4  10
ATOM     10  N   LIG    1       12.027  -2.019   2.571  0.00  0.00    -0.308 N 
ATOM     11  C   LIG    1       13.113  -1.918   3.557  0.00  0.00    +0.108 C 
ATOM     12  C   LIG    1       12.919  -0.490   4.085  0.00  0.00    +0.029 C 
ATOM     13  C   LIG    1       12.538   0.288   2.838  0.00  0.00    +0.021 C 
ATOM     14  C   LIG    1       11.640  -0.689   2.088  0.00  0.00    +0.107 C 
BRANCH  11  15
ATOM     15  C   LIG    1       14.477  -2.171   2.933  0.00  0.00    +0.011 A 
ATOM     16  C   LIG    1       15.642  -2.061   3.708  0.00  0.00    +0.129 A 
ATOM     17  F   LIG    1       15.553  -1.745   5.007  0.00  0.00    -0.205 F 
ATOM     18  C   LIG    1       16.913  -2.276   3.166  0.00  0.00    +0.041 A 
ATOM     19  C   LIG    1       17.043  -2.628   1.825  0.00  0.00    +0.041 A 
ATOM     20  C   LIG    1       15.900  -2.765   1.049  0.00  0.00    +0.124 A 
ATOM     21  F   LIG    1       16.012  -3.114  -0.238  0.00  0.00    -0.205 F 
ATOM     22  C   LIG    1       14.634  -2.545   1.586  0.00  0.00    +0.046 A 
ENDBRANCH  11  15
ENDBRANCH   4  10
BRANCH   1  25
ATOM     23  N   LIG    1        7.716  -1.955   0.336  0.00  0.00    -0.308 N 
ATOM     24  H   LIG    1        8.541  -1.814   0.911  0.00  0.00    +0.149 HD
ATOM     25  C   LIG    1        7.301  -3.262   0.168  0.00  0.00    +0.249 C 
ATOM     26  O   LIG    1        6.342  -3.589  -0.503  0.00  0.00    -0.270 OA
BRANCH  23  30
ATOM     27  C   LIG    1        9.080   0.614  -1.908  0.00  0.00    +0.098 C 
ATOM     28  C   LIG    1        8.385  -0.660  -2.393  0.00  0.00    +0.016 C 
ATOM     29  C   LIG    1        7.001  -0.869  -1.777  0.00  0.00    +0.023 C 
ATOM     30  C   LIG    1        7.021  -0.812  -0.243  0.00  0.00    +0.073 C 
ATOM     31  C   LIG    1        7.651   0.512   0.218  0.00  0.00    +0.023 C 
ATOM     32  C   LIG    1        9.042   0.744  -0.382  0.00  0.00    +0.016 C 
BRANCH  27  33
ATOM     33  C   LIG    1        8.523   1.862  -2.581  0.00  0.00    +0.308 C 
ATOM     34  O   LIG    1        7.672   2.596  -2.102  0.00  0.00    -0.251 OA
BRANCH  33  35
ATOM     35  O   LIG    1        9.080   2.110  -3.787  0.00  0.00    -0.480 OA
ATOM     36  H   LIG    1        9.755   1.461  -4.059  0.00  0.00    +0.295 HD
ENDBRANCH  33  35
ENDBRANCH  27  33
ENDBRANCH  23  30
ENDBRANCH   1  25
TORSDOF 6
