REMARK  Name = pdb/CHEMBL3676074.pdb
REMARK                            x       y       z     vdW  Elec       q    Type
REMARK                         _______ _______ _______ _____ _____    ______ ____
ROOT
ATOM      1  C   LIG    1        9.504   0.311  -2.698  0.00  0.00    +0.105 C 
ATOM      2  N   LIG    1        9.024  -1.039  -3.040  0.00  0.00    -0.308 N 
ATOM      3  C   LIG    1        9.788  -2.048  -2.311  0.00  0.00    +0.107 C 
ATOM      4  C   LIG    1       11.083  -1.334  -1.935  0.00  0.00    +0.021 C 
ATOM      5  C   LIG    1       10.595   0.069  -1.632  0.00  0.00    +0.029 C 
ENDROOT
BRANCH   2   6
ATOM      6  C   LIG    1        7.959  -1.356  -3.876  0.00  0.00    +0.126 A 
ATOM      7  N   LIG    1        7.250  -2.442  -3.616  0.00  0.00    -0.212 NA
ATOM      8  C   LIG    1        6.138  -2.696  -4.386  0.00  0.00    +0.170 A 
ATOM      9  C   LIG    1        5.221  -3.741  -4.407  0.00  0.00    +0.100 A 
ATOM     10  C   LIG    1        4.276  -3.350  -5.383  0.00  0.00    +0.150 A 
ATOM     11  N   LIG    1        4.579  -2.205  -5.991  0.00  0.00    -0.173 NA
ATOM     12  N   LIG    1        5.743  -1.825  -5.413  0.00  0.00    -0.221 N 
ATOM     13  C   LIG    1        6.537  -0.743  -5.762  0.00  0.00    +0.118 A 
ATOM     14  C   LIG    1        7.647  -0.470  -5.065  0.00  0.00    +0.063 A 
BRANCH   9  15
ATOM     15  C   LIG    1        5.177  -4.981  -3.656  0.00  0.00    +0.249 C 
ATOM     16  N   LIG    1        6.191  -5.211  -2.757  0.00  0.00    -0.308 N 
ATOM     17  H   LIG    1        6.917  -4.500  -2.687  0.00  0.00    +0.149 HD
ATOM     18  O   LIG    1        4.272  -5.807  -3.857  0.00  0.00    -0.270 OA
BRANCH  16  19
ATOM     19  C   LIG    1        6.352  -6.459  -2.066  0.00  0.00    +0.073 C 
ATOM     20  C   LIG    1        6.137  -6.609  -0.587  0.00  0.00    +0.024 C 
ATOM     21  C   LIG    1        7.531  -6.631  -1.143  0.00  0.00    +0.024 C 
ENDBRANCH  16  19
ENDBRANCH   9  15
ENDBRANCH   2   6
BRANCH   1  24
ATOM     22  C   LIG    1        7.657   3.532  -1.725  0.00  0.00    +0.124 A 
ATOM     23  C   LIG    1        8.602   2.640  -2.257  0.00  0.00    +0.051 A 
ATOM     24  C   LIG    1        8.440   1.241  -2.140  0.00  0.00    -0.021 A 
ATOM     25  C   LIG    1        7.319   0.760  -1.446  0.00  0.00    +0.044 A 
ATOM     26  C   LIG    1        6.398   1.648  -0.908  0.00  0.00    +0.127 A 
ATOM     27  F   LIG    1        5.328   1.179  -0.252  0.00  0.00    -0.205 F 
ATOM     28  C   LIG    1        6.560   3.019  -1.034  0.00  0.00    +0.084 A 
BRANCH  22  29
ATOM     29  O   LIG    1        7.890   4.872  -1.937  0.00  0.00    -0.489 OA
BRANCH  29  30
ATOM     30  C   LIG    1        6.892   5.752  -1.382  0.00  0.00    +0.262 C 
BRANCH  30  31
ATOM     31  C   LIG    1        7.224   7.213  -1.713  0.00  0.00    +0.177 C 
BRANCH  31  32
ATOM     32  O   LIG    1        8.504   7.574  -1.188  0.00  0.00    -0.386 OA
ATOM     33  H   LIG    1        9.119   6.860  -1.442  0.00  0.00    +0.210 HD
ENDBRANCH  31  32
BRANCH  31  34
ATOM     34  C   LIG    1        6.165   8.154  -1.128  0.00  0.00    +0.190 C 
BRANCH  34  35
ATOM     35  O   LIG    1        4.865   7.857  -1.624  0.00  0.00    -0.392 OA
ATOM     36  H   LIG    1        4.831   8.155  -2.550  0.00  0.00    +0.210 HD
ENDBRANCH  34  35
ENDBRANCH  31  34
ENDBRANCH  30  31
ENDBRANCH  29  30
ENDBRANCH  22  29
ENDBRANCH   1  24
TORSDOF 10
