REMARK  Name = pdb/CHEMBL3979424.pdb
REMARK                            x       y       z     vdW  Elec       q    Type
REMARK                         _______ _______ _______ _____ _____    ______ ____
ROOT
ATOM      1  C   LIG    1        3.938   0.923  -0.663  0.00  0.00    +0.149 A 
ATOM      2  N   LIG    1        4.597   1.102  -1.820  0.00  0.00    -0.160 NA
ATOM      3  N   LIG    1        4.551   2.445  -2.036  0.00  0.00    -0.218 N 
ATOM      4  C   LIG    1        3.726   3.095  -1.110  0.00  0.00    +0.129 A 
ATOM      5  C   LIG    1        3.367   2.128  -0.199  0.00  0.00    +0.078 A 
ENDROOT
BRANCH   3   6
ATOM      6  C   LIG    1        5.288   3.010  -3.111  0.00  0.00    +0.067 A 
ATOM      7  C   LIG    1        5.766   4.322  -3.044  0.00  0.00    +0.028 A 
ATOM      8  C   LIG    1        6.423   4.889  -4.139  0.00  0.00    +0.002 A 
ATOM      9  C   LIG    1        6.635   4.136  -5.292  0.00  0.00    +0.000 A 
ATOM     10  C   LIG    1        6.221   2.806  -5.339  0.00  0.00    +0.002 A 
ATOM     11  C   LIG    1        5.561   2.236  -4.247  0.00  0.00    +0.028 A 
ENDBRANCH   3   6
BRANCH   4  12
ATOM     12  N   LIG    1        3.271   4.422  -1.150  0.00  0.00    -0.266 N 
ATOM     13  H   LIG    1        3.389   4.928  -2.024  0.00  0.00    +0.157 HD
ATOM     14  C   LIG    1        2.660   5.090  -0.032  0.00  0.00    +0.251 C 
ATOM     15  O   LIG    1        2.542   4.516   1.046  0.00  0.00    -0.270 OA
BRANCH  14  16
ATOM     16  C   LIG    1        2.172   6.483  -0.195  0.00  0.00    +0.056 A 
ATOM     17  C   LIG    1        2.749   7.431  -1.044  0.00  0.00    +0.056 A 
ATOM     18 CL   LIG    1        4.124   7.130  -2.027  0.00  0.00    -0.083 Cl
ATOM     19  C   LIG    1        2.236   8.727  -1.096  0.00  0.00    +0.059 A 
ATOM     20  C   LIG    1        1.162   9.093  -0.290  0.00  0.00    +0.134 A 
ATOM     21  F   LIG    1        0.720  10.354  -0.399  0.00  0.00    -0.205 F 
ATOM     22  C   LIG    1        0.561   8.193   0.598  0.00  0.00    +0.036 A 
ATOM     23  C   LIG    1        1.088   6.881   0.619  0.00  0.00    +0.027 A 
BRANCH  22  24
ATOM     24  C   LIG    1       -0.561   8.569   1.487  0.00  0.00    +0.074 A 
ATOM     25  N   LIG    1       -1.391   7.548   1.832  0.00  0.00    -0.252 NA
ATOM     26  C   LIG    1       -2.421   7.826   2.673  0.00  0.00    +0.149 A 
ATOM     27  C   LIG    1       -2.664   9.079   3.200  0.00  0.00    +0.141 A 
ATOM     28  F   LIG    1       -3.689   9.288   4.034  0.00  0.00    -0.204 F 
ATOM     29  C   LIG    1       -1.821  10.118   2.852  0.00  0.00    +0.042 A 
ATOM     30  C   LIG    1       -0.756   9.863   1.985  0.00  0.00    +0.031 A 
ENDBRANCH  22  24
ENDBRANCH  14  16
ENDBRANCH   4  12
BRANCH   1  31
ATOM     31  C   LIG    1        3.845  -0.402  -0.062  0.00  0.00    +0.236 C 
ATOM     32  N   LIG    1        3.153  -0.593   1.002  0.00  0.00    -0.244 NA
BRANCH  31  33
ATOM     33  O   LIG    1        4.530  -1.368  -0.719  0.00  0.00    -0.491 OA
ATOM     34  H   LIG    1        4.977  -0.969  -1.489  0.00  0.00    +0.294 HD
ENDBRANCH  31  33
BRANCH  32  35
ATOM     35  C   LIG    1        3.129  -1.965   1.508  0.00  0.00    +0.183 C 
BRANCH  35  36
ATOM     36  C   LIG    1        4.229  -2.166   2.485  0.00  0.00    +0.011 A 
ATOM     37  C   LIG    1        5.514  -2.607   2.242  0.00  0.00    +0.110 A 
ATOM     38  N   LIG    1        6.151  -2.623   3.446  0.00  0.00    -0.284 N 
ATOM     39  H   LIG    1        7.108  -2.893   3.646  0.00  0.00    +0.188 HD
ATOM     40  N   LIG    1        5.374  -2.224   4.465  0.00  0.00    -0.182 NA
ATOM     41  C   LIG    1        4.206  -1.946   3.881  0.00  0.00    +0.139 A 
ENDBRANCH  35  36
ENDBRANCH  32  35
ENDBRANCH   1  31
TORSDOF 8
