REMARK  Name = pdb/CHEMBL3659496.pdb
REMARK                            x       y       z     vdW  Elec       q    Type
REMARK                         _______ _______ _______ _____ _____    ______ ____
ROOT
ATOM      1  C   LIG    1        2.407  -1.362  -3.481  0.00  0.00    +0.218 A 
ATOM      2  N   LIG    1        2.213  -1.222  -4.800  0.00  0.00    -0.194 NA
ATOM      3  C   LIG    1        1.443  -2.203  -5.329  0.00  0.00    +0.171 A 
ATOM      4  N   LIG    1        1.128  -2.430  -6.654  0.00  0.00    -0.266 N 
ATOM      5  C   LIG    1        0.347  -3.570  -6.666  0.00  0.00    +0.207 A 
ATOM      6  N   LIG    1        0.167  -4.086  -5.470  0.00  0.00    -0.232 NA
ATOM      7  C   LIG    1        0.878  -3.257  -4.638  0.00  0.00    +0.126 A 
ATOM      8  C   LIG    1        1.128  -3.304  -3.276  0.00  0.00    +0.146 A 
ATOM      9  N   LIG    1        1.906  -2.345  -2.708  0.00  0.00    -0.221 NA
ENDROOT
BRANCH   4  10
ATOM     10  C   LIG    1        1.512  -1.679  -7.794  0.00  0.00    +0.162 A 
ATOM     11  N   LIG    1        1.532  -2.281  -8.990  0.00  0.00    -0.155 NA
ATOM     12  N   LIG    1        1.988  -1.315  -9.813  0.00  0.00    -0.279 N 
ATOM     13  H   LIG    1        2.156  -1.540 -10.786  0.00  0.00    +0.189 HD
ATOM     14  C   LIG    1        2.142  -0.108  -9.190  0.00  0.00    +0.041 A 
ATOM     15  C   LIG    1        1.878  -0.319  -7.858  0.00  0.00    +0.071 A 
BRANCH  14  16
ATOM     16  C   LIG    1        2.528   1.210  -9.827  0.00  0.00    +0.037 C 
ATOM     17  C   LIG    1        1.983   1.543 -11.201  0.00  0.00    +0.010 C 
ATOM     18  C   LIG    1        3.423   1.194 -11.047  0.00  0.00    +0.010 C 
ENDBRANCH  14  16
ENDBRANCH   4  10
BRANCH   1  19
ATOM     19  N   LIG    1        3.263  -0.431  -2.917  0.00  0.00    -0.305 N 
ATOM     20  H   LIG    1        3.267   0.396  -3.504  0.00  0.00    +0.150 HD
BRANCH  19  22
ATOM     21  C   LIG    1        4.569   0.202  -1.015  0.00  0.00    +0.034 C 
ATOM     22  C   LIG    1        3.151  -0.139  -1.493  0.00  0.00    +0.119 C 
BRANCH  22  23
ATOM     23  C   LIG    1        2.175   1.018  -1.224  0.00  0.00    +0.061 A 
ATOM     24  N   LIG    1        2.016   1.966  -2.192  0.00  0.00    -0.255 NA
ATOM     25  C   LIG    1        1.136   2.972  -1.940  0.00  0.00    +0.149 A 
ATOM     26  C   LIG    1        0.426   3.099  -0.760  0.00  0.00    +0.141 A 
ATOM     27  F   LIG    1       -0.415   4.124  -0.571  0.00  0.00    -0.204 F 
ATOM     28  C   LIG    1        0.600   2.144   0.226  0.00  0.00    +0.042 A 
ATOM     29  C   LIG    1        1.482   1.085  -0.007  0.00  0.00    +0.028 A 
ENDBRANCH  22  23
ENDBRANCH  19  22
ENDBRANCH   1  19
TORSDOF 5
