REMARK  Name = pdb/CHEMBL209466.pdb
REMARK                            x       y       z     vdW  Elec       q    Type
REMARK                         _______ _______ _______ _____ _____    ______ ____
ROOT
ATOM      1  C   LIG    1        5.217  -1.402  -2.139  0.00  0.00    +0.106 A 
ATOM      2  C   LIG    1        5.172  -2.708  -1.640  0.00  0.00    +0.098 A 
ATOM      3  C   LIG    1        5.712  -3.598  -2.644  0.00  0.00    +0.121 A 
ATOM      4  N   LIG    1        6.139  -3.055  -3.775  0.00  0.00    -0.202 NA
ATOM      5  S   LIG    1        5.908  -1.433  -3.698  0.00  0.00    +0.029 S 
ENDROOT
BRANCH   1  10
ATOM      6  C   LIG    1        4.694   3.445  -1.672  0.00  0.00    +0.129 C 
ATOM      7  N   LIG    1        4.518   2.061  -1.287  0.00  0.00    -0.302 N 
ATOM      8  H   LIG    1        3.737   1.835  -0.690  0.00  0.00    +0.150 HD
ATOM      9  C   LIG    1        5.036   1.062  -2.087  0.00  0.00    +0.304 C 
ATOM     10  N   LIG    1        4.799  -0.201  -1.567  0.00  0.00    -0.262 N 
ATOM     11  H   LIG    1        4.384  -0.262  -0.641  0.00  0.00    +0.157 HD
ATOM     12  O   LIG    1        5.658   1.333  -3.107  0.00  0.00    -0.253 OA
ENDBRANCH   1  10
BRANCH   2  13
ATOM     13  C   LIG    1        4.668  -3.035  -0.304  0.00  0.00    +0.246 C 
ATOM     14  N   LIG    1        4.661  -4.354   0.058  0.00  0.00    -0.325 N 
ATOM     15  H   LIG    1        4.378  -4.604   0.998  0.00  0.00    +0.145 HD
ATOM     16  H   LIG    1        5.070  -5.080  -0.510  0.00  0.00    +0.145 HD
ATOM     17  O   LIG    1        4.256  -2.180   0.473  0.00  0.00    -0.270 OA
ENDBRANCH   2  13
BRANCH   3  18
ATOM     18  S   LIG    1        5.968  -5.338  -2.503  0.00  0.00    -0.097 S 
BRANCH  18  19
ATOM     19  C   LIG    1        4.417  -6.035  -3.214  0.00  0.00    +0.080 C 
ATOM     20  C   LIG    1        4.164  -5.622  -4.664  0.00  0.00    +0.024 C 
BRANCH  19  21
ATOM     21  C   LIG    1        4.441  -7.557  -3.076  0.00  0.00    -0.034 A 
ATOM     22  C   LIG    1        3.489  -8.211  -2.276  0.00  0.00    +0.006 A 
ATOM     23  C   LIG    1        3.544  -9.596  -2.089  0.00  0.00    +0.020 A 
ATOM     24  C   LIG    1        4.541 -10.344  -2.710  0.00  0.00    +0.041 A 
ATOM     25 CL   LIG    1        4.630 -12.042  -2.443  0.00  0.00    -0.084 Cl
ATOM     26  C   LIG    1        5.471  -9.722  -3.537  0.00  0.00    +0.020 A 
ATOM     27  C   LIG    1        5.418  -8.338  -3.724  0.00  0.00    +0.006 A 
ENDBRANCH  19  21
ENDBRANCH  18  19
ENDBRANCH   3  18
TORSDOF 5
