REMARK  Name = pdb/CHEMBL3952175.pdb
REMARK                            x       y       z     vdW  Elec       q    Type
REMARK                         _______ _______ _______ _____ _____    ______ ____
ROOT
ATOM      1  C   LIG    1        2.163   4.891   0.937  0.00  0.00    +0.042 A 
ATOM      2  C   LIG    1        2.325   6.250   1.268  0.00  0.00    +0.042 A 
ATOM      3  C   LIG    1        2.239   7.248   0.281  0.00  0.00    +0.086 A 
ATOM      4  C   LIG    1        1.954   6.790  -1.011  0.00  0.00    +0.138 A 
ATOM      5  N   LIG    1        1.699   5.501  -1.355  0.00  0.00    -0.260 NA
ATOM      6  C   LIG    1        1.797   4.587  -0.367  0.00  0.00    +0.122 A 
ENDROOT
BRANCH   1   7
ATOM      7  C   LIG    1        2.389   3.811   1.954  0.00  0.00    +0.197 C 
ATOM      8  O   LIG    1        2.135   4.039   3.122  0.00  0.00    -0.287 OA
BRANCH   7  17
ATOM      9  N   LIG    1        3.921   0.932   0.239  0.00  0.00    -0.341 N 
ATOM     10  C   LIG    1        3.246   0.251   1.235  0.00  0.00    +0.089 A 
ATOM     11  C   LIG    1        3.034  -1.112   1.469  0.00  0.00    +0.165 A 
ATOM     12  F   LIG    1        3.442  -2.059   0.615  0.00  0.00    -0.202 F 
ATOM     13  C   LIG    1        2.345  -1.447   2.623  0.00  0.00    +0.151 A 
ATOM     14  N   LIG    1        1.910  -0.554   3.539  0.00  0.00    -0.260 NA
ATOM     15  C   LIG    1        2.094   0.771   3.299  0.00  0.00    +0.121 A 
ATOM     16  C   LIG    1        2.716   1.213   2.116  0.00  0.00    +0.032 A 
ATOM     17  C   LIG    1        2.909   2.503   1.509  0.00  0.00    +0.049 A 
ATOM     18  C   LIG    1        3.716   2.280   0.409  0.00  0.00    +0.099 A 
BRANCH   9  20
ATOM     19  C   LIG    1        3.866   0.045  -2.074  0.00  0.00    +0.030 C 
ATOM     20  C   LIG    1        4.722   0.337  -0.841  0.00  0.00    +0.081 C 
ATOM     21  C   LIG    1        5.935   1.187  -1.259  0.00  0.00    +0.030 C 
ENDBRANCH   9  20
ENDBRANCH   7  17
ENDBRANCH   1   7
BRANCH   3  22
ATOM     22  N   LIG    1        2.549   8.589   0.632  0.00  0.00    -0.214 NA
ATOM     23  C   LIG    1        2.142   9.611  -0.062  0.00  0.00    +0.210 C 
BRANCH  23  24
ATOM     24  O   LIG    1        1.334   9.465  -1.129  0.00  0.00    -0.494 OA
ATOM     25  H   LIG    1        1.253  10.292  -1.656  0.00  0.00    +0.293 HD
ENDBRANCH  23  24
BRANCH  23  26
ATOM     26  C   LIG    1        2.537  11.030   0.322  0.00  0.00    +0.238 C 
BRANCH  26  27
ATOM     27  N   LIG    1        2.060  12.084  -0.572  0.00  0.00    -0.262 N 
ATOM     28  N   LIG    1        1.922  11.835  -1.894  0.00  0.00    -0.179 NA
ATOM     29  C   LIG    1        1.476  12.985  -2.402  0.00  0.00    +0.146 A 
ATOM     30  C   LIG    1        1.309  13.981  -1.421  0.00  0.00    +0.092 A 
ATOM     31  C   LIG    1        1.694  13.360  -0.242  0.00  0.00    +0.121 A 
BRANCH  30  32
ATOM     32  C   LIG    1        0.830  15.361  -1.671  0.00  0.00    +0.420 C 
ATOM     33  F   LIG    1       -0.418  15.368  -2.204  0.00  0.00    -0.166 F 
ATOM     34  F   LIG    1        1.634  16.018  -2.544  0.00  0.00    -0.166 F 
ATOM     35  F   LIG    1        0.781  16.105  -0.538  0.00  0.00    -0.166 F 
ENDBRANCH  30  32
ENDBRANCH  26  27
ENDBRANCH  23  26
ENDBRANCH   3  22
TORSDOF 8
