REMARK  Name = pdb/CHEMBL3673452.pdb
REMARK                            x       y       z     vdW  Elec       q    Type
REMARK                         _______ _______ _______ _____ _____    ______ ____
ROOT
ATOM      1  C   LIG    1        5.513  -6.209 -11.507  0.00  0.00    +0.161 C 
ENDROOT
BRANCH   1   2
ATOM      2  N   LIG    1        5.105  -7.593 -11.551  0.00  0.00    -0.293 N 
ATOM      3  C   LIG    1        3.842  -8.076 -11.289  0.00  0.00    +0.162 A 
ATOM      4  N   LIG    1        2.735  -7.370 -10.965  0.00  0.00    -0.235 NA
ATOM      5  C   LIG    1        1.710  -8.166 -10.574  0.00  0.00    +0.121 A 
ATOM      6  C   LIG    1        1.708  -9.563 -10.540  0.00  0.00    +0.005 A 
ATOM      7  C   LIG    1        2.862 -10.232 -10.976  0.00  0.00    +0.041 A 
ATOM      8  C   LIG    1        3.960  -9.453 -11.356  0.00  0.00    +0.110 A 
ATOM      9  N   LIG    1        5.219  -9.804 -11.788  0.00  0.00    -0.213 NA
ATOM     10  C   LIG    1        5.862  -8.691 -11.912  0.00  0.00    +0.195 A 
BRANCH   6  11
ATOM     11  C   LIG    1        0.556 -10.287 -10.041  0.00  0.00    +0.021 A 
ATOM     12  C   LIG    1        0.170 -11.547 -10.448  0.00  0.00    +0.116 A 
ATOM     13  N   LIG    1       -0.956 -11.852  -9.739  0.00  0.00    -0.274 N 
ATOM     14  C   LIG    1       -1.722 -13.070  -9.838  0.00  0.00    +0.172 C 
ATOM     15  N   LIG    1       -1.338 -10.878  -8.895  0.00  0.00    -0.179 NA
ATOM     16  C   LIG    1       -0.416  -9.929  -9.075  0.00  0.00    +0.143 A 
ENDBRANCH   6  11
BRANCH  10  17
ATOM     17  N   LIG    1        7.144  -8.574 -12.346  0.00  0.00    -0.329 N 
ATOM     18  H   LIG    1        7.596  -9.475 -12.483  0.00  0.00    +0.145 HD
ATOM     19  H   LIG    1        7.761  -7.910 -11.916  0.00  0.00    +0.145 HD
ENDBRANCH  10  17
ENDBRANCH   1   2
BRANCH   1  23
ATOM     20  C   LIG    1        4.921  -4.303  -7.622  0.00  0.00    +0.162 A 
ATOM     21  C   LIG    1        3.912  -4.283  -8.598  0.00  0.00    +0.162 A 
ATOM     22  C   LIG    1        4.166  -4.958  -9.811  0.00  0.00    +0.054 A 
ATOM     23  C   LIG    1        5.374  -5.584 -10.136  0.00  0.00    -0.024 A 
ATOM     24  C   LIG    1        6.363  -5.597  -9.170  0.00  0.00    +0.009 A 
ATOM     25  C   LIG    1        6.126  -4.975  -7.938  0.00  0.00    +0.050 A 
BRANCH  21  26
ATOM     26  O   LIG    1        2.690  -3.687  -8.411  0.00  0.00    -0.491 OA
ATOM     27  C   LIG    1        1.989  -3.235  -9.590  0.00  0.00    +0.277 C 
ENDBRANCH  21  26
BRANCH  20  28
ATOM     28  O   LIG    1        5.043  -3.775  -6.371  0.00  0.00    -0.484 OA
BRANCH  28  29
ATOM     29  C   LIG    1        4.069  -3.071  -5.625  0.00  0.00    +0.264 C 
BRANCH  29  33
ATOM     30  C   LIG    1        5.386   0.889  -4.389  0.00  0.00    +0.120 A 
ATOM     31  C   LIG    1        5.669  -0.226  -3.603  0.00  0.00    +0.046 A 
ATOM     32  C   LIG    1        5.298  -1.510  -4.019  0.00  0.00    +0.010 A 
ATOM     33  C   LIG    1        4.607  -1.705  -5.226  0.00  0.00    -0.010 A 
ATOM     34  C   LIG    1        4.390  -0.590  -6.045  0.00  0.00    +0.010 A 
ATOM     35  C   LIG    1        4.760   0.698  -5.624  0.00  0.00    +0.046 A 
BRANCH  30  37
ATOM     36  C   LIG    1        6.705   2.341  -3.072  0.00  0.00    +0.277 C 
ATOM     37  O   LIG    1        5.639   2.183  -4.009  0.00  0.00    -0.495 OA
ENDBRANCH  30  37
ENDBRANCH  29  33
ENDBRANCH  28  29
ENDBRANCH  20  28
ENDBRANCH   1  23
TORSDOF 9
