REMARK  Name = pdb/CHEMBL3916029.pdb
REMARK                            x       y       z     vdW  Elec       q    Type
REMARK                         _______ _______ _______ _____ _____    ______ ____
ROOT
ATOM      1  C   LIG    1        3.934  -0.196   2.257  0.00  0.00    +0.282 C 
ATOM      2  N   LIG    1        4.004   1.018   1.804  0.00  0.00    -0.197 NA
ENDROOT
BRANCH   2   3
ATOM      3  C   LIG    1        3.479   2.156   2.486  0.00  0.00    +0.105 A 
ATOM      4  C   LIG    1        2.375   2.040   3.276  0.00  0.00    +0.145 A 
ATOM      5  N   LIG    1        1.893   2.960   4.125  0.00  0.00    -0.201 NA
ATOM      6  C   LIG    1        2.422   4.178   4.109  0.00  0.00    +0.323 A 
ATOM      7  N   LIG    1        3.419   4.507   3.261  0.00  0.00    -0.201 NA
ATOM      8  C   LIG    1        3.926   3.480   2.471  0.00  0.00    +0.145 A 
BRANCH   6   9
ATOM      9  O   LIG    1        1.922   5.133   5.032  0.00  0.00    -0.424 OA
BRANCH   9  10
ATOM     10  C   LIG    1        0.691   4.913   5.663  0.00  0.00    +0.132 A 
ATOM     11  C   LIG    1        0.350   5.627   6.835  0.00  0.00    +0.047 A 
ATOM     12  C   LIG    1       -0.935   5.504   7.456  0.00  0.00    +0.012 A 
ATOM     13  C   LIG    1       -1.895   4.631   6.935  0.00  0.00    -0.010 A 
ATOM     14  C   LIG    1       -1.512   3.917   5.789  0.00  0.00    +0.012 A 
ATOM     15  C   LIG    1       -0.288   4.078   5.151  0.00  0.00    +0.047 A 
BRANCH  13  16
ATOM     16  C   LIG    1       -3.254   4.418   7.484  0.00  0.00    +0.041 A 
ATOM     17  S   LIG    1       -4.280   3.299   6.668  0.00  0.00    -0.052 S 
ATOM     18  C   LIG    1       -5.547   3.584   7.740  0.00  0.00    +0.168 A 
ATOM     19  N   LIG    1       -5.286   4.416   8.706  0.00  0.00    -0.232 NA
ATOM     20  C   LIG    1       -3.986   4.922   8.553  0.00  0.00    +0.129 A 
BRANCH  18  21
ATOM     21  N   LIG    1       -6.691   2.877   7.424  0.00  0.00    -0.250 N 
ATOM     22  C   LIG    1       -7.678   2.648   8.430  0.00  0.00    +0.221 C 
ATOM     23  O   LIG    1       -7.701   2.960   9.551  0.00  0.00    -0.275 OA
ATOM     24  C   LIG    1       -8.725   1.757   7.792  0.00  0.00    +0.098 C 
ATOM     25  C   LIG    1       -8.482   1.911   6.292  0.00  0.00    +0.029 C 
ATOM     26  C   LIG    1       -6.982   2.161   6.221  0.00  0.00    +0.116 C 
ENDBRANCH  18  21
ENDBRANCH  13  16
ENDBRANCH   9  10
ENDBRANCH   6   9
ENDBRANCH   2   3
BRANCH   1  27
ATOM     27  N   LIG    1        3.512  -0.937   3.345  0.00  0.00    -0.270 N 
ATOM     28  H   LIG    1        3.414  -1.885   2.974  0.00  0.00    +0.153 HD
BRANCH  27  32
ATOM     29  C   LIG    1        1.028  -0.726   5.893  0.00  0.00    +0.053 C 
ATOM     30  N   LIG    1        1.824   0.274   6.277  0.00  0.00    -0.151 NA
ATOM     31  N   LIG    1        2.959   0.201   5.521  0.00  0.00    -0.202 N 
ATOM     32  C   LIG    1        2.766  -0.730   4.475  0.00  0.00    +0.185 C 
ATOM     33  C   LIG    1        1.653  -1.473   4.866  0.00  0.00    +0.047 C 
BRANCH  31  34
ATOM     34  C   LIG    1        4.045   1.079   5.870  0.00  0.00    +0.053 A 
ATOM     35  C   LIG    1        4.067   1.690   7.146  0.00  0.00    +0.032 A 
ATOM     36  C   LIG    1        5.108   2.565   7.457  0.00  0.00    -0.001 A 
ATOM     37  C   LIG    1        5.447   3.255   8.723  0.00  0.00    +0.080 C 
ATOM     38  C   LIG    1        6.813   3.855   8.357  0.00  0.00    +0.234 C 
ATOM     39  O   LIG    1        7.030   3.756   6.935  0.00  0.00    -0.491 OA
ATOM     40  C   LIG    1        6.051   2.905   6.506  0.00  0.00    +0.124 A 
ATOM     41  C   LIG    1        6.025   2.376   5.244  0.00  0.00    +0.048 A 
ATOM     42  C   LIG    1        5.074   1.392   4.968  0.00  0.00    +0.028 A 
ENDBRANCH  31  34
BRANCH  29  44
ATOM     43  C   LIG    1       -1.529  -0.485   5.766  0.00  0.00    +0.017 C 
ATOM     44  C   LIG    1       -0.313  -0.944   6.606  0.00  0.00    +0.003 C 
ATOM     45  C   LIG    1       -0.497  -2.436   6.947  0.00  0.00    +0.017 C 
ATOM     46  C   LIG    1       -0.348  -0.149   7.935  0.00  0.00    +0.017 C 
ENDBRANCH  29  44
ENDBRANCH  27  32
ENDBRANCH   1  27
BRANCH   1  47
ATOM     47  O   LIG    1        4.318  -1.154   1.382  0.00  0.00    -0.481 OA
ATOM     48  H   LIG    1        4.189  -0.822   0.462  0.00  0.00    +0.295 HD
ENDBRANCH   1  47
TORSDOF 10
