REMARK  Name = pdb/CHEMBL388978.pdb
REMARK                            x       y       z     vdW  Elec       q    Type
REMARK                         _______ _______ _______ _____ _____    ______ ____
ROOT
ATOM      1  C   LIG    1        3.667   1.240   0.122  0.00  0.00    +0.091 C 
ATOM      2  C   LIG    1        2.267   1.882   0.326  0.00  0.00    +0.187 C 
ATOM      3  C   LIG    1        2.106   2.191   1.852  0.00  0.00    +0.174 C 
ATOM      4  N   LIG    1        3.107   3.128   2.373  0.00  0.00    -0.307 N 
ATOM      5  C   LIG    1        4.093   2.961   3.301  0.00  0.00    +0.077 A 
ATOM      6  C   LIG    1        4.637   1.760   3.735  0.00  0.00    +0.077 A 
ATOM      7  N   LIG    1        4.303   0.534   3.276  0.00  0.00    -0.311 N 
ATOM      8  C   LIG    1        5.204  -0.281   3.984  0.00  0.00    +0.052 A 
ATOM      9  C   LIG    1        5.356  -1.681   3.921  0.00  0.00    +0.026 A 
ATOM     10  C   LIG    1        6.320  -2.303   4.715  0.00  0.00    +0.002 A 
ATOM     11  C   LIG    1        7.128  -1.562   5.563  0.00  0.00    +0.001 A 
ATOM     12  C   LIG    1        6.996  -0.171   5.641  0.00  0.00    +0.010 A 
ATOM     13  C   LIG    1        6.035   0.514   4.861  0.00  0.00    +0.008 A 
ATOM     14  C   LIG    1        3.252   0.123   2.379  0.00  0.00    +0.224 C 
ATOM     15  C   LIG    1        5.658   1.870   4.692  0.00  0.00    +0.022 A 
ATOM     16  C   LIG    1        6.236   2.998   5.309  0.00  0.00    +0.052 A 
ATOM     17  C   LIG    1        7.236   3.271   6.294  0.00  0.00    +0.245 C 
ATOM     18  O   LIG    1        7.959   2.581   6.998  0.00  0.00    -0.270 OA
ATOM     19  N   LIG    1        7.268   4.665   6.350  0.00  0.00    -0.307 N 
ATOM     20  H   LIG    1        7.898   5.117   6.998  0.00  0.00    +0.149 HD
ATOM     21  C   LIG    1        6.355   5.368   5.465  0.00  0.00    +0.141 C 
ATOM     22  C   LIG    1        5.716   4.219   4.828  0.00  0.00    -0.008 A 
ATOM     23  C   LIG    1        4.707   4.089   3.857  0.00  0.00    +0.015 A 
ATOM     24  C   LIG    1        4.111   5.136   3.122  0.00  0.00    +0.008 A 
ATOM     25  C   LIG    1        4.261   6.543   3.105  0.00  0.00    +0.010 A 
ATOM     26  C   LIG    1        3.553   7.328   2.194  0.00  0.00    +0.001 A 
ATOM     27  C   LIG    1        2.692   6.739   1.282  0.00  0.00    +0.002 A 
ATOM     28  C   LIG    1        2.497   5.355   1.264  0.00  0.00    +0.026 A 
ATOM     29  C   LIG    1        3.182   4.535   2.185  0.00  0.00    +0.053 A 
ATOM     30  C   LIG    1        0.685   2.723   2.149  0.00  0.00    +0.069 C 
ATOM     31  O   LIG    1        2.135   0.965   2.602  0.00  0.00    -0.328 OA
ATOM     32  C   LIG    1        3.709  -0.061   0.928  0.00  0.00    +0.076 C 
ENDROOT
BRANCH   1  34
ATOM     33  C   LIG    1        4.144   2.141  -2.113  0.00  0.00    +0.101 C 
ATOM     34  N   LIG    1        4.065   0.949  -1.275  0.00  0.00    -0.314 NA
ATOM     35  H   LIG    1        4.983   0.500  -1.269  0.00  0.00    +0.122 HD
ENDBRANCH   1  34
BRANCH   2  36
ATOM     36  O   LIG    1        1.176   0.997  -0.027  0.00  0.00    -0.373 OA
ATOM     37  C   LIG    1        1.034   0.693  -1.403  0.00  0.00    +0.194 C 
ENDBRANCH   2  36
TORSDOF 2
