REMARK  Name = pdb/CHEMBL3659502.pdb
REMARK                            x       y       z     vdW  Elec       q    Type
REMARK                         _______ _______ _______ _____ _____    ______ ____
ROOT
ATOM      1  N   LIG    1        8.193   2.732  -2.128  0.00  0.00    -0.266 N 
ATOM      2  C   LIG    1        8.424   4.078  -1.909  0.00  0.00    +0.168 A 
ATOM      3  N   LIG    1        7.532   5.092  -1.886  0.00  0.00    -0.211 NA
ATOM      4  C   LIG    1        8.051   6.301  -1.551  0.00  0.00    +0.140 A 
ATOM      5  C   LIG    1        9.438   6.501  -1.347  0.00  0.00    +0.083 A 
ATOM      6 CL   LIG    1       10.086   8.042  -0.901  0.00  0.00    -0.080 Cl
ATOM      7  C   LIG    1       10.333   5.429  -1.420  0.00  0.00    +0.055 A 
ATOM      8  C   LIG    1        9.793   4.172  -1.685  0.00  0.00    +0.110 A 
ATOM      9  N   LIG    1       10.400   2.950  -1.745  0.00  0.00    -0.234 NA
ATOM     10  C   LIG    1        9.418   2.109  -1.987  0.00  0.00    +0.207 A 
ENDROOT
BRANCH   1  15
ATOM     11  C   LIG    1        4.881   1.576  -2.955  0.00  0.00    +0.213 A 
ATOM     12  N   LIG    1        5.690   0.477  -2.895  0.00  0.00    -0.245 N 
ATOM     13  H   LIG    1        5.415  -0.494  -3.034  0.00  0.00    +0.192 HD
ATOM     14  N   LIG    1        6.970   0.750  -2.587  0.00  0.00    -0.153 NA
ATOM     15  C   LIG    1        6.969   2.079  -2.430  0.00  0.00    +0.165 A 
ATOM     16  C   LIG    1        5.698   2.643  -2.610  0.00  0.00    +0.115 A 
BRANCH  11  17
ATOM     17  O   LIG    1        3.603   1.453  -3.292  0.00  0.00    -0.474 OA
BRANCH  17  19
ATOM     18  C   LIG    1        2.656   3.672  -3.720  0.00  0.00    +0.051 C 
ATOM     19  C   LIG    1        2.714   2.460  -2.793  0.00  0.00    +0.169 C 
ATOM     20  C   LIG    1        1.335   1.819  -2.677  0.00  0.00    +0.051 C 
ENDBRANCH  17  19
ENDBRANCH  11  17
ENDBRANCH   1  15
BRANCH   4  21
ATOM     21  N   LIG    1        7.152   7.387  -1.463  0.00  0.00    -0.320 N 
ATOM     22  H   LIG    1        7.513   8.124  -0.860  0.00  0.00    +0.148 HD
BRANCH  21  23
ATOM     23  C   LIG    1        5.766   7.023  -1.109  0.00  0.00    +0.117 C 
ATOM     24  C   LIG    1        5.673   6.365   0.279  0.00  0.00    +0.034 C 
BRANCH  23  25
ATOM     25  C   LIG    1        4.860   8.260  -1.162  0.00  0.00    +0.061 A 
ATOM     26  N   LIG    1        4.689   8.995  -0.027  0.00  0.00    -0.255 NA
ATOM     27  C   LIG    1        3.810  10.027  -0.079  0.00  0.00    +0.149 A 
ATOM     28  C   LIG    1        3.108  10.377  -1.216  0.00  0.00    +0.141 A 
ATOM     29  F   LIG    1        2.240  11.396  -1.199  0.00  0.00    -0.204 F 
ATOM     30  C   LIG    1        3.311   9.650  -2.377  0.00  0.00    +0.042 A 
ATOM     31  C   LIG    1        4.204   8.579  -2.355  0.00  0.00    +0.028 A 
ENDBRANCH  23  25
ENDBRANCH  21  23
ENDBRANCH   4  21
TORSDOF 6
