REMARK  Name = pdb/CHEMBL3676063.pdb
REMARK                            x       y       z     vdW  Elec       q    Type
REMARK                         _______ _______ _______ _____ _____    ______ ____
ROOT
ATOM      1  C   LIG    1        1.090  -1.590   2.667  0.00  0.00    +0.126 A 
ATOM      2  N   LIG    1        1.435  -0.438   2.122  0.00  0.00    -0.212 NA
ATOM      3  C   LIG    1        1.144   0.721   2.811  0.00  0.00    +0.170 A 
ATOM      4  C   LIG    1        1.346   2.069   2.540  0.00  0.00    +0.100 A 
ATOM      5  C   LIG    1        0.810   2.740   3.661  0.00  0.00    +0.150 A 
ATOM      6  N   LIG    1        0.303   1.921   4.576  0.00  0.00    -0.173 NA
ATOM      7  N   LIG    1        0.505   0.690   4.058  0.00  0.00    -0.221 N 
ATOM      8  C   LIG    1        0.147  -0.509   4.640  0.00  0.00    +0.118 A 
ATOM      9  C   LIG    1        0.411  -1.659   4.019  0.00  0.00    +0.063 A 
ENDROOT
BRANCH   1  11
ATOM     10  C   LIG    1        2.021  -2.871   0.696  0.00  0.00    +0.107 C 
ATOM     11  N   LIG    1        1.351  -2.791   2.010  0.00  0.00    -0.308 N 
ATOM     12  C   LIG    1        0.572  -4.011   2.248  0.00  0.00    +0.107 C 
ATOM     13  C   LIG    1        0.488  -4.693   0.893  0.00  0.00    +0.021 C 
ATOM     14  C   LIG    1        1.818  -4.337   0.267  0.00  0.00    +0.029 C 
BRANCH  10  17
ATOM     15  C   LIG    1        3.498  -2.019  -1.778  0.00  0.00    +0.066 C 
ATOM     16  C   LIG    1        4.176  -2.111  -0.440  0.00  0.00    +0.043 A 
ATOM     17  C   LIG    1        3.499  -2.538   0.718  0.00  0.00    -0.003 A 
ATOM     18  C   LIG    1        4.269  -2.716   1.881  0.00  0.00    +0.047 A 
ATOM     19  C   LIG    1        5.627  -2.440   1.862  0.00  0.00    +0.142 A 
ATOM     20  F   LIG    1        6.370  -2.622   2.961  0.00  0.00    -0.204 F 
ATOM     21  C   LIG    1        6.199  -1.994   0.690  0.00  0.00    +0.149 A 
ATOM     22  N   LIG    1        5.507  -1.829  -0.460  0.00  0.00    -0.257 NA
ENDBRANCH  10  17
ENDBRANCH   1  11
BRANCH   4  23
ATOM     23  C   LIG    1        1.938   2.743   1.405  0.00  0.00    +0.249 C 
ATOM     24  N   LIG    1        2.358   1.955   0.361  0.00  0.00    -0.308 N 
ATOM     25  H   LIG    1        2.325   0.946   0.491  0.00  0.00    +0.149 HD
ATOM     26  O   LIG    1        2.035   3.971   1.384  0.00  0.00    -0.270 OA
BRANCH  24  27
ATOM     27  C   LIG    1        2.948   2.552  -0.820  0.00  0.00    +0.076 C 
ATOM     28  C   LIG    1        2.705   1.754  -2.102  0.00  0.00    +0.053 C 
ATOM     29  C   LIG    1        4.040   1.752  -2.848  0.00  0.00    +0.116 C 
ATOM     30  C   LIG    1        4.871   2.842  -2.187  0.00  0.00    +0.033 C 
ATOM     31  C   LIG    1        4.465   2.726  -0.727  0.00  0.00    +0.025 C 
BRANCH  29  32
ATOM     32  O   LIG    1        3.848   1.999  -4.228  0.00  0.00    -0.392 OA
ATOM     33  H   LIG    1        4.727   2.038  -4.643  0.00  0.00    +0.210 HD
ENDBRANCH  29  32
ENDBRANCH  24  27
ENDBRANCH   4  23
TORSDOF 5
