REMARK  Name = pdb/CHEMBL3892605.pdb
REMARK                            x       y       z     vdW  Elec       q    Type
REMARK                         _______ _______ _______ _____ _____    ______ ____
ROOT
ATOM      1  C   LIG    1        2.196   0.091  -2.405  0.00  0.00    +0.131 A 
ATOM      2  C   LIG    1        1.588  -0.723  -3.331  0.00  0.00    +0.183 A 
ATOM      3  N   LIG    1        1.496  -2.086  -3.428  0.00  0.00    -0.211 NA
ATOM      4  C   LIG    1        0.762  -2.600  -4.388  0.00  0.00    +0.126 A 
ATOM      5  C   LIG    1        0.043  -1.724  -5.385  0.00  0.00    +0.063 A 
ATOM      6  C   LIG    1        0.185  -0.397  -5.258  0.00  0.00    +0.118 A 
ATOM      7  N   LIG    1        0.957   0.130  -4.233  0.00  0.00    -0.220 N 
ATOM      8  N   LIG    1        1.198   1.438  -3.956  0.00  0.00    -0.171 NA
ATOM      9  C   LIG    1        1.959   1.400  -2.857  0.00  0.00    +0.165 A 
ENDROOT
BRANCH   4  10
ATOM     10  N   LIG    1        0.665  -3.978  -4.480  0.00  0.00    -0.308 N 
ATOM     11  C   LIG    1        1.564  -4.899  -3.752  0.00  0.00    +0.108 C 
ATOM     12  C   LIG    1        0.839  -6.258  -3.791  0.00  0.00    +0.029 C 
ATOM     13  C   LIG    1       -0.609  -5.902  -4.080  0.00  0.00    +0.021 C 
ATOM     14  C   LIG    1       -0.492  -4.693  -4.994  0.00  0.00    +0.107 C 
BRANCH  11  15
ATOM     15  C   LIG    1        2.923  -4.998  -4.415  0.00  0.00    +0.011 A 
ATOM     16  C   LIG    1        4.036  -5.386  -3.660  0.00  0.00    +0.129 A 
ATOM     17  F   LIG    1        3.893  -5.673  -2.359  0.00  0.00    -0.205 F 
ATOM     18  C   LIG    1        5.304  -5.503  -4.233  0.00  0.00    +0.041 A 
ATOM     19  C   LIG    1        5.477  -5.240  -5.591  0.00  0.00    +0.041 A 
ATOM     20  C   LIG    1        4.378  -4.873  -6.356  0.00  0.00    +0.124 A 
ATOM     21  F   LIG    1        4.534  -4.630  -7.664  0.00  0.00    -0.205 F 
ATOM     22  C   LIG    1        3.112  -4.757  -5.787  0.00  0.00    +0.046 A 
ENDBRANCH  11  15
ENDBRANCH   4  10
BRANCH   1  24
ATOM     23  C   LIG    1        2.711  -1.272  -0.574  0.00  0.00    +0.239 C 
ATOM     24  N   LIG    1        2.977  -0.220  -1.282  0.00  0.00    -0.206 NA
BRANCH  23  25
ATOM     25  C   LIG    1        3.468  -1.645   0.661  0.00  0.00    +0.125 A 
ATOM     26  N   LIG    1        3.104  -2.795   1.291  0.00  0.00    -0.250 NA
ATOM     27  C   LIG    1        3.793  -3.140   2.395  0.00  0.00    +0.111 A 
ATOM     28  C   LIG    1        4.835  -2.390   2.911  0.00  0.00    +0.020 A 
ATOM     29  C   LIG    1        5.196  -1.217   2.254  0.00  0.00    +0.004 A 
ATOM     30  C   LIG    1        4.504  -0.833   1.107  0.00  0.00    +0.033 A 
ENDBRANCH  23  25
BRANCH  23  31
ATOM     31  O   LIG    1        1.745  -2.191  -0.799  0.00  0.00    -0.491 OA
ATOM     32  H   LIG    1        1.458  -2.186  -1.727  0.00  0.00    +0.294 HD
ENDBRANCH  23  31
ENDBRANCH   1  24
TORSDOF 5
