REMARK  Name = pdb/CHEMBL3676045.pdb
REMARK                            x       y       z     vdW  Elec       q    Type
REMARK                         _______ _______ _______ _____ _____    ______ ____
ROOT
ATOM      1  C   UNK A  0        5.267   4.303  -0.335  0.00  0.00    +0.100 A 
ATOM      2  C   UNK A  0        4.687   5.495   0.076  0.00  0.00    +0.170 A 
ATOM      3  N   UNK A  0        3.633   5.790   0.915  0.00  0.00    -0.212 NA
ATOM      4  C   UNK A  0        3.295   7.057   1.075  0.00  0.00    +0.126 A 
ATOM      5  C   UNK A  0        3.996   8.160   0.310  0.00  0.00    +0.063 A 
ATOM      6  C   UNK A  0        5.024   7.820  -0.471  0.00  0.00    +0.118 A 
ATOM      7  N   UNK A  0        5.403   6.498  -0.583  0.00  0.00    -0.221 N 
ATOM      8  N   UNK A  0        6.435   6.013  -1.309  0.00  0.00    -0.173 NA
ATOM      9  C   UNK A  0        6.343   4.693  -1.157  0.00  0.00    +0.150 A 
ENDROOT
BRANCH   4  10
ATOM     10  N   UNK A  0        2.265   7.395   1.949  0.00  0.00    -0.308 N 
ATOM     11  C   UNK A  0        1.987   8.754   2.454  0.00  0.00    +0.108 C 
ATOM     12  C   UNK A  0        1.375   8.483   3.842  0.00  0.00    +0.029 C 
ATOM     13  C   UNK A  0        0.600   7.194   3.637  0.00  0.00    +0.021 C 
ATOM     14  C   UNK A  0        1.512   6.391   2.711  0.00  0.00    +0.107 C 
BRANCH  11  15
ATOM     15  C   UNK A  0        1.034   9.520   1.547  0.00  0.00    +0.011 A 
ATOM     16  C   UNK A  0        0.531  10.772   1.935  0.00  0.00    +0.129 A 
ATOM     17  F   UNK A  0        0.975  11.355   3.058  0.00  0.00    -0.205 F 
ATOM     18  C   UNK A  0       -0.457  11.427   1.197  0.00  0.00    +0.041 A 
ATOM     19  C   UNK A  0       -0.937  10.851   0.023  0.00  0.00    +0.041 A 
ATOM     20  C   UNK A  0       -0.393   9.652  -0.415  0.00  0.00    +0.124 A 
ATOM     21  F   UNK A  0       -0.840   9.094  -1.546  0.00  0.00    -0.205 F 
ATOM     22  C   UNK A  0        0.586   8.997   0.323  0.00  0.00    +0.046 A 
ENDBRANCH  11  15
ENDBRANCH   4  10
BRANCH   1  25
ATOM     23  N   ALA A  1        3.796   2.778   0.741  0.00  0.00    -0.306 N 
ATOM     24  H   ALA A  1        3.366   3.609   1.147  0.00  0.00    +0.149 HD
ATOM     25  C   UNK A  0        4.904   2.929  -0.050  0.00  0.00    +0.249 C 
ATOM     26  O   UNK A  0        5.527   1.988  -0.508  0.00  0.00    -0.270 OA
BRANCH  23  28
ATOM     27  CB  ALA A  1        3.947   0.936   2.338  0.00  0.00    +0.030 C 
ATOM     28  CA  ALA A  1        3.256   1.471   1.086  0.00  0.00    +0.095 C 
BRANCH  28  29
ATOM     29  C   ALA A  1        1.734   1.577   1.267  0.00  0.00    +0.177 C 
BRANCH  29  30
ATOM     30  O   ALA A  1        1.395   2.465   2.333  0.00  0.00    -0.393 OA
ATOM     31  H   ALA A  1        1.662   2.031   3.161  0.00  0.00    +0.209 HD
ENDBRANCH  29  30
ENDBRANCH  28  29
ENDBRANCH  23  28
ENDBRANCH   1  25
TORSDOF 6
