REMARK  Name = pdb/CHEMBL3671148.pdb
REMARK                            x       y       z     vdW  Elec       q    Type
REMARK                         _______ _______ _______ _____ _____    ______ ____
ROOT
ATOM      1  C   LIG    1        2.648  -5.279  -0.424  0.00  0.00    +0.126 A 
ATOM      2  N   LIG    1        2.440  -4.121  -1.021  0.00  0.00    -0.212 NA
ATOM      3  C   LIG    1        1.582  -4.084  -2.095  0.00  0.00    +0.170 A 
ATOM      4  C   LIG    1        1.115  -3.039  -2.881  0.00  0.00    +0.100 A 
ATOM      5  C   LIG    1        0.285  -3.662  -3.834  0.00  0.00    +0.150 A 
ATOM      6  N   LIG    1        0.199  -4.982  -3.675  0.00  0.00    -0.173 NA
ATOM      7  N   LIG    1        0.973  -5.235  -2.594  0.00  0.00    -0.221 N 
ATOM      8  C   LIG    1        1.182  -6.456  -1.981  0.00  0.00    +0.118 A 
ATOM      9  C   LIG    1        1.973  -6.544  -0.907  0.00  0.00    +0.063 A 
ENDROOT
BRANCH   1  11
ATOM     10  C   LIG    1        3.428  -6.334   1.743  0.00  0.00    +0.108 C 
ATOM     11  N   LIG    1        3.519  -5.340   0.656  0.00  0.00    -0.308 N 
ATOM     12  C   LIG    1        4.352  -4.220   1.080  0.00  0.00    +0.107 C 
ATOM     13  C   LIG    1        4.134  -4.163   2.580  0.00  0.00    +0.021 C 
ATOM     14  C   LIG    1        4.019  -5.626   2.980  0.00  0.00    +0.029 C 
BRANCH  10  18
ATOM     15  F   LIG    1        7.230  -8.673  -0.297  0.00  0.00    -0.205 F 
ATOM     16  C   LIG    1        6.107  -8.731   0.430  0.00  0.00    +0.124 A 
ATOM     17  C   LIG    1        5.368  -7.571   0.633  0.00  0.00    +0.046 A 
ATOM     18  C   LIG    1        4.211  -7.592   1.430  0.00  0.00    +0.011 A 
ATOM     19  C   LIG    1        3.827  -8.816   1.993  0.00  0.00    +0.129 A 
ATOM     20  F   LIG    1        2.743  -8.875   2.779  0.00  0.00    -0.205 F 
ATOM     21  C   LIG    1        4.555  -9.985   1.765  0.00  0.00    +0.041 A 
ATOM     22  C   LIG    1        5.708  -9.941   0.983  0.00  0.00    +0.041 A 
ENDBRANCH  10  18
ENDBRANCH   1  11
BRANCH   4  23
ATOM     23  C   LIG    1        1.386  -1.618  -2.771  0.00  0.00    +0.249 C 
ATOM     24  N   LIG    1        2.206  -1.284  -1.714  0.00  0.00    -0.308 N 
ATOM     25  H   LIG    1        2.650  -2.067  -1.233  0.00  0.00    +0.149 HD
ATOM     26  O   LIG    1        0.893  -0.804  -3.533  0.00  0.00    -0.270 OA
BRANCH  24  27
ATOM     27  C   LIG    1        2.590   0.081  -1.376  0.00  0.00    +0.078 C 
ATOM     28  C   LIG    1        3.551   0.082  -0.181  0.00  0.00    +0.050 C 
ATOM     29  C   LIG    1        2.820  -0.218   1.126  0.00  0.00    +0.161 C 
ATOM     30  O   LIG    1        1.713   0.660   1.320  0.00  0.00    -0.380 OA
ATOM     31  C   LIG    1        0.754   0.554   0.267  0.00  0.00    +0.161 C 
ATOM     32  C   LIG    1        1.387   0.975  -1.050  0.00  0.00    +0.050 C 
ENDBRANCH  24  27
ENDBRANCH   4  23
TORSDOF 4
