REMARK  Name = pdb/CHEMBL3545365.pdb
REMARK                            x       y       z     vdW  Elec       q    Type
REMARK                         _______ _______ _______ _____ _____    ______ ____
ROOT
ATOM      1  C   LIG    1       10.968  -0.474   1.962  0.00  0.00    +0.072 A 
ATOM      2  C   LIG    1       10.298  -1.649   1.596  0.00  0.00    +0.148 A 
ATOM      3  F   LIG    1        9.577  -1.702   0.467  0.00  0.00    -0.203 F 
ATOM      4  C   LIG    1       10.300  -2.775   2.420  0.00  0.00    +0.089 A 
ATOM      5  C   LIG    1       11.026  -2.772   3.614  0.00  0.00    +0.166 A 
ATOM      6  C   LIG    1       11.637  -1.577   4.016  0.00  0.00    +0.167 A 
ATOM      7  F   LIG    1       12.310  -1.517   5.175  0.00  0.00    -0.202 F 
ATOM      8  C   LIG    1       11.596  -0.428   3.209  0.00  0.00    +0.068 A 
ENDROOT
BRANCH   1  10
ATOM      9  C   LIG    1       11.504   0.539  -0.195  0.00  0.00    +0.232 C 
ATOM     10  N   LIG    1       11.023   0.656   1.103  0.00  0.00    -0.282 N 
ATOM     11  H   LIG    1       11.089   1.578   1.521  0.00  0.00    +0.155 HD
ATOM     12  O   LIG    1       11.937  -0.496  -0.699  0.00  0.00    -0.274 OA
BRANCH   9  13
ATOM     13  C   LIG    1       11.553   1.807  -1.015  0.00  0.00    +0.123 C 
ATOM     14  C   LIG    1       10.837   1.756  -2.372  0.00  0.00    +0.027 C 
ATOM     15  C   LIG    1       10.229   2.541  -1.256  0.00  0.00    +0.027 C 
BRANCH  13  18
ATOM     16  N   LIG    1       13.782   2.341  -1.885  0.00  0.00    -0.285 N 
ATOM     17  H   LIG    1       13.661   1.491  -2.416  0.00  0.00    +0.155 HD
ATOM     18  C   LIG    1       12.800   2.635  -0.957  0.00  0.00    +0.232 C 
ATOM     19  O   LIG    1       12.861   3.500  -0.061  0.00  0.00    -0.274 OA
BRANCH  16  24
ATOM     20  F   LIG    1       18.822   4.659  -2.016  0.00  0.00    -0.205 F 
ATOM     21  C   LIG    1       17.586   4.145  -2.055  0.00  0.00    +0.124 A 
ATOM     22  C   LIG    1       17.379   2.886  -2.605  0.00  0.00    +0.040 A 
ATOM     23  C   LIG    1       16.093   2.330  -2.603  0.00  0.00    +0.026 A 
ATOM     24  C   LIG    1       15.027   3.014  -2.008  0.00  0.00    +0.034 A 
ATOM     25  C   LIG    1       15.244   4.310  -1.519  0.00  0.00    +0.026 A 
ATOM     26  C   LIG    1       16.524   4.874  -1.539  0.00  0.00    +0.040 A 
ENDBRANCH  16  24
ENDBRANCH  13  18
ENDBRANCH   9  13
ENDBRANCH   1  10
BRANCH   5  27
ATOM     27  O   LIG    1       11.137  -3.895   4.418  0.00  0.00    -0.453 OA
BRANCH  27  28
ATOM     28  C   LIG    1       11.217  -5.137   3.804  0.00  0.00    +0.133 A 
ATOM     29  C   LIG    1       11.881  -5.332   2.586  0.00  0.00    +0.090 A 
ATOM     30  C   LIG    1       11.857  -6.590   2.018  0.00  0.00    +0.128 A 
ATOM     31  N   LIG    1       11.258  -7.622   2.631  0.00  0.00    -0.240 NA
ATOM     32  C   LIG    1       10.645  -7.438   3.805  0.00  0.00    +0.116 A 
ATOM     33  C   LIG    1       10.621  -6.222   4.449  0.00  0.00    +0.066 A 
BRANCH  30  34
ATOM     34  N   LIG    1       12.459  -6.796   0.781  0.00  0.00    -0.270 N 
ATOM     35  H   LIG    1       13.160  -6.139   0.464  0.00  0.00    +0.156 HD
ATOM     36  C   LIG    1       12.227  -7.835  -0.110  0.00  0.00    +0.221 C 
ATOM     37  O   LIG    1       12.822  -7.869  -1.171  0.00  0.00    -0.275 OA
BRANCH  36  38
ATOM     38  C   LIG    1       11.231  -8.894   0.251  0.00  0.00    +0.075 C 
ATOM     39  C   LIG    1       11.658 -10.338   0.223  0.00  0.00    +0.013 C 
ATOM     40  C   LIG    1       10.627  -9.831  -0.750  0.00  0.00    +0.013 C 
ENDBRANCH  36  38
ENDBRANCH  30  34
ENDBRANCH  27  28
ENDBRANCH   5  27
TORSDOF 8
