REMARK  Name = pdb/CHEMBL3675998.pdb
REMARK                            x       y       z     vdW  Elec       q    Type
REMARK                         _______ _______ _______ _____ _____    ______ ____
ROOT
ATOM      1  C   LIG    1        2.645   0.136   4.423  0.00  0.00    +0.100 A 
ATOM      2  C   LIG    1        3.343   1.010   5.239  0.00  0.00    +0.170 A 
ATOM      3  N   LIG    1        3.477   2.375   5.216  0.00  0.00    -0.212 NA
ATOM      4  C   LIG    1        4.286   2.930   6.091  0.00  0.00    +0.126 A 
ATOM      5  C   LIG    1        5.061   2.118   7.099  0.00  0.00    +0.063 A 
ATOM      6  C   LIG    1        4.854   0.796   7.107  0.00  0.00    +0.118 A 
ATOM      7  N   LIG    1        3.991   0.220   6.190  0.00  0.00    -0.221 N 
ATOM      8  N   LIG    1        3.677  -1.089   6.066  0.00  0.00    -0.173 NA
ATOM      9  C   LIG    1        2.872  -1.131   5.003  0.00  0.00    +0.150 A 
ENDROOT
BRANCH   4  10
ATOM     10  N   LIG    1        4.443   4.310   6.103  0.00  0.00    -0.308 N 
ATOM     11  C   LIG    1        3.436   5.194   5.482  0.00  0.00    +0.107 C 
ATOM     12  C   LIG    1        4.251   6.324   4.833  0.00  0.00    +0.029 C 
ATOM     13  C   LIG    1        5.543   6.350   5.630  0.00  0.00    +0.021 C 
ATOM     14  C   LIG    1        5.784   4.875   5.905  0.00  0.00    +0.107 C 
BRANCH  11  15
ATOM     15  C   LIG    1        2.440   5.731   6.488  0.00  0.00    -0.006 A 
ATOM     16  C   LIG    1        2.748   6.020   7.824  0.00  0.00    +0.046 A 
ATOM     17  C   LIG    1        1.780   6.586   8.644  0.00  0.00    +0.142 A 
ATOM     18  F   LIG    1        2.063   6.881   9.919  0.00  0.00    -0.204 F 
ATOM     19  C   LIG    1        0.528   6.855   8.122  0.00  0.00    +0.149 A 
ATOM     20  N   LIG    1        0.184   6.592   6.841  0.00  0.00    -0.260 NA
ATOM     21  C   LIG    1        1.143   6.035   6.063  0.00  0.00    +0.116 A 
ENDBRANCH  11  15
ENDBRANCH   4  10
BRANCH   1  24
ATOM     22  N   LIG    1        1.784   1.765   2.905  0.00  0.00    -0.308 N 
ATOM     23  H   LIG    1        2.353   2.398   3.461  0.00  0.00    +0.149 HD
ATOM     24  C   LIG    1        1.854   0.427   3.243  0.00  0.00    +0.249 C 
ATOM     25  O   LIG    1        1.313  -0.465   2.611  0.00  0.00    -0.270 OA
BRANCH  22  27
ATOM     26  C   LIG    1       -0.389   1.844   1.746  0.00  0.00    +0.028 C 
ATOM     27  C   LIG    1        1.081   2.272   1.734  0.00  0.00    +0.073 C 
BRANCH  27  28
ATOM     28  C   LIG    1        1.273   3.781   1.681  0.00  0.00    +0.009 C 
ATOM     29  C   LIG    1        0.168   4.766   2.005  0.00  0.00    +0.005 C 
ATOM     30  C   LIG    1        0.653   4.626   0.590  0.00  0.00    +0.005 C 
ENDBRANCH  27  28
ENDBRANCH  22  27
ENDBRANCH   1  24
TORSDOF 5
