REMARK  Name = pdb/CHEMBL3930459.pdb
REMARK                            x       y       z     vdW  Elec       q    Type
REMARK                         _______ _______ _______ _____ _____    ______ ____
ROOT
ATOM      1  C   LIG    1        3.925   0.733  -5.507  0.00  0.00    +0.027 A 
ATOM      2  C   LIG    1        5.234   1.036  -5.120  0.00  0.00    +0.060 A 
ATOM      3  C   LIG    1        6.046   1.731  -5.994  0.00  0.00    +0.157 A 
ATOM      4  N   LIG    1        5.647   2.100  -7.231  0.00  0.00    -0.236 NA
ATOM      5  C   LIG    1        4.373   1.804  -7.584  0.00  0.00    +0.114 A 
ATOM      6  C   LIG    1        3.481   1.128  -6.768  0.00  0.00    +0.031 A 
ENDROOT
BRANCH   1   7
ATOM      7  C   LIG    1        3.011  -0.046  -4.617  0.00  0.00    +0.195 C 
ATOM      8  O   LIG    1        2.184  -0.787  -5.132  0.00  0.00    -0.287 OA
BRANCH   7  16
ATOM      9  N   LIG    1        3.517   1.005  -1.149  0.00  0.00    -0.343 N 
ATOM     10  C   LIG    1        3.116  -0.291  -0.908  0.00  0.00    +0.053 A 
ATOM     11  C   LIG    1        2.963  -1.004   0.286  0.00  0.00    +0.046 A 
ATOM     12  C   LIG    1        2.518  -2.309   0.154  0.00  0.00    +0.113 A 
ATOM     13  N   LIG    1        2.233  -2.909  -1.018  0.00  0.00    -0.263 NA
ATOM     14  C   LIG    1        2.385  -2.207  -2.172  0.00  0.00    +0.121 A 
ATOM     15  C   LIG    1        2.839  -0.879  -2.151  0.00  0.00    +0.029 A 
ATOM     16  C   LIG    1        3.137   0.095  -3.164  0.00  0.00    +0.049 A 
ATOM     17  C   LIG    1        3.554   1.233  -2.500  0.00  0.00    +0.099 A 
BRANCH   9  19
ATOM     18  C   LIG    1        5.268   2.510  -0.241  0.00  0.00    +0.030 C 
ATOM     19  C   LIG    1        3.824   2.017  -0.137  0.00  0.00    +0.081 C 
ATOM     20  C   LIG    1        2.830   3.179  -0.199  0.00  0.00    +0.030 C 
ENDBRANCH   9  19
ENDBRANCH   7  16
ENDBRANCH   1   7
BRANCH   3  21
ATOM     21  N   LIG    1        7.328   2.100  -5.578  0.00  0.00    -0.197 NA
ATOM     22  C   LIG    1        8.311   2.208  -6.411  0.00  0.00    +0.193 C 
BRANCH  22  23
ATOM     23  O   LIG    1        8.221   1.969  -7.733  0.00  0.00    -0.495 OA
ATOM     24  H   LIG    1        7.282   1.825  -7.965  0.00  0.00    +0.293 HD
ENDBRANCH  22  23
BRANCH  22  25
ATOM     25  C   LIG    1        9.706   2.573  -5.971  0.00  0.00    +0.130 C 
BRANCH  25  26
ATOM     26  C   LIG    1       10.010   4.055  -6.001  0.00  0.00    -0.037 A 
ATOM     27  C   LIG    1       10.573   4.645  -7.145  0.00  0.00    +0.025 A 
ATOM     28  C   LIG    1       10.913   6.005  -7.155  0.00  0.00    +0.060 A 
ATOM     29 CL   LIG    1       11.642   6.639  -8.591  0.00  0.00    -0.082 Cl
ATOM     30  C   LIG    1       10.668   6.796  -6.030  0.00  0.00    +0.059 A 
ATOM     31 CL   LIG    1       11.065   8.476  -5.969  0.00  0.00    -0.082 Cl
ATOM     32  C   LIG    1       10.092   6.220  -4.895  0.00  0.00    +0.022 A 
ATOM     33  C   LIG    1        9.760   4.860  -4.882  0.00  0.00    +0.005 A 
ENDBRANCH  25  26
ENDBRANCH  22  25
ENDBRANCH   3  21
TORSDOF 7
