REMARK  Name = pdb/CHEMBL3952298.pdb
REMARK                            x       y       z     vdW  Elec       q    Type
REMARK                         _______ _______ _______ _____ _____    ______ ____
ROOT
ATOM      1  C   LIG    1        2.944  -2.844   1.274  0.00  0.00    +0.149 A 
ATOM      2  N   LIG    1        3.523  -3.657   2.178  0.00  0.00    -0.160 NA
ATOM      3  N   LIG    1        4.230  -2.817   2.999  0.00  0.00    -0.218 N 
ATOM      4  C   LIG    1        3.992  -1.467   2.682  0.00  0.00    +0.129 A 
ATOM      5  C   LIG    1        3.232  -1.490   1.539  0.00  0.00    +0.078 A 
ENDROOT
BRANCH   3   6
ATOM      6  C   LIG    1        5.092  -3.355   4.004  0.00  0.00    +0.067 A 
ATOM      7  C   LIG    1        4.859  -4.639   4.530  0.00  0.00    +0.028 A 
ATOM      8  C   LIG    1        5.675  -5.143   5.552  0.00  0.00    +0.002 A 
ATOM      9  C   LIG    1        6.754  -4.396   6.020  0.00  0.00    +0.000 A 
ATOM     10  C   LIG    1        7.027  -3.150   5.460  0.00  0.00    +0.002 A 
ATOM     11  C   LIG    1        6.199  -2.626   4.460  0.00  0.00    +0.028 A 
ENDBRANCH   3   6
BRANCH   4  12
ATOM     12  N   LIG    1        4.322  -0.312   3.418  0.00  0.00    -0.266 N 
ATOM     13  H   LIG    1        4.542  -0.428   4.399  0.00  0.00    +0.157 HD
ATOM     14  C   LIG    1        4.265   1.021   2.845  0.00  0.00    +0.251 C 
ATOM     15  O   LIG    1        4.079   1.180   1.661  0.00  0.00    -0.270 OA
BRANCH  14  16
ATOM     16  C   LIG    1        4.506   2.200   3.728  0.00  0.00    +0.056 A 
ATOM     17  C   LIG    1        4.071   2.277   5.045  0.00  0.00    +0.054 A 
ATOM     18 CL   LIG    1        3.416   0.937   5.913  0.00  0.00    -0.083 Cl
ATOM     19  C   LIG    1        4.160   3.489   5.732  0.00  0.00    +0.041 A 
ATOM     20  C   LIG    1        4.755   4.618   5.147  0.00  0.00    +0.052 A 
ATOM     21 CL   LIG    1        4.698   6.046   6.127  0.00  0.00    -0.083 Cl
ATOM     22  C   LIG    1        5.308   4.564   3.852  0.00  0.00    +0.019 A 
ATOM     23  C   LIG    1        5.124   3.338   3.147  0.00  0.00    +0.026 A 
BRANCH  22  24
ATOM     24  C   LIG    1        6.039   5.686   3.194  0.00  0.00    +0.072 A 
ATOM     25  N   LIG    1        5.935   5.740   1.841  0.00  0.00    -0.255 NA
ATOM     26  C   LIG    1        6.583   6.740   1.188  0.00  0.00    +0.111 A 
ATOM     27  C   LIG    1        7.354   7.704   1.812  0.00  0.00    +0.020 A 
ATOM     28  C   LIG    1        7.477   7.635   3.188  0.00  0.00    +0.004 A 
ATOM     29  C   LIG    1        6.832   6.610   3.880  0.00  0.00    +0.028 A 
ENDBRANCH  22  24
ENDBRANCH  14  16
ENDBRANCH   4  12
BRANCH   1  30
ATOM     30  C   LIG    1        2.074  -3.349   0.213  0.00  0.00    +0.236 C 
ATOM     31  N   LIG    1        1.469  -2.528  -0.565  0.00  0.00    -0.244 NA
BRANCH  30  32
ATOM     32  O   LIG    1        1.954  -4.693   0.152  0.00  0.00    -0.491 OA
ATOM     33  H   LIG    1        2.494  -5.095   0.857  0.00  0.00    +0.294 HD
ENDBRANCH  30  32
BRANCH  31  34
ATOM     34  C   LIG    1        0.567  -3.081  -1.571  0.00  0.00    +0.183 C 
BRANCH  34  35
ATOM     35  C   LIG    1       -0.794  -2.511  -1.370  0.00  0.00    +0.011 A 
ATOM     36  C   LIG    1       -1.364  -1.390  -1.940  0.00  0.00    +0.110 A 
ATOM     37  N   LIG    1       -2.636  -1.312  -1.451  0.00  0.00    -0.284 N 
ATOM     38  H   LIG    1       -3.349  -0.621  -1.658  0.00  0.00    +0.188 HD
ATOM     39  N   LIG    1       -2.939  -2.300  -0.594  0.00  0.00    -0.182 NA
ATOM     40  C   LIG    1       -1.821  -3.027  -0.546  0.00  0.00    +0.139 A 
ENDBRANCH  34  35
ENDBRANCH  31  34
ENDBRANCH   1  30
TORSDOF 8
