REMARK  Name = pdb/CHEMBL3940562.pdb
REMARK                            x       y       z     vdW  Elec       q    Type
REMARK                         _______ _______ _______ _____ _____    ______ ____
ROOT
ATOM      1  C   LIG    1        2.834  -3.050  -3.125  0.00  0.00    +0.149 A 
ATOM      2  N   LIG    1        2.321  -2.753  -4.331  0.00  0.00    -0.160 NA
ATOM      3  N   LIG    1        2.104  -3.970  -4.921  0.00  0.00    -0.218 N 
ATOM      4  C   LIG    1        2.668  -5.005  -4.173  0.00  0.00    +0.129 A 
ATOM      5  C   LIG    1        3.057  -4.432  -2.989  0.00  0.00    +0.078 A 
ENDROOT
BRANCH   3   6
ATOM      6  C   LIG    1        1.392  -4.033  -6.152  0.00  0.00    +0.067 A 
ATOM      7  C   LIG    1        0.608  -5.144  -6.487  0.00  0.00    +0.028 A 
ATOM      8  C   LIG    1       -0.148  -5.134  -7.664  0.00  0.00    +0.002 A 
ATOM      9  C   LIG    1       -0.121  -4.026  -8.510  0.00  0.00    +0.000 A 
ATOM     10  C   LIG    1        0.665  -2.923  -8.187  0.00  0.00    +0.002 A 
ATOM     11  C   LIG    1        1.412  -2.919  -7.008  0.00  0.00    +0.028 A 
ENDBRANCH   3   6
BRANCH   4  12
ATOM     12  N   LIG    1        2.863  -6.348  -4.531  0.00  0.00    -0.266 N 
ATOM     13  H   LIG    1        2.386  -6.712  -5.344  0.00  0.00    +0.157 HD
ATOM     14  C   LIG    1        3.844  -7.176  -3.870  0.00  0.00    +0.251 C 
ATOM     15  O   LIG    1        4.545  -6.734  -2.984  0.00  0.00    -0.270 OA
BRANCH  14  16
ATOM     16  C   LIG    1        4.066  -8.549  -4.375  0.00  0.00    +0.056 A 
ATOM     17  C   LIG    1        3.073  -9.346  -4.939  0.00  0.00    +0.056 A 
ATOM     18 CL   LIG    1        1.428  -8.854  -5.091  0.00  0.00    -0.083 Cl
ATOM     19  C   LIG    1        3.391 -10.626  -5.375  0.00  0.00    +0.059 A 
ATOM     20  C   LIG    1        4.688 -11.118  -5.234  0.00  0.00    +0.134 A 
ATOM     21  F   LIG    1        4.889 -12.363  -5.683  0.00  0.00    -0.205 F 
ATOM     22  C   LIG    1        5.722 -10.370  -4.652  0.00  0.00    +0.036 A 
ATOM     23  C   LIG    1        5.373  -9.068  -4.229  0.00  0.00    +0.027 A 
BRANCH  22  24
ATOM     24  C   LIG    1        7.103 -10.884  -4.465  0.00  0.00    +0.074 A 
ATOM     25  N   LIG    1        7.972 -10.026  -3.867  0.00  0.00    -0.255 NA
ATOM     26  C   LIG    1        9.247 -10.439  -3.664  0.00  0.00    +0.111 A 
ATOM     27  C   LIG    1        9.720 -11.684  -4.033  0.00  0.00    +0.020 A 
ATOM     28  C   LIG    1        8.837 -12.557  -4.642  0.00  0.00    +0.004 A 
ATOM     29  C   LIG    1        7.523 -12.154  -4.860  0.00  0.00    +0.028 A 
ENDBRANCH  22  24
ENDBRANCH  14  16
ENDBRANCH   4  12
BRANCH   1  31
ATOM     30  N   LIG    1        3.613  -2.373  -0.988  0.00  0.00    -0.244 NA
ATOM     31  C   LIG    1        3.100  -2.033  -2.115  0.00  0.00    +0.236 C 
BRANCH  31  32
ATOM     32  O   LIG    1        2.740  -0.773  -2.446  0.00  0.00    -0.491 OA
ATOM     33  H   LIG    1        2.330  -0.779  -3.331  0.00  0.00    +0.294 HD
ENDBRANCH  31  32
BRANCH  30  34
ATOM     34  C   LIG    1        3.792  -1.299   0.002  0.00  0.00    +0.184 C 
BRANCH  34  36
ATOM     35  C   LIG    1        5.361   0.669   0.410  0.00  0.00    +0.123 A 
ATOM     36  C   LIG    1        5.153  -0.645  -0.043  0.00  0.00    +0.014 A 
ATOM     37  C   LIG    1        6.273  -1.375  -0.480  0.00  0.00    +0.010 A 
ATOM     38  C   LIG    1        7.525  -0.781  -0.521  0.00  0.00    +0.020 A 
ATOM     39  C   LIG    1        7.628   0.523  -0.089  0.00  0.00    +0.113 A 
ATOM     40  N   LIG    1        6.587   1.242   0.380  0.00  0.00    -0.240 NA
BRANCH  35  42
ATOM     41  C   LIG    1        4.653   2.738   1.412  0.00  0.00    +0.127 C 
ATOM     42  N   LIG    1        4.288   1.407   0.945  0.00  0.00    -0.332 N 
ATOM     43  H   LIG    1        3.545   1.452   0.255  0.00  0.00    +0.147 HD
ENDBRANCH  35  42
ENDBRANCH  34  36
ENDBRANCH  30  34
ENDBRANCH   1  31
TORSDOF 9
