REMARK  Name = pdb/CHEMBL2151322.pdb
REMARK                            x       y       z     vdW  Elec       q    Type
REMARK                         _______ _______ _______ _____ _____    ______ ____
ROOT
ATOM      1  N   LIG    1        7.828  -0.044  -1.813  0.00  0.00    -0.266 N 
ATOM      2  C   LIG    1        8.117   1.303  -1.708  0.00  0.00    +0.168 A 
ATOM      3  N   LIG    1        7.266   2.350  -1.581  0.00  0.00    -0.213 NA
ATOM      4  C   LIG    1        7.875   3.558  -1.550  0.00  0.00    +0.122 A 
ATOM      5  C   LIG    1        9.258   3.729  -1.687  0.00  0.00    +0.046 A 
ATOM      6  C   LIG    1       10.106   2.624  -1.793  0.00  0.00    +0.035 A 
ATOM      7  C   LIG    1        9.505   1.366  -1.801  0.00  0.00    +0.108 A 
ATOM      8  N   LIG    1       10.071   0.126  -1.901  0.00  0.00    -0.234 NA
ATOM      9  C   LIG    1        9.045  -0.698  -1.902  0.00  0.00    +0.207 A 
ENDROOT
BRANCH   1  14
ATOM     10  C   LIG    1        4.421  -1.216  -1.980  0.00  0.00    +0.213 A 
ATOM     11  N   LIG    1        5.235  -2.296  -2.197  0.00  0.00    -0.245 N 
ATOM     12  H   LIG    1        4.964  -3.243  -2.424  0.00  0.00    +0.192 HD
ATOM     13  N   LIG    1        6.551  -2.009  -2.103  0.00  0.00    -0.153 NA
ATOM     14  C   LIG    1        6.568  -0.696  -1.871  0.00  0.00    +0.165 A 
ATOM     15  C   LIG    1        5.275  -0.153  -1.756  0.00  0.00    +0.115 A 
BRANCH  10  16
ATOM     16  O   LIG    1        3.093  -1.369  -2.051  0.00  0.00    -0.474 OA
BRANCH  16  18
ATOM     17  C   LIG    1        2.331   0.845  -2.798  0.00  0.00    +0.051 C 
ATOM     18  C   LIG    1        2.282  -0.233  -1.714  0.00  0.00    +0.169 C 
ATOM     19  C   LIG    1        0.833  -0.712  -1.598  0.00  0.00    +0.051 C 
ENDBRANCH  16  18
ENDBRANCH  10  16
ENDBRANCH   1  14
BRANCH   4  20
ATOM     20  N   LIG    1        7.091   4.724  -1.445  0.00  0.00    -0.318 N 
ATOM     21  H   LIG    1        7.618   5.483  -1.021  0.00  0.00    +0.148 HD
BRANCH  20  22
ATOM     22  CA  LIG    1        5.810   4.553  -0.732  0.00  0.00    +0.146 C 
BRANCH  22  23
ATOM     23  C   LIG    1        5.057   5.892  -0.793  0.00  0.00    +0.064 A 
ATOM     24  N   LIG    1        5.300   6.814   0.184  0.00  0.00    -0.255 NA
ATOM     25  C   LIG    1        4.649   8.002   0.097  0.00  0.00    +0.149 A 
ATOM     26  C   LIG    1        3.766   8.319  -0.917  0.00  0.00    +0.141 A 
ATOM     27  F   LIG    1        3.159   9.512  -0.948  0.00  0.00    -0.204 F 
ATOM     28  C   LIG    1        3.525   7.382  -1.908  0.00  0.00    +0.042 A 
ATOM     29  C   LIG    1        4.184   6.153  -1.853  0.00  0.00    +0.028 A 
ENDBRANCH  22  23
BRANCH  22  30
ATOM     30  C   LIG    1        6.035   4.132   0.747  0.00  0.00    +0.184 C 
BRANCH  30  31
ATOM     31  O   LIG    1        4.805   3.980   1.461  0.00  0.00    -0.393 OA
ATOM     32  H   LIG    1        4.432   4.879   1.538  0.00  0.00    +0.209 HD
ENDBRANCH  30  31
ENDBRANCH  22  30
ENDBRANCH  20  22
ENDBRANCH   4  20
TORSDOF 8
