REMARK  Name = pdb/CHEMBL3927707.pdb
REMARK                            x       y       z     vdW  Elec       q    Type
REMARK                         _______ _______ _______ _____ _____    ______ ____
ROOT
ATOM      1  C   LIG    1        4.873   1.685   2.427  0.00  0.00    +0.179 A 
ATOM      2  N   LIG    1        4.370   2.945   2.767  0.00  0.00    -0.193 N 
ATOM      3  N   LIG    1        3.053   3.331   2.789  0.00  0.00    -0.148 NA
ATOM      4  C   LIG    1        2.821   4.565   3.165  0.00  0.00    +0.143 A 
ATOM      5  C   LIG    1        3.930   5.494   3.569  0.00  0.00    +0.049 A 
ATOM      6  C   LIG    1        5.192   5.062   3.506  0.00  0.00    +0.051 A 
ATOM      7  C   LIG    1        5.458   3.750   3.062  0.00  0.00    +0.157 A 
ATOM      8  N   LIG    1        6.600   3.137   2.847  0.00  0.00    -0.232 NA
ATOM      9  C   LIG    1        6.242   1.877   2.434  0.00  0.00    +0.161 A 
ENDROOT
BRANCH   4  10
ATOM     10  N   LIG    1        1.505   5.015   3.195  0.00  0.00    -0.307 N 
ATOM     11  C   LIG    1        0.415   4.158   2.690  0.00  0.00    +0.108 C 
ATOM     12  C   LIG    1       -0.443   5.151   1.894  0.00  0.00    +0.029 C 
ATOM     13  C   LIG    1       -0.357   6.423   2.720  0.00  0.00    +0.021 C 
ATOM     14  C   LIG    1        1.100   6.426   3.177  0.00  0.00    +0.107 C 
BRANCH  11  15
ATOM     15  C   LIG    1       -0.336   3.474   3.819  0.00  0.00    +0.011 A 
ATOM     16  C   LIG    1       -1.000   2.266   3.568  0.00  0.00    +0.129 A 
ATOM     17  F   LIG    1       -0.944   1.713   2.348  0.00  0.00    -0.205 F 
ATOM     18  C   LIG    1       -1.739   1.613   4.558  0.00  0.00    +0.041 A 
ATOM     19  C   LIG    1       -1.835   2.170   5.831  0.00  0.00    +0.041 A 
ATOM     20  C   LIG    1       -1.175   3.362   6.098  0.00  0.00    +0.124 A 
ATOM     21  F   LIG    1       -1.268   3.909   7.317  0.00  0.00    -0.205 F 
ATOM     22  C   LIG    1       -0.425   4.006   5.117  0.00  0.00    +0.046 A 
ENDBRANCH  11  15
ENDBRANCH   4  10
BRANCH   1  24
ATOM     23  C   LIG    1        4.323  -0.400   1.525  0.00  0.00    +0.285 C 
ATOM     24  N   LIG    1        4.066   0.591   2.283  0.00  0.00    -0.178 NA
BRANCH  23  27
ATOM     25  C   LIG    1        6.657  -0.447  -1.371  0.00  0.00    +0.133 C 
ATOM     26  C   LIG    1        5.527   0.230  -0.571  0.00  0.00    +0.140 C 
ATOM     27  N   LIG    1        5.255  -0.675   0.544  0.00  0.00    -0.283 N 
ATOM     28  C   LIG    1        6.188  -1.795   0.525  0.00  0.00    +0.112 C 
ATOM     29  C   LIG    1        7.365  -1.261  -0.296  0.00  0.00    +0.052 C 
BRANCH  25  30
ATOM     30  O   LIG    1        7.505   0.509  -1.988  0.00  0.00    -0.390 OA
ATOM     31  H   LIG    1        8.422   0.366  -1.698  0.00  0.00    +0.210 HD
ENDBRANCH  25  30
ENDBRANCH  23  27
BRANCH  23  32
ATOM     32  O   LIG    1        3.461  -1.433   1.642  0.00  0.00    -0.481 OA
ATOM     33  H   LIG    1        3.590  -2.069   0.937  0.00  0.00    +0.295 HD
ENDBRANCH  23  32
ENDBRANCH   1  24
TORSDOF 6
