REMARK  Name = pdb/CHEMBL3298265.pdb
REMARK                            x       y       z     vdW  Elec       q    Type
REMARK                         _______ _______ _______ _____ _____    ______ ____
ROOT
ATOM      1  C   LIG    1        9.683  -2.809   0.209  0.00  0.00    +0.149 A 
ATOM      2  C   LIG    1       10.992  -2.343   0.001  0.00  0.00    +0.131 A 
ATOM      3  N   LIG    1       11.362  -1.024  -0.092  0.00  0.00    -0.227 NA
ATOM      4  C   LIG    1       12.661  -0.693  -0.239  0.00  0.00    +0.123 A 
ATOM      5  C   LIG    1       13.628  -1.682  -0.310  0.00  0.00    +0.046 A 
ATOM      6  C   LIG    1       13.244  -3.024  -0.275  0.00  0.00    +0.033 A 
ATOM      7  C   LIG    1       11.921  -3.384  -0.109  0.00  0.00    +0.094 A 
ATOM      8  N   LIG    1       11.615  -4.695  -0.063  0.00  0.00    -0.234 NA
ATOM      9  C   LIG    1       10.336  -5.006   0.145  0.00  0.00    +0.224 A 
ATOM     10  N   LIG    1        9.341  -4.119   0.295  0.00  0.00    -0.219 NA
ENDROOT
BRANCH   4  11
ATOM     11  N   LIG    1       13.007   0.638  -0.432  0.00  0.00    -0.308 N 
ATOM     12  C   LIG    1       13.974   1.309   0.460  0.00  0.00    +0.108 C 
ATOM     13  C   LIG    1       13.367   2.720   0.635  0.00  0.00    +0.029 C 
ATOM     14  C   LIG    1       12.576   2.936  -0.648  0.00  0.00    +0.021 C 
ATOM     15  C   LIG    1       11.978   1.556  -0.898  0.00  0.00    +0.107 C 
BRANCH  12  16
ATOM     16  C   LIG    1       15.353   1.351  -0.176  0.00  0.00    +0.011 A 
ATOM     17  C   LIG    1       16.502   1.450   0.619  0.00  0.00    +0.129 A 
ATOM     18  F   LIG    1       16.388   1.540   1.952  0.00  0.00    -0.205 F 
ATOM     19  C   LIG    1       17.783   1.439   0.059  0.00  0.00    +0.041 A 
ATOM     20  C   LIG    1       17.934   1.330  -1.323  0.00  0.00    +0.041 A 
ATOM     21  C   LIG    1       16.804   1.250  -2.124  0.00  0.00    +0.124 A 
ATOM     22  F   LIG    1       16.939   1.133  -3.451  0.00  0.00    -0.205 F 
ATOM     23  C   LIG    1       15.529   1.273  -1.569  0.00  0.00    +0.046 A 
ENDBRANCH  12  16
ENDBRANCH   4  11
BRANCH   1  24
ATOM     24  N   LIG    1        8.583  -1.945   0.419  0.00  0.00    -0.322 N 
ATOM     25  H   LIG    1        7.781  -2.559   0.565  0.00  0.00    +0.148 HD
BRANCH  24  26
ATOM     26  C   LIG    1        8.303  -1.058  -0.714  0.00  0.00    +0.160 C 
BRANCH  26  32
ATOM     27  C   LIG    1        2.641   3.389   0.384  0.00  0.00    +0.053 C 
ATOM     28  C   LIG    1        3.743   2.428   0.105  0.00  0.00    +0.007 A 
ATOM     29  S   LIG    1        3.400   0.849  -0.655  0.00  0.00    -0.055 S 
ATOM     30  C   LIG    1        5.093   0.470  -0.560  0.00  0.00    +0.178 A 
ATOM     31  N   LIG    1        5.834  -0.551  -0.892  0.00  0.00    -0.225 NA
ATOM     32  C   LIG    1        7.115  -0.154  -0.516  0.00  0.00    +0.078 A 
ATOM     33  C   LIG    1        7.098   1.121   0.041  0.00  0.00    +0.118 A 
ATOM     34  N   LIG    1        5.791   1.495   0.001  0.00  0.00    -0.300 N 
ATOM     35  C   LIG    1        5.052   2.594   0.374  0.00  0.00    +0.103 A 
ENDBRANCH  26  32
ENDBRANCH  24  26
ENDBRANCH   1  24
TORSDOF 5
