REMARK  Name = pdb/CHEMBL3912928.pdb
REMARK                            x       y       z     vdW  Elec       q    Type
REMARK                         _______ _______ _______ _____ _____    ______ ____
ROOT
ATOM      1  C   LIG    1        9.259   1.665   2.855  0.00  0.00    +0.149 A 
ATOM      2  N   LIG    1       10.333   1.277   3.557  0.00  0.00    -0.160 NA
ATOM      3  N   LIG    1       11.253   2.260   3.387  0.00  0.00    -0.218 N 
ATOM      4  C   LIG    1       10.710   3.351   2.696  0.00  0.00    +0.129 A 
ATOM      5  C   LIG    1        9.411   2.993   2.411  0.00  0.00    +0.078 A 
ENDROOT
BRANCH   3   6
ATOM      6  C   LIG    1       12.580   2.054   3.868  0.00  0.00    +0.067 A 
ATOM      7  C   LIG    1       13.678   2.707   3.298  0.00  0.00    +0.028 A 
ATOM      8  C   LIG    1       14.968   2.473   3.787  0.00  0.00    +0.002 A 
ATOM      9  C   LIG    1       15.173   1.578   4.834  0.00  0.00    +0.000 A 
ATOM     10  C   LIG    1       14.090   0.903   5.391  0.00  0.00    +0.002 A 
ATOM     11  C   LIG    1       12.799   1.130   4.907  0.00  0.00    +0.028 A 
ENDBRANCH   3   6
BRANCH   4  12
ATOM     12  N   LIG    1       11.315   4.576   2.373  0.00  0.00    -0.266 N 
ATOM     13  H   LIG    1       12.237   4.751   2.735  0.00  0.00    +0.157 HD
ATOM     14  C   LIG    1       10.671   5.607   1.603  0.00  0.00    +0.251 C 
ATOM     15  O   LIG    1        9.510   5.489   1.208  0.00  0.00    -0.270 OA
BRANCH  14  16
ATOM     16  C   LIG    1       11.424   6.835   1.284  0.00  0.00    +0.056 A 
ATOM     17  C   LIG    1       12.407   7.362   2.122  0.00  0.00    +0.054 A 
ATOM     18 CL   LIG    1       13.063   6.532   3.484  0.00  0.00    -0.083 Cl
ATOM     19  C   LIG    1       12.895   8.640   1.875  0.00  0.00    +0.041 A 
ATOM     20  C   LIG    1       12.481   9.373   0.750  0.00  0.00    +0.052 A 
ATOM     21 CL   LIG    1       13.046  11.009   0.696  0.00  0.00    -0.083 Cl
ATOM     22  C   LIG    1       11.608   8.818  -0.210  0.00  0.00    +0.022 A 
ATOM     23  C   LIG    1       11.060   7.553   0.118  0.00  0.00    +0.026 A 
BRANCH  22  24
ATOM     24  C   LIG    1       11.288   9.481  -1.507  0.00  0.00    +0.107 A 
ATOM     25  C   LIG    1       10.063   9.358  -2.168  0.00  0.00    +0.149 A 
ATOM     26  F   LIG    1        9.043   8.676  -1.629  0.00  0.00    -0.203 F 
ATOM     27  C   LIG    1        9.873   9.957  -3.412  0.00  0.00    +0.042 A 
ATOM     28  C   LIG    1       10.897  10.709  -3.968  0.00  0.00    +0.023 A 
ATOM     29  C   LIG    1       12.080  10.810  -3.259  0.00  0.00    +0.111 A 
ATOM     30  N   LIG    1       12.303  10.189  -2.074  0.00  0.00    -0.252 NA
ENDBRANCH  22  24
ENDBRANCH  14  16
ENDBRANCH   4  12
BRANCH   1  32
ATOM     31  N   LIG    1        7.103   1.248   1.953  0.00  0.00    -0.246 NA
ATOM     32  C   LIG    1        8.107   0.801   2.613  0.00  0.00    +0.236 C 
BRANCH  32  33
ATOM     33  O   LIG    1        8.200  -0.435   3.136  0.00  0.00    -0.491 OA
ATOM     34  H   LIG    1        7.420  -0.973   2.953  0.00  0.00    +0.294 HD
ENDBRANCH  32  33
BRANCH  31  35
ATOM     35  C   LIG    1        5.909   0.438   1.701  0.00  0.00    +0.179 C 
BRANCH  35  36
ATOM     36  C   LIG    1        4.879   0.646   2.822  0.00  0.00    +0.161 C 
BRANCH  36  37
ATOM     37  O   LIG    1        5.443   0.237   4.074  0.00  0.00    -0.388 OA
ATOM     38  H   LIG    1        6.124   0.893   4.309  0.00  0.00    +0.210 HD
ENDBRANCH  36  37
BRANCH  36  39
ATOM     39  C   LIG    1        4.384   2.101   2.892  0.00  0.00    +0.192 C 
BRANCH  39  41
ATOM     40  C   LIG    1        2.622   1.846   1.304  0.00  0.00    +0.194 C 
ATOM     41  O   LIG    1        3.779   2.575   1.689  0.00  0.00    -0.380 OA
ENDBRANCH  39  41
ENDBRANCH  36  39
ENDBRANCH  35  36
ENDBRANCH  31  35
ENDBRANCH   1  32
TORSDOF 11
