REMARK  Name = pdb/CHEMBL3905830.pdb
REMARK                            x       y       z     vdW  Elec       q    Type
REMARK                         _______ _______ _______ _____ _____    ______ ____
ROOT
ATOM      1  N   LIG    1        4.392   3.212   2.585  0.00  0.00    -0.266 N 
ATOM      2  H   LIG    1        4.720   3.510   3.494  0.00  0.00    +0.157 HD
ATOM      3  C   LIG    1        3.592   4.130   1.813  0.00  0.00    +0.251 C 
ATOM      4  O   LIG    1        3.048   3.792   0.782  0.00  0.00    -0.270 OA
ENDROOT
BRANCH   3   5
ATOM      5  C   LIG    1        3.457   5.516   2.332  0.00  0.00    +0.056 A 
ATOM      6  C   LIG    1        3.493   5.847   3.686  0.00  0.00    +0.056 A 
ATOM      7 CL   LIG    1        3.711   4.693   4.951  0.00  0.00    -0.083 Cl
ATOM      8  C   LIG    1        3.318   7.171   4.079  0.00  0.00    +0.059 A 
ATOM      9  C   LIG    1        3.130   8.169   3.125  0.00  0.00    +0.134 A 
ATOM     10  F   LIG    1        2.923   9.412   3.579  0.00  0.00    -0.205 F 
ATOM     11  C   LIG    1        3.118   7.892   1.752  0.00  0.00    +0.039 A 
ATOM     12  C   LIG    1        3.249   6.536   1.378  0.00  0.00    +0.027 A 
BRANCH  11  13
ATOM     13  C   LIG    1        2.956   8.939   0.725  0.00  0.00    +0.109 A 
ATOM     14  C   LIG    1        3.451  10.240   0.848  0.00  0.00    +0.149 A 
ATOM     15  F   LIG    1        4.174  10.623   1.909  0.00  0.00    -0.203 F 
ATOM     16  C   LIG    1        3.240  11.159  -0.174  0.00  0.00    +0.042 A 
ATOM     17  C   LIG    1        2.560  10.759  -1.316  0.00  0.00    +0.023 A 
ATOM     18  C   LIG    1        2.126   9.446  -1.390  0.00  0.00    +0.111 A 
ATOM     19  N   LIG    1        2.309   8.535  -0.405  0.00  0.00    -0.252 NA
ENDBRANCH  11  13
ENDBRANCH   3   5
BRANCH   1  23
ATOM     20  C   LIG    1        4.357  -0.095   1.209  0.00  0.00    +0.149 A 
ATOM     21  N   LIG    1        4.641  -0.391   2.486  0.00  0.00    -0.160 NA
ATOM     22  N   LIG    1        4.859   0.798   3.094  0.00  0.00    -0.218 N 
ATOM     23  C   LIG    1        4.537   1.862   2.250  0.00  0.00    +0.129 A 
ATOM     24  C   LIG    1        4.296   1.304   1.021  0.00  0.00    +0.078 A 
BRANCH  22  25
ATOM     25  C   LIG    1        5.278   0.812   4.452  0.00  0.00    +0.067 A 
ATOM     26  C   LIG    1        6.056   1.852   4.975  0.00  0.00    +0.028 A 
ATOM     27  C   LIG    1        6.463   1.807   6.313  0.00  0.00    +0.002 A 
ATOM     28  C   LIG    1        6.093   0.738   7.130  0.00  0.00    +0.000 A 
ATOM     29  C   LIG    1        5.333  -0.305   6.610  0.00  0.00    +0.002 A 
ATOM     30  C   LIG    1        4.940  -0.278   5.272  0.00  0.00    +0.028 A 
ENDBRANCH  22  25
BRANCH  20  31
ATOM     31  C   LIG    1        4.114  -1.116   0.196  0.00  0.00    +0.236 C 
ATOM     32  N   LIG    1        3.809  -0.757  -1.007  0.00  0.00    -0.246 NA
BRANCH  32  33
ATOM     33  C   LIG    1        3.622  -1.703  -2.056  0.00  0.00    +0.109 C 
ATOM     34  C   LIG    1        4.074  -1.242  -3.417  0.00  0.00    +0.029 C 
ATOM     35  C   LIG    1        2.614  -1.344  -3.113  0.00  0.00    +0.029 C 
ENDBRANCH  32  33
BRANCH  31  36
ATOM     36  O   LIG    1        4.232  -2.389   0.626  0.00  0.00    -0.491 OA
ATOM     37  H   LIG    1        3.938  -3.022  -0.034  0.00  0.00    +0.294 HD
ENDBRANCH  31  36
ENDBRANCH  20  31
ENDBRANCH   1  23
TORSDOF 7
