REMARK  Name = pdb/CHEMBL3678300.pdb
REMARK                            x       y       z     vdW  Elec       q    Type
REMARK                         _______ _______ _______ _____ _____    ______ ____
ROOT
ATOM      1  C   LIG    1        3.134  -0.011  -1.450  0.00  0.00    +0.162 A 
ATOM      2  C   LIG    1        3.212  -1.412  -1.482  0.00  0.00    +0.162 A 
ATOM      3  C   LIG    1        3.836  -2.022  -2.584  0.00  0.00    +0.050 A 
ATOM      4  C   LIG    1        4.346  -1.262  -3.654  0.00  0.00    +0.009 A 
ATOM      5  C   LIG    1        4.236   0.135  -3.647  0.00  0.00    -0.021 A 
ATOM      6  C   LIG    1        3.625   0.725  -2.533  0.00  0.00    +0.055 A 
ENDROOT
BRANCH   1   8
ATOM      7  C   LIG    1        2.591   2.020  -0.284  0.00  0.00    +0.277 C 
ATOM      8  O   LIG    1        2.578   0.602  -0.362  0.00  0.00    -0.491 OA
ENDBRANCH   1   8
BRANCH   5   9
ATOM      9  C   LIG    1        4.684   0.997  -4.829  0.00  0.00    +0.119 C 
ATOM     10  C   LIG    1        3.534   1.209  -5.823  0.00  0.00    +0.036 C 
BRANCH   9  11
ATOM     11  N   LIG    1        5.308   2.256  -4.397  0.00  0.00    -0.290 N 
ATOM     12  C   LIG    1        4.664   3.446  -4.118  0.00  0.00    +0.162 A 
ATOM     13  N   LIG    1        3.345   3.713  -4.162  0.00  0.00    -0.235 NA
ATOM     14  C   LIG    1        3.047   4.990  -3.800  0.00  0.00    +0.121 A 
ATOM     15  C   LIG    1        3.956   5.980  -3.414  0.00  0.00    +0.005 A 
ATOM     16  C   LIG    1        5.312   5.626  -3.370  0.00  0.00    +0.041 A 
ATOM     17  C   LIG    1        5.675   4.323  -3.745  0.00  0.00    +0.110 A 
ATOM     18  N   LIG    1        6.898   3.712  -3.803  0.00  0.00    -0.213 NA
ATOM     19  C   LIG    1        6.656   2.496  -4.195  0.00  0.00    +0.196 A 
BRANCH  15  20
ATOM     20  C   LIG    1        3.535   7.335  -3.082  0.00  0.00    +0.021 A 
ATOM     21  C   LIG    1        2.243   7.823  -3.123  0.00  0.00    +0.116 A 
ATOM     22  N   LIG    1        2.313   9.143  -2.769  0.00  0.00    -0.274 N 
ATOM     23  C   LIG    1        1.210  10.069  -2.683  0.00  0.00    +0.172 C 
ATOM     24  N   LIG    1        3.558   9.554  -2.488  0.00  0.00    -0.179 NA
ATOM     25  C   LIG    1        4.299   8.461  -2.684  0.00  0.00    +0.143 A 
ENDBRANCH  15  20
BRANCH  19  26
ATOM     26  N   LIG    1        7.597   1.548  -4.390  0.00  0.00    -0.329 N 
ATOM     27  H   LIG    1        8.525   1.822  -4.073  0.00  0.00    +0.145 HD
ATOM     28  H   LIG    1        7.398   0.578  -4.163  0.00  0.00    +0.145 HD
ENDBRANCH  19  26
ENDBRANCH   9  11
ENDBRANCH   5   9
BRANCH   2  29
ATOM     29  O   LIG    1        2.740  -2.297  -0.530  0.00  0.00    -0.484 OA
BRANCH  29  30
ATOM     30  C   LIG    1        1.950  -1.737   0.525  0.00  0.00    +0.266 C 
BRANCH  30  31
ATOM     31  C   LIG    1        1.426  -2.770   1.488  0.00  0.00    +0.008 A 
ATOM     32  C   LIG    1        2.270  -3.660   2.136  0.00  0.00    +0.118 A 
ATOM     33  N   LIG    1        1.870  -4.505   3.117  0.00  0.00    -0.251 NA
ATOM     34  C   LIG    1        0.556  -4.480   3.491  0.00  0.00    +0.144 A 
ATOM     35  C   LIG    1       -0.360  -3.627   2.875  0.00  0.00    +0.033 A 
ATOM     36  C   LIG    1        0.083  -2.765   1.875  0.00  0.00    +0.010 A 
BRANCH  34  37
ATOM     37  C   LIG    1        0.092  -5.384   4.628  0.00  0.00    +0.434 C 
ATOM     38  F   LIG    1        0.738  -5.140   5.805  0.00  0.00    -0.164 F 
ATOM     39  F   LIG    1        0.266  -6.712   4.369  0.00  0.00    -0.164 F 
ATOM     40  F   LIG    1       -1.239  -5.245   4.917  0.00  0.00    -0.164 F 
ENDBRANCH  34  37
ENDBRANCH  30  31
ENDBRANCH  29  30
ENDBRANCH   2  29
TORSDOF 9
