REMARK  Name = pdb/CHEMBL2037222.pdb
REMARK                            x       y       z     vdW  Elec       q    Type
REMARK                         _______ _______ _______ _____ _____    ______ ____
ROOT
ATOM      1  C   LIG    1        7.342   2.050  -8.358  0.00  0.00    +0.035 A 
ATOM      2  C   LIG    1        8.440   1.471  -9.006  0.00  0.00    +0.046 A 
ATOM      3  C   LIG    1        9.020   2.060 -10.136  0.00  0.00    +0.033 A 
ATOM      4  C   LIG    1        8.500   3.272 -10.591  0.00  0.00    +0.023 A 
ATOM      5  C   LIG    1        7.402   3.856  -9.960  0.00  0.00    +0.004 A 
ATOM      6  C   LIG    1        6.821   3.245  -8.847  0.00  0.00    +0.023 A 
ENDROOT
BRANCH   1   8
ATOM      7  C   LIG    1        5.779   1.710  -6.435  0.00  0.00    +0.248 C 
ATOM      8  N   LIG    1        6.848   1.355  -7.236  0.00  0.00    -0.281 N 
ATOM      9  H   LIG    1        7.389   0.536  -6.989  0.00  0.00    +0.155 HD
ATOM     10  O   LIG    1        5.077   2.711  -6.538  0.00  0.00    -0.270 OA
BRANCH   7  15
ATOM     11  C   LIG    1        4.540   0.639  -3.028  0.00  0.00    +0.031 A 
ATOM     12  C   LIG    1        4.832  -0.736  -3.087  0.00  0.00    +0.035 A 
ATOM     13  C   LIG    1        5.372  -1.353  -4.241  0.00  0.00    +0.057 A 
ATOM     14  C   LIG    1        5.675  -0.584  -5.362  0.00  0.00    +0.025 A 
ATOM     15  C   LIG    1        5.479   0.793  -5.305  0.00  0.00    +0.039 A 
ATOM     16  C   LIG    1        4.924   1.380  -4.154  0.00  0.00    +0.036 A 
BRANCH  11  21
ATOM     17  C   LIG    1        0.651   2.244  -0.588  0.00  0.00    +0.105 C 
ATOM     18  N   LIG    1        1.956   2.398   0.051  0.00  0.00    -0.302 NA
ATOM     19  C   LIG    1        2.862   3.233  -0.762  0.00  0.00    +0.103 C 
ATOM     20  C   LIG    1        3.381   2.616  -2.084  0.00  0.00    +0.120 C 
ATOM     21  N   LIG    1        3.943   1.251  -1.908  0.00  0.00    -0.327 N 
ATOM     22  C   LIG    1        3.118   0.385  -1.024  0.00  0.00    +0.120 C 
ATOM     23  C   LIG    1        2.625   1.101   0.254  0.00  0.00    +0.103 C 
ENDBRANCH  11  21
BRANCH  13  24
ATOM     24  C   LIG    1        5.572  -2.846  -4.248  0.00  0.00    +0.417 C 
ATOM     25  F   LIG    1        4.410  -3.493  -3.975  0.00  0.00    -0.166 F 
ATOM     26  F   LIG    1        6.467  -3.250  -3.311  0.00  0.00    -0.166 F 
ATOM     27  F   LIG    1        6.016  -3.324  -5.437  0.00  0.00    -0.166 F 
ENDBRANCH  13  24
ENDBRANCH   7  15
ENDBRANCH   1   8
BRANCH   3  28
ATOM     28  N   LIG    1       10.126   1.428 -10.720  0.00  0.00    -0.314 N 
ATOM     29  H   LIG    1       10.120   0.417 -10.643  0.00  0.00    +0.152 HD
BRANCH  28  30
ATOM     30  C   LIG    1       11.170   1.925 -11.521  0.00  0.00    +0.033 A 
ATOM     31  C   LIG    1       11.664   1.122 -12.557  0.00  0.00    +0.047 A 
ATOM     32  C   LIG    1       12.718   1.603 -13.308  0.00  0.00    +0.043 A 
ATOM     33  N   LIG    1       13.384   0.918 -14.316  0.00  0.00    -0.281 N 
ATOM     34  H   LIG    1       13.178  -0.017 -14.630  0.00  0.00    +0.155 HD
ATOM     35  C   LIG    1       14.469   1.637 -14.780  0.00  0.00    +0.249 C 
ATOM     36  O   LIG    1       15.294   1.234 -15.574  0.00  0.00    -0.270 OA
ATOM     37  C   LIG    1       14.434   2.955 -14.031  0.00  0.00    +0.048 C 
ATOM     38  C   LIG    1       15.243   4.025 -14.139  0.00  0.00    +0.039 C 
ATOM     39  C   LIG    1       13.296   2.856 -13.095  0.00  0.00    +0.008 A 
ATOM     40  C   LIG    1       12.797   3.679 -12.102  0.00  0.00    +0.012 A 
ATOM     41  C   LIG    1       11.724   3.209 -11.325  0.00  0.00    +0.024 A 
BRANCH  38  42
ATOM     42  C   LIG    1       16.389   4.158 -14.977  0.00  0.00    +0.044 A 
ATOM     43  C   LIG    1       17.037   5.253 -15.538  0.00  0.00    -0.012 A 
ATOM     44  C   LIG    1       16.630   6.687 -15.444  0.00  0.00    +0.047 C 
ATOM     45  C   LIG    1       18.174   4.757 -16.283  0.00  0.00    +0.082 A 
ATOM     46  C   LIG    1       18.228   3.386 -16.052  0.00  0.00    +0.028 A 
ATOM     47  C   LIG    1       19.209   2.328 -16.418  0.00  0.00    +0.064 C 
ATOM     48  N   LIG    1       17.135   3.055 -15.295  0.00  0.00    -0.358 N 
ATOM     49  H   LIG    1       16.889   2.103 -15.046  0.00  0.00    +0.166 HD
BRANCH  45  50
ATOM     50  C   LIG    1       19.107   5.549 -17.089  0.00  0.00    +0.339 C 
ATOM     51  O   LIG    1       19.377   6.722 -16.872  0.00  0.00    -0.245 OA
BRANCH  50  52
ATOM     52  O   LIG    1       19.621   4.891 -18.161  0.00  0.00    -0.477 OA
ATOM     53  H   LIG    1       19.159   4.044 -18.288  0.00  0.00    +0.295 HD
ENDBRANCH  50  52
ENDBRANCH  45  50
ENDBRANCH  38  42
ENDBRANCH  28  30
ENDBRANCH   3  28
TORSDOF 9
