REMARK  Name = pdb/CHEMBL3915638.pdb
REMARK                            x       y       z     vdW  Elec       q    Type
REMARK                         _______ _______ _______ _____ _____    ______ ____
ROOT
ATOM      1  C   LIG    1       -1.011  -7.050  -0.254  0.00  0.00    +0.323 A 
ATOM      2  N   LIG    1       -1.470  -5.830  -0.576  0.00  0.00    -0.201 NA
ATOM      3  C   LIG    1       -2.789  -5.605  -0.400  0.00  0.00    +0.145 A 
ATOM      4  C   LIG    1       -3.701  -6.568  -0.030  0.00  0.00    +0.105 A 
ATOM      5  C   LIG    1       -3.124  -7.813   0.136  0.00  0.00    +0.145 A 
ATOM      6  N   LIG    1       -1.794  -8.086   0.061  0.00  0.00    -0.201 NA
ENDROOT
BRANCH   4   7
ATOM      7  N   LIG    1       -5.071  -6.225   0.039  0.00  0.00    -0.196 NA
ATOM      8  C   LIG    1       -5.931  -6.893   0.715  0.00  0.00    +0.285 C 
BRANCH   8   9
ATOM      9  N   LIG    1       -7.278  -6.685   0.811  0.00  0.00    -0.267 N 
ATOM     10  H   LIG    1       -7.864  -7.481   1.079  0.00  0.00    +0.157 HD
BRANCH   9  11
ATOM     11  C   LIG    1       -8.056  -5.662   0.229  0.00  0.00    +0.061 A 
ATOM     12  C   LIG    1       -9.417  -5.867  -0.127  0.00  0.00    +0.087 A 
ATOM     13  C   LIG    1      -10.156  -4.807  -0.686  0.00  0.00    +0.030 A 
ATOM     14  C   LIG    1       -9.581  -3.545  -0.856  0.00  0.00    +0.014 A 
ATOM     15  C   LIG    1       -8.253  -3.321  -0.499  0.00  0.00    +0.057 A 
ATOM     16  C   LIG    1       -7.498  -4.390   0.007  0.00  0.00    +0.037 A 
BRANCH  12  17
ATOM     17  N   LIG    1      -10.073  -7.123   0.085  0.00  0.00    -0.238 N 
ATOM     18  N   LIG    1       -9.432  -8.176   0.685  0.00  0.00    -0.175 NA
ATOM     19  C   LIG    1      -10.352  -9.144   0.738  0.00  0.00    +0.135 A 
ATOM     20  C   LIG    1      -11.585  -8.751   0.207  0.00  0.00    +0.041 A 
ATOM     21  C   LIG    1      -11.380  -7.460  -0.215  0.00  0.00    +0.114 A 
ENDBRANCH  12  17
BRANCH  15  22
ATOM     22  C   LIG    1       -7.656  -1.939  -0.609  0.00  0.00    +0.417 C 
ATOM     23  F   LIG    1       -8.340  -1.028   0.139  0.00  0.00    -0.166 F 
ATOM     24  F   LIG    1       -7.670  -1.462  -1.883  0.00  0.00    -0.166 F 
ATOM     25  F   LIG    1       -6.362  -1.864  -0.192  0.00  0.00    -0.166 F 
ENDBRANCH  15  22
ENDBRANCH   9  11
ENDBRANCH   8   9
BRANCH   8  26
ATOM     26  O   LIG    1       -5.562  -7.965   1.453  0.00  0.00    -0.481 OA
ATOM     27  H   LIG    1       -6.320  -8.370   1.898  0.00  0.00    +0.295 HD
ENDBRANCH   8  26
ENDBRANCH   4   7
BRANCH   1  28
ATOM     28  O   LIG    1        0.357  -7.304  -0.217  0.00  0.00    -0.424 OA
BRANCH  28  32
ATOM     29  C   LIG    1        3.283  -4.353   0.635  0.00  0.00    -0.014 A 
ATOM     30  C   LIG    1        3.597  -5.706   0.386  0.00  0.00    +0.012 A 
ATOM     31  C   LIG    1        2.599  -6.660   0.100  0.00  0.00    +0.047 A 
ATOM     32  C   LIG    1        1.251  -6.301   0.085  0.00  0.00    +0.132 A 
ATOM     33  C   LIG    1        0.936  -4.982   0.397  0.00  0.00    +0.047 A 
ATOM     34  C   LIG    1        1.926  -4.027   0.611  0.00  0.00    +0.012 A 
BRANCH  29  36
ATOM     35  C   LIG    1        4.108  -2.150   1.677  0.00  0.00    +0.124 A 
ATOM     36  C   LIG    1        4.314  -3.306   0.883  0.00  0.00    +0.023 A 
ATOM     37  C   LIG    1        5.581  -3.404   0.275  0.00  0.00    +0.033 A 
ATOM     38  C   LIG    1        6.543  -2.417   0.467  0.00  0.00    +0.060 A 
ATOM     39 CL   LIG    1        8.092  -2.550  -0.258  0.00  0.00    -0.082 Cl
ATOM     40  C   LIG    1        6.221  -1.329   1.251  0.00  0.00    +0.133 A 
ATOM     41  N   LIG    1        5.025  -1.174   1.853  0.00  0.00    -0.239 NA
BRANCH  35  42
ATOM     42  N   LIG    1        2.934  -1.896   2.383  0.00  0.00    -0.343 N 
ATOM     43  H   LIG    1        2.739  -2.647   3.036  0.00  0.00    +0.144 HD
ATOM     44  H   LIG    1        3.075  -1.010   2.863  0.00  0.00    +0.144 HD
ENDBRANCH  35  42
ENDBRANCH  29  36
ENDBRANCH  28  32
ENDBRANCH   1  28
TORSDOF 10
