REMARK  Name = pdb/CHEMBL3914544.pdb
REMARK                            x       y       z     vdW  Elec       q    Type
REMARK                         _______ _______ _______ _____ _____    ______ ____
ROOT
ATOM      1  C   LIG    1        2.826  -0.533  -2.051  0.00  0.00    +0.131 C 
ATOM      2  N   LIG    1        4.118  -0.707  -2.372  0.00  0.00    -0.141 NA
ATOM      3  N   LIG    1        4.384   0.296  -3.259  0.00  0.00    -0.201 N 
ATOM      4  C   LIG    1        3.364   1.257  -3.265  0.00  0.00    +0.185 C 
ATOM      5  C   LIG    1        2.338   0.702  -2.530  0.00  0.00    +0.056 C 
ENDROOT
BRANCH   3   6
ATOM      6  C   LIG    1        5.603   0.272  -3.998  0.00  0.00    +0.052 A 
ATOM      7  C   LIG    1        5.706   0.866  -5.261  0.00  0.00    +0.025 A 
ATOM      8  C   LIG    1        6.919   0.836  -5.958  0.00  0.00    +0.002 A 
ATOM      9  C   LIG    1        8.027   0.196  -5.408  0.00  0.00    +0.000 A 
ATOM     10  C   LIG    1        7.921  -0.434  -4.171  0.00  0.00    +0.002 A 
ATOM     11  C   LIG    1        6.711  -0.409  -3.471  0.00  0.00    +0.025 A 
ENDBRANCH   3   6
BRANCH   4  12
ATOM     12  N   LIG    1        3.368   2.527  -3.851  0.00  0.00    -0.282 N 
ATOM     13  H   LIG    1        4.153   2.760  -4.463  0.00  0.00    +0.152 HD
ATOM     14  C   LIG    1        2.386   3.553  -3.579  0.00  0.00    +0.247 C 
ATOM     15  O   LIG    1        1.525   3.392  -2.725  0.00  0.00    -0.270 OA
BRANCH  14  16
ATOM     16  C   LIG    1        2.525   4.840  -4.306  0.00  0.00    +0.056 A 
ATOM     17  C   LIG    1        3.040   4.955  -5.604  0.00  0.00    +0.054 A 
ATOM     18 CL   LIG    1        3.511   3.607  -6.565  0.00  0.00    -0.083 Cl
ATOM     19  C   LIG    1        3.167   6.211  -6.192  0.00  0.00    +0.041 A 
ATOM     20  C   LIG    1        2.765   7.374  -5.521  0.00  0.00    +0.052 A 
ATOM     21 CL   LIG    1        3.114   8.847  -6.361  0.00  0.00    -0.083 Cl
ATOM     22  C   LIG    1        2.178   7.309  -4.241  0.00  0.00    +0.019 A 
ATOM     23  C   LIG    1        2.084   6.017  -3.662  0.00  0.00    +0.026 A 
BRANCH  22  24
ATOM     24  C   LIG    1        1.687   8.480  -3.463  0.00  0.00    +0.072 A 
ATOM     25  N   LIG    1        1.794   8.350  -2.114  0.00  0.00    -0.255 NA
ATOM     26  C   LIG    1        1.358   9.369  -1.334  0.00  0.00    +0.111 A 
ATOM     27  C   LIG    1        0.824  10.544  -1.827  0.00  0.00    +0.020 A 
ATOM     28  C   LIG    1        0.703  10.671  -3.201  0.00  0.00    +0.004 A 
ATOM     29  C   LIG    1        1.112   9.621  -4.024  0.00  0.00    +0.028 A 
ENDBRANCH  22  24
ENDBRANCH  14  16
ENDBRANCH   4  12
BRANCH   1  30
ATOM     30  C   LIG    1        2.096  -1.541  -1.293  0.00  0.00    +0.233 C 
ATOM     31  N   LIG    1        0.814  -1.514  -1.256  0.00  0.00    -0.243 NA
BRANCH  30  32
ATOM     32  O   LIG    1        2.862  -2.482  -0.699  0.00  0.00    -0.491 OA
ATOM     33  H   LIG    1        3.801  -2.309  -0.910  0.00  0.00    +0.294 HD
ENDBRANCH  30  32
BRANCH  31  34
ATOM     34  C   LIG    1        0.158  -2.607  -0.521  0.00  0.00    +0.202 C 
BRANCH  34  35
ATOM     35  C   LIG    1       -1.245  -2.896  -1.010  0.00  0.00    +0.085 A 
ATOM     36  N   LIG    1       -2.120  -3.401  -0.110  0.00  0.00    -0.152 NA
ATOM     37  N   LIG    1       -3.387  -3.744  -0.496  0.00  0.00    -0.157 NA
ATOM     38  C   LIG    1       -3.754  -3.582  -1.781  0.00  0.00    +0.135 A 
ATOM     39  C   LIG    1       -2.894  -3.082  -2.738  0.00  0.00    +0.023 A 
ATOM     40  C   LIG    1       -1.607  -2.740  -2.344  0.00  0.00    +0.028 A 
ENDBRANCH  34  35
ENDBRANCH  31  34
ENDBRANCH   1  30
TORSDOF 8
