REMARK  Name = pdb/CHEMBL3675939.pdb
REMARK                            x       y       z     vdW  Elec       q    Type
REMARK                         _______ _______ _______ _____ _____    ______ ____
ROOT
ATOM      1  C   LIG    1        7.488   0.513  -5.032  0.00  0.00    +0.100 A 
ATOM      2  C   LIG    1        7.578   1.507  -5.995  0.00  0.00    +0.170 A 
ATOM      3  N   LIG    1        7.782   2.865  -5.913  0.00  0.00    -0.212 NA
ATOM      4  C   LIG    1        7.719   3.568  -7.026  0.00  0.00    +0.126 A 
ATOM      5  C   LIG    1        7.522   2.919  -8.376  0.00  0.00    +0.063 A 
ATOM      6  C   LIG    1        7.380   1.593  -8.404  0.00  0.00    +0.118 A 
ATOM      7  N   LIG    1        7.376   0.873  -7.225  0.00  0.00    -0.221 N 
ATOM      8  N   LIG    1        7.141  -0.448  -7.092  0.00  0.00    -0.173 NA
ATOM      9  C   LIG    1        7.152  -0.646  -5.773  0.00  0.00    +0.150 A 
ENDROOT
BRANCH   4  10
ATOM     10  N   LIG    1        7.846   4.948  -6.984  0.00  0.00    -0.308 N 
ATOM     11  C   LIG    1        8.150   5.682  -5.741  0.00  0.00    +0.106 C 
ATOM     12  C   LIG    1        7.462   7.043  -5.954  0.00  0.00    +0.029 C 
ATOM     13  C   LIG    1        7.481   7.233  -7.461  0.00  0.00    +0.021 C 
ATOM     14  C   LIG    1        7.217   5.828  -7.971  0.00  0.00    +0.107 C 
BRANCH  11  15
ATOM     15  C   LIG    1        9.662   5.781  -5.505  0.00  0.00    -0.013 A 
ATOM     16  C   LIG    1       10.241   5.875  -4.211  0.00  0.00    +0.060 A 
ATOM     17  C   LIG    1       11.654   5.872  -4.080  0.00  0.00    +0.015 A 
ATOM     18  C   LIG    1       12.490   5.803  -5.189  0.00  0.00    +0.039 A 
ATOM     19  C   LIG    1       11.925   5.753  -6.448  0.00  0.00    +0.124 A 
ATOM     20  F   LIG    1       12.716   5.691  -7.527  0.00  0.00    -0.205 F 
ATOM     21  C   LIG    1       10.543   5.749  -6.612  0.00  0.00    +0.044 A 
BRANCH  16  22
ATOM     22  C   LIG    1        9.476   5.969  -2.905  0.00  0.00    +0.418 C 
ATOM     23  F   LIG    1        9.788   7.105  -2.217  0.00  0.00    -0.166 F 
ATOM     24  F   LIG    1        9.778   4.944  -2.063  0.00  0.00    -0.166 F 
ATOM     25  F   LIG    1        8.123   5.978  -3.016  0.00  0.00    -0.166 F 
ENDBRANCH  16  22
ENDBRANCH  11  15
ENDBRANCH   4  10
BRANCH   1  28
ATOM     26  N   LIG    1        8.073   1.809  -3.094  0.00  0.00    -0.309 N 
ATOM     27  H   LIG    1        8.159   2.572  -3.757  0.00  0.00    +0.149 HD
ATOM     28  C   LIG    1        7.661   0.584  -3.587  0.00  0.00    +0.249 C 
ATOM     29  O   LIG    1        7.492  -0.390  -2.877  0.00  0.00    -0.270 OA
BRANCH  26  30
ATOM     30  C   LIG    1        8.267   2.072  -1.666  0.00  0.00    +0.138 C 
BRANCH  30  31
ATOM     31  C   LIG    1        9.407   1.250  -1.031  0.00  0.00    +0.157 C 
BRANCH  31  32
ATOM     32  O   LIG    1       10.645   1.496  -1.715  0.00  0.00    -0.388 OA
ATOM     33  H   LIG    1       10.632   0.926  -2.504  0.00  0.00    +0.210 HD
ENDBRANCH  31  32
BRANCH  31  34
ATOM     34  C   LIG    1        9.639   1.575   0.449  0.00  0.00    +0.188 C 
BRANCH  34  35
ATOM     35  O   LIG    1        8.484   1.337   1.240  0.00  0.00    -0.392 OA
ATOM     36  H   LIG    1        8.772   1.376   2.169  0.00  0.00    +0.210 HD
ENDBRANCH  34  35
ENDBRANCH  31  34
ENDBRANCH  30  31
ENDBRANCH  26  30
ENDBRANCH   1  28
TORSDOF 9
