REMARK  Name = pdb/CHEMBL3666249.pdb
REMARK                            x       y       z     vdW  Elec       q    Type
REMARK                         _______ _______ _______ _____ _____    ______ ____
ROOT
ATOM      1  C   LIG    1        4.832   3.274   4.612  0.00  0.00    +0.042 A 
ATOM      2  C   LIG    1        4.134   3.855   5.687  0.00  0.00    +0.038 A 
ATOM      3  C   LIG    1        4.746   4.850   6.456  0.00  0.00    +0.052 A 
ATOM      4  C   LIG    1        6.022   5.252   6.057  0.00  0.00    +0.134 A 
ATOM      5  N   LIG    1        6.716   4.718   5.027  0.00  0.00    -0.261 NA
ATOM      6  C   LIG    1        6.110   3.734   4.329  0.00  0.00    +0.122 A 
ENDROOT
BRANCH   3   7
ATOM      7  N   LIG    1        4.078   5.379   7.591  0.00  0.00    -0.284 N 
ATOM      8  H   LIG    1        3.174   4.980   7.831  0.00  0.00    +0.155 HD
ATOM      9  C   LIG    1        4.599   6.366   8.420  0.00  0.00    +0.222 C 
ATOM     10  O   LIG    1        5.688   6.922   8.256  0.00  0.00    -0.275 OA
BRANCH   9  11
ATOM     11  C   LIG    1        3.709   6.738   9.588  0.00  0.00    +0.131 C 
BRANCH  11  12
ATOM     12  C   LIG    1        4.310   7.796  10.493  0.00  0.00    -0.038 A 
ATOM     13  C   LIG    1        4.086   9.161  10.249  0.00  0.00    +0.016 A 
ATOM     14  C   LIG    1        4.612  10.146  11.104  0.00  0.00    +0.055 A 
ATOM     15  C   LIG    1        5.395   9.749  12.197  0.00  0.00    +0.012 A 
ATOM     16  C   LIG    1        5.661   8.399  12.420  0.00  0.00    +0.001 A 
ATOM     17  C   LIG    1        5.127   7.429  11.570  0.00  0.00    +0.004 A 
BRANCH  14  18
ATOM     18  C   LIG    1        4.306  11.603  10.856  0.00  0.00    +0.417 C 
ATOM     19  F   LIG    1        2.966  11.853  10.857  0.00  0.00    -0.166 F 
ATOM     20  F   LIG    1        4.765  12.045   9.653  0.00  0.00    -0.166 F 
ATOM     21  F   LIG    1        4.837  12.442  11.790  0.00  0.00    -0.166 F 
ENDBRANCH  14  18
ENDBRANCH  11  12
ENDBRANCH   9  11
ENDBRANCH   3   7
BRANCH   1  22
ATOM     22  C   LIG    1        4.269   2.214   3.729  0.00  0.00    +0.197 C 
ATOM     23  O   LIG    1        4.617   2.160   2.558  0.00  0.00    -0.287 OA
BRANCH  22  31
ATOM     24  N   LIG    1        2.216  -0.050   5.742  0.00  0.00    -0.329 N 
ATOM     25  C   LIG    1        1.612  -0.230   4.525  0.00  0.00    +0.147 A 
ATOM     26  N   LIG    1        0.575  -1.047   4.280  0.00  0.00    -0.197 NA
ATOM     27  C   LIG    1        0.188  -1.033   3.001  0.00  0.00    +0.214 A 
ATOM     28  N   LIG    1        0.683  -0.253   2.028  0.00  0.00    -0.222 NA
ATOM     29  C   LIG    1        1.728   0.563   2.312  0.00  0.00    +0.126 A 
ATOM     30  C   LIG    1        2.252   0.588   3.601  0.00  0.00    +0.048 A 
ATOM     31  C   LIG    1        3.298   1.282   4.291  0.00  0.00    +0.051 A 
ATOM     32  C   LIG    1        3.266   0.823   5.599  0.00  0.00    +0.100 A 
BRANCH  24  34
ATOM     33  C   LIG    1        2.916  -1.509   7.614  0.00  0.00    +0.030 C 
ATOM     34  C   LIG    1        1.797  -0.669   6.998  0.00  0.00    +0.083 C 
ATOM     35  C   LIG    1        1.283   0.380   7.988  0.00  0.00    +0.030 C 
ENDBRANCH  24  34
BRANCH  27  36
ATOM     36  N   LIG    1       -0.858  -1.866   2.655  0.00  0.00    -0.327 N 
ATOM     37  H   LIG    1       -1.425  -2.060   3.467  0.00  0.00    +0.145 HD
ATOM     38  H   LIG    1       -1.321  -1.499   1.836  0.00  0.00    +0.145 HD
ENDBRANCH  27  36
ENDBRANCH  22  31
ENDBRANCH   1  22
TORSDOF 8
