REMARK  Name = pdb/CHEMBL3675914.pdb
REMARK                            x       y       z     vdW  Elec       q    Type
REMARK                         _______ _______ _______ _____ _____    ______ ____
ROOT
ATOM      1  C   LIG    1        4.810  -2.080   2.608  0.00  0.00    +0.100 A 
ATOM      2  C   LIG    1        5.277  -1.896   3.898  0.00  0.00    +0.170 A 
ATOM      3  N   LIG    1        5.670  -0.772   4.589  0.00  0.00    -0.212 NA
ATOM      4  C   LIG    1        6.138  -0.924   5.811  0.00  0.00    +0.126 A 
ATOM      5  C   LIG    1        6.174  -2.281   6.481  0.00  0.00    +0.063 A 
ATOM      6  C   LIG    1        5.770  -3.337   5.770  0.00  0.00    +0.118 A 
ATOM      7  N   LIG    1        5.331  -3.169   4.470  0.00  0.00    -0.221 N 
ATOM      8  N   LIG    1        4.914  -4.136   3.622  0.00  0.00    -0.173 NA
ATOM      9  C   LIG    1        4.616  -3.477   2.502  0.00  0.00    +0.150 A 
ENDROOT
BRANCH   4  10
ATOM     10  N   LIG    1        6.614   0.173   6.522  0.00  0.00    -0.308 N 
ATOM     11  C   LIG    1        6.591   1.545   5.984  0.00  0.00    +0.105 C 
ATOM     12  C   LIG    1        7.865   2.190   6.561  0.00  0.00    +0.029 C 
ATOM     13  C   LIG    1        8.074   1.468   7.880  0.00  0.00    +0.021 C 
ATOM     14  C   LIG    1        7.663   0.045   7.540  0.00  0.00    +0.107 C 
BRANCH  11  15
ATOM     15  C   LIG    1        5.327   2.300   6.379  0.00  0.00    -0.024 A 
ATOM     16  C   LIG    1        4.619   2.037   7.563  0.00  0.00    +0.043 A 
ATOM     17  C   LIG    1        3.487   2.781   7.891  0.00  0.00    +0.124 A 
ATOM     18  F   LIG    1        2.832   2.514   9.029  0.00  0.00    -0.205 F 
ATOM     19  C   LIG    1        3.030   3.798   7.065  0.00  0.00    +0.038 A 
ATOM     20  C   LIG    1        3.715   4.075   5.886  0.00  0.00    +0.003 A 
ATOM     21  C   LIG    1        4.854   3.334   5.547  0.00  0.00    +0.005 A 
ENDBRANCH  11  15
ENDBRANCH   4  10
BRANCH   1  24
ATOM     22  N   LIG    1        4.203   0.149   2.042  0.00  0.00    -0.306 N 
ATOM     23  H   LIG    1        4.297   0.274   3.049  0.00  0.00    +0.150 HD
ATOM     24  C   LIG    1        4.572  -1.094   1.568  0.00  0.00    +0.250 C 
ATOM     25  O   LIG    1        4.636  -1.394   0.388  0.00  0.00    -0.270 OA
BRANCH  22  27
ATOM     26  C   LIG    1        2.967   2.247   2.056  0.00  0.00    +0.031 C 
ATOM     27  C   LIG    1        3.910   1.347   1.236  0.00  0.00    +0.026 C 
ATOM     28  C   LIG    1        5.201   2.127   0.947  0.00  0.00    +0.031 C 
ATOM     29  C   LIG    1        3.203   1.021  -0.092  0.00  0.00    +0.031 C 
ENDBRANCH  22  27
ENDBRANCH   1  24
TORSDOF 4
