REMARK  Name = pdb/CHEMBL3675972.pdb
REMARK                            x       y       z     vdW  Elec       q    Type
REMARK                         _______ _______ _______ _____ _____    ______ ____
ROOT
ATOM      1  C   LIG    1        6.747   0.646   2.189  0.00  0.00    +0.100 A 
ATOM      2  C   LIG    1        7.639  -0.269   2.723  0.00  0.00    +0.170 A 
ATOM      3  N   LIG    1        7.445  -1.470   3.364  0.00  0.00    -0.212 NA
ATOM      4  C   LIG    1        8.503  -2.122   3.795  0.00  0.00    +0.126 A 
ATOM      5  C   LIG    1        9.903  -1.597   3.571  0.00  0.00    +0.063 A 
ATOM      6  C   LIG    1       10.032  -0.428   2.935  0.00  0.00    +0.118 A 
ATOM      7  N   LIG    1        8.910   0.256   2.503  0.00  0.00    -0.221 N 
ATOM      8  N   LIG    1        8.868   1.440   1.850  0.00  0.00    -0.173 NA
ATOM      9  C   LIG    1        7.566   1.664   1.663  0.00  0.00    +0.150 A 
ENDROOT
BRANCH   4  10
ATOM     10  N   LIG    1        8.337  -3.321   4.470  0.00  0.00    -0.308 N 
ATOM     11  C   LIG    1        7.033  -3.988   4.611  0.00  0.00    +0.107 C 
ATOM     12  C   LIG    1        7.107  -4.628   6.007  0.00  0.00    +0.029 C 
ATOM     13  C   LIG    1        8.580  -4.951   6.183  0.00  0.00    +0.021 C 
ATOM     14  C   LIG    1        9.276  -3.789   5.491  0.00  0.00    +0.107 C 
BRANCH  11  15
ATOM     15  C   LIG    1        6.806  -4.997   3.502  0.00  0.00    -0.006 A 
ATOM     16  C   LIG    1        7.848  -5.627   2.807  0.00  0.00    +0.046 A 
ATOM     17  C   LIG    1        7.561  -6.532   1.795  0.00  0.00    +0.142 A 
ATOM     18  F   LIG    1        8.555  -7.125   1.122  0.00  0.00    -0.204 F 
ATOM     19  C   LIG    1        6.241  -6.805   1.495  0.00  0.00    +0.149 A 
ATOM     20  N   LIG    1        5.199  -6.235   2.144  0.00  0.00    -0.260 NA
ATOM     21  C   LIG    1        5.509  -5.349   3.124  0.00  0.00    +0.116 A 
ENDBRANCH  11  15
ENDBRANCH   4  10
BRANCH   1  24
ATOM     22  N   LIG    1        4.784  -0.539   2.790  0.00  0.00    -0.308 N 
ATOM     23  H   LIG    1        5.437  -1.126   3.309  0.00  0.00    +0.149 HD
ATOM     24  C   LIG    1        5.300   0.571   2.162  0.00  0.00    +0.249 C 
ATOM     25  O   LIG    1        4.606   1.423   1.629  0.00  0.00    -0.270 OA
BRANCH  22  26
ATOM     26  C   LIG    1        3.363  -0.806   2.845  0.00  0.00    +0.142 C 
BRANCH  26  28
ATOM     27  F   LIG    1        3.560  -2.057   4.827  0.00  0.00    -0.243 F 
ATOM     28  C   LIG    1        3.061  -2.124   3.552  0.00  0.00    +0.197 C 
BRANCH  28  29
ATOM     29  C   LIG    1        1.576  -2.433   3.652  0.00  0.00    +0.147 C 
ATOM     30 CL   LIG    1        0.803  -2.600   2.061  0.00  0.00    -0.122 Cl
ENDBRANCH  28  29
ENDBRANCH  26  28
ENDBRANCH  22  26
ENDBRANCH   1  24
TORSDOF 6
