REMARK  Name = pdb/CHEMBL3671414.pdb
REMARK                            x       y       z     vdW  Elec       q    Type
REMARK                         _______ _______ _______ _____ _____    ______ ____
ROOT
ATOM      1  C   LIG    1        3.038   6.357   0.083  0.00  0.00    +0.042 A 
ATOM      2  C   LIG    1        2.712   7.650   0.527  0.00  0.00    +0.038 A 
ATOM      3  C   LIG    1        1.371   7.957   0.824  0.00  0.00    +0.052 A 
ATOM      4  C   LIG    1        0.444   6.930   0.749  0.00  0.00    +0.134 A 
ATOM      5  N   LIG    1        0.725   5.685   0.307  0.00  0.00    -0.261 NA
ATOM      6  C   LIG    1        2.008   5.442  -0.030  0.00  0.00    +0.122 A 
ENDROOT
BRANCH   3   7
ATOM      7  N   LIG    1        1.013   9.276   1.148  0.00  0.00    -0.283 N 
ATOM      8  H   LIG    1        1.783   9.923   1.350  0.00  0.00    +0.155 HD
ATOM      9  C   LIG    1       -0.251   9.779   1.429  0.00  0.00    +0.239 C 
ATOM     10  O   LIG    1       -1.290   9.115   1.421  0.00  0.00    -0.273 OA
BRANCH   9  11
ATOM     11  C   LIG    1       -0.347  11.290   1.621  0.00  0.00    +0.239 C 
BRANCH  11  12
ATOM     12  N   LIG    1        0.803  11.910   2.259  0.00  0.00    -0.262 N 
ATOM     13  N   LIG    1        1.904  11.180   2.480  0.00  0.00    -0.176 NA
ATOM     14  C   LIG    1        2.810  12.041   2.921  0.00  0.00    +0.066 A 
ATOM     15  C   LIG    1        2.289  13.343   3.004  0.00  0.00    +0.044 A 
ATOM     16  C   LIG    1        0.984  13.230   2.564  0.00  0.00    +0.109 A 
BRANCH  14  17
ATOM     17  C   LIG    1        4.228  11.600   3.231  0.00  0.00    +0.040 C 
ATOM     18  C   LIG    1        4.839  10.526   2.346  0.00  0.00    +0.010 C 
ATOM     19  C   LIG    1        4.448  10.183   3.741  0.00  0.00    +0.010 C 
ENDBRANCH  14  17
ENDBRANCH  11  12
ENDBRANCH   9  11
ENDBRANCH   3   7
BRANCH   1  20
ATOM     20  C   LIG    1        4.460   5.973  -0.210  0.00  0.00    +0.197 C 
ATOM     21  O   LIG    1        5.368   6.509   0.391  0.00  0.00    -0.287 OA
BRANCH  20  29
ATOM     22  N   LIG    1        4.485   3.696  -3.106  0.00  0.00    -0.323 N 
ATOM     23  C   LIG    1        5.508   3.138  -2.371  0.00  0.00    +0.145 A 
ATOM     24  N   LIG    1        6.216   2.045  -2.701  0.00  0.00    -0.218 NA
ATOM     25  C   LIG    1        7.167   1.747  -1.806  0.00  0.00    +0.223 A 
ATOM     26  N   LIG    1        7.476   2.421  -0.685  0.00  0.00    -0.243 NA
ATOM     27  C   LIG    1        6.744   3.520  -0.388  0.00  0.00    +0.124 A 
ATOM     28  C   LIG    1        5.698   3.911  -1.226  0.00  0.00    +0.048 A 
ATOM     29  C   LIG    1        4.691   4.931  -1.218  0.00  0.00    +0.051 A 
ATOM     30  C   LIG    1        3.955   4.741  -2.374  0.00  0.00    +0.100 A 
BRANCH  22  31
ATOM     31  C   LIG    1        4.024   3.344  -4.473  0.00  0.00    +0.065 C 
ATOM     32  C   LIG    1        4.771   2.148  -5.104  0.00  0.00    +0.036 C 
ATOM     33  C   LIG    1        2.528   2.957  -4.431  0.00  0.00    +0.036 C 
BRANCH  31  34
ATOM     34  C   LIG    1        4.246   4.581  -5.392  0.00  0.00    +0.187 C 
BRANCH  34  36
ATOM     35  C   LIG    1        4.053   5.455  -7.577  0.00  0.00    +0.194 C 
ATOM     36  O   LIG    1        3.841   4.323  -6.741  0.00  0.00    -0.381 OA
ENDBRANCH  34  36
ENDBRANCH  31  34
ENDBRANCH  22  31
ENDBRANCH  20  29
ENDBRANCH   1  20
TORSDOF 9
