REMARK  Name = pdb/CHEMBL1794057.pdb
REMARK                            x       y       z     vdW  Elec       q    Type
REMARK                         _______ _______ _______ _____ _____    ______ ____
ROOT
ATOM      1  N   LIG    1        8.183   1.899  -1.761  0.00  0.00    -0.320 N 
ATOM      2  H   LIG    1        8.230   2.820  -2.219  0.00  0.00    +0.152 HD
ENDROOT
BRANCH   1   9
ATOM      3  O   LIG    1        8.651   1.221   5.346  0.00  0.00    -0.247 OA
ATOM      4  C   LIG    1        8.455   1.538   4.187  0.00  0.00    +0.325 A 
ATOM      5  N   LIG    1        8.739   0.769   3.050  0.00  0.00    -0.306 N 
ATOM      6  H   LIG    1        9.153  -0.148   3.082  0.00  0.00    +0.170 HD
ATOM      7  C   LIG    1        8.376   1.493   1.919  0.00  0.00    +0.069 A 
ATOM      8  C   LIG    1        8.484   1.156   0.590  0.00  0.00    +0.051 A 
ATOM      9  C   LIG    1        8.085   2.118  -0.353  0.00  0.00    +0.033 A 
ATOM     10  C   LIG    1        7.514   3.343   0.093  0.00  0.00    +0.025 A 
ATOM     11  C   LIG    1        7.410   3.660   1.453  0.00  0.00    +0.029 A 
ATOM     12  C   LIG    1        7.859   2.715   2.340  0.00  0.00    +0.067 A 
ATOM     13  N   LIG    1        7.905   2.744   3.728  0.00  0.00    -0.306 N 
ATOM     14  H   LIG    1        7.610   3.492   4.334  0.00  0.00    +0.170 HD
ENDBRANCH   1   9
BRANCH   1  15
ATOM     15  C   LIG    1        9.158   1.060  -2.274  0.00  0.00    +0.085 C 
ATOM     16  C   LIG    1       10.230   1.415  -2.993  0.00  0.00    +0.060 C 
ATOM     17  C   LIG    1       11.349   0.578  -3.411  0.00  0.00    +0.010 A 
ATOM     18  C   LIG    1       11.587  -0.782  -3.370  0.00  0.00    +0.010 A 
ATOM     19  C   LIG    1       12.826  -1.241  -3.828  0.00  0.00    +0.001 A 
ATOM     20  C   LIG    1       13.799  -0.342  -4.308  0.00  0.00    +0.002 A 
ATOM     21  C   LIG    1       13.546   1.032  -4.355  0.00  0.00    +0.024 A 
ATOM     22  C   LIG    1       12.314   1.462  -3.909  0.00  0.00    +0.042 A 
ATOM     23  N   LIG    1       11.844   2.775  -3.873  0.00  0.00    -0.281 N 
ATOM     24  H   LIG    1       12.348   3.591  -4.185  0.00  0.00    +0.155 HD
ATOM     25  C   LIG    1       10.563   2.834  -3.350  0.00  0.00    +0.250 C 
ATOM     26  O   LIG    1        9.856   3.816  -3.198  0.00  0.00    -0.270 OA
ENDBRANCH   1  15
TORSDOF 2
