REMARK  Name = pdb/CHEMBL3582442.pdb
REMARK                            x       y       z     vdW  Elec       q    Type
REMARK                         _______ _______ _______ _____ _____    ______ ____
ROOT
ATOM      1  C   LIG    1        5.415   0.626  -6.565  0.00  0.00    +0.093 A 
ATOM      2  N   LIG    1        4.970   1.932  -6.737  0.00  0.00    -0.211 N 
ATOM      3  N   LIG    1        4.371   2.725  -5.790  0.00  0.00    -0.149 NA
ATOM      4  C   LIG    1        4.041   3.928  -6.195  0.00  0.00    +0.143 A 
ATOM      5  C   LIG    1        4.229   4.357  -7.626  0.00  0.00    +0.049 A 
ATOM      6  C   LIG    1        4.847   3.549  -8.481  0.00  0.00    +0.051 A 
ATOM      7  C   LIG    1        5.284   2.289  -8.038  0.00  0.00    +0.155 A 
ATOM      8  N   LIG    1        5.951   1.353  -8.669  0.00  0.00    -0.234 NA
ATOM      9  C   LIG    1        6.040   0.328  -7.769  0.00  0.00    +0.141 A 
ENDROOT
BRANCH   1  14
ATOM     10  C   LIG    1        6.005  -2.058  -3.980  0.00  0.00    +0.122 A 
ATOM     11  N   LIG    1        4.958  -1.903  -3.146  0.00  0.00    -0.240 NA
ATOM     12  C   LIG    1        4.082  -0.912  -3.413  0.00  0.00    +0.113 A 
ATOM     13  C   LIG    1        4.181  -0.056  -4.495  0.00  0.00    +0.030 A 
ATOM     14  C   LIG    1        5.254  -0.209  -5.368  0.00  0.00    +0.007 A 
ATOM     15  C   LIG    1        6.173  -1.231  -5.095  0.00  0.00    +0.053 A 
BRANCH  10  19
ATOM     16  C   LIG    1        8.725  -4.817  -2.257  0.00  0.00    +0.118 C 
ATOM     17  C   LIG    1        9.230  -3.530  -2.905  0.00  0.00    +0.050 C 
ATOM     18  C   LIG    1        8.126  -2.480  -3.033  0.00  0.00    +0.109 C 
ATOM     19  N   LIG    1        6.973  -3.067  -3.742  0.00  0.00    -0.315 N 
ATOM     20  C   LIG    1        6.398  -4.207  -3.007  0.00  0.00    +0.109 C 
ATOM     21  C   LIG    1        7.445  -5.319  -2.922  0.00  0.00    +0.050 C 
BRANCH  16  22
ATOM     22  O   LIG    1        8.499  -4.585  -0.867  0.00  0.00    -0.392 OA
ATOM     23  H   LIG    1        8.294  -5.443  -0.456  0.00  0.00    +0.210 HD
ENDBRANCH  16  22
ENDBRANCH  10  19
ENDBRANCH   1  14
BRANCH   4  24
ATOM     24  N   LIG    1        3.499   4.820  -5.281  0.00  0.00    -0.307 N 
ATOM     25  C   LIG    1        3.475   6.277  -5.468  0.00  0.00    +0.105 C 
ATOM     26  C   LIG    1        3.469   6.843  -4.044  0.00  0.00    +0.029 C 
ATOM     27  C   LIG    1        2.767   5.767  -3.234  0.00  0.00    +0.021 C 
ATOM     28  C   LIG    1        3.267   4.475  -3.876  0.00  0.00    +0.107 C 
BRANCH  25  29
ATOM     29  C   LIG    1        2.279   6.717  -6.298  0.00  0.00    -0.024 A 
ATOM     30  C   LIG    1        2.376   7.865  -7.100  0.00  0.00    +0.043 A 
ATOM     31  C   LIG    1        1.304   8.251  -7.902  0.00  0.00    +0.124 A 
ATOM     32  F   LIG    1        1.418   9.341  -8.672  0.00  0.00    -0.205 F 
ATOM     33  C   LIG    1        0.123   7.521  -7.925  0.00  0.00    +0.038 A 
ATOM     34  C   LIG    1        0.009   6.382  -7.133  0.00  0.00    +0.003 A 
ATOM     35  C   LIG    1        1.077   5.987  -6.325  0.00  0.00    +0.005 A 
ENDBRANCH  25  29
ENDBRANCH   4  24
TORSDOF 5
