REMARK  Name = pdb/CHEMBL3671415.pdb
REMARK                            x       y       z     vdW  Elec       q    Type
REMARK                         _______ _______ _______ _____ _____    ______ ____
ROOT
ATOM      1  C   LIG    1        3.683   5.676   0.119  0.00  0.00    +0.042 A 
ATOM      2  C   LIG    1        3.305   6.690   1.018  0.00  0.00    +0.038 A 
ATOM      3  C   LIG    1        1.989   6.742   1.495  0.00  0.00    +0.052 A 
ATOM      4  C   LIG    1        1.095   5.792   0.996  0.00  0.00    +0.134 A 
ATOM      5  N   LIG    1        1.417   4.832   0.099  0.00  0.00    -0.261 NA
ATOM      6  C   LIG    1        2.696   4.803  -0.325  0.00  0.00    +0.122 A 
ENDROOT
BRANCH   3   7
ATOM      7  N   LIG    1        1.622   7.735   2.437  0.00  0.00    -0.284 N 
ATOM      8  H   LIG    1        2.335   8.401   2.715  0.00  0.00    +0.155 HD
ATOM      9  C   LIG    1        0.411   7.751   3.124  0.00  0.00    +0.222 C 
ATOM     10  O   LIG    1       -0.402   6.832   3.120  0.00  0.00    -0.275 OA
BRANCH   9  11
ATOM     11  C   LIG    1        0.184   9.005   3.954  0.00  0.00    +0.131 C 
BRANCH  11  12
ATOM     12  C   LIG    1       -1.286   9.305   4.170  0.00  0.00    -0.038 A 
ATOM     13  C   LIG    1       -1.987  10.109   3.258  0.00  0.00    +0.007 A 
ATOM     14  C   LIG    1       -3.350  10.354   3.434  0.00  0.00    +0.038 A 
ATOM     15  C   LIG    1       -4.016   9.789   4.514  0.00  0.00    +0.123 A 
ATOM     16  F   LIG    1       -5.325  10.023   4.678  0.00  0.00    -0.205 F 
ATOM     17  C   LIG    1       -3.346   8.980   5.422  0.00  0.00    +0.038 A 
ATOM     18  C   LIG    1       -1.982   8.733   5.249  0.00  0.00    +0.007 A 
ENDBRANCH  11  12
ENDBRANCH   9  11
ENDBRANCH   3   7
BRANCH   1  19
ATOM     19  C   LIG    1        5.078   5.571  -0.381  0.00  0.00    +0.197 C 
ATOM     20  O   LIG    1        5.751   6.605  -0.451  0.00  0.00    -0.287 OA
BRANCH  19  28
ATOM     21  N   LIG    1        5.936   2.031  -0.979  0.00  0.00    -0.323 N 
ATOM     22  C   LIG    1        6.801   2.641  -1.869  0.00  0.00    +0.145 A 
ATOM     23  N   LIG    1        7.655   2.021  -2.702  0.00  0.00    -0.218 NA
ATOM     24  C   LIG    1        8.374   2.885  -3.441  0.00  0.00    +0.223 A 
ATOM     25  N   LIG    1        8.335   4.229  -3.416  0.00  0.00    -0.243 NA
ATOM     26  C   LIG    1        7.468   4.814  -2.561  0.00  0.00    +0.124 A 
ATOM     27  C   LIG    1        6.645   4.022  -1.753  0.00  0.00    +0.048 A 
ATOM     28  C   LIG    1        5.621   4.277  -0.797  0.00  0.00    +0.051 A 
ATOM     29  C   LIG    1        5.270   3.037  -0.282  0.00  0.00    +0.100 A 
BRANCH  21  30
ATOM     30  C   LIG    1        5.804   0.581  -0.675  0.00  0.00    +0.065 C 
ATOM     31  C   LIG    1        6.807   0.218   0.442  0.00  0.00    +0.036 C 
ATOM     32  C   LIG    1        4.375   0.261  -0.150  0.00  0.00    +0.036 C 
BRANCH  30  33
ATOM     33  C   LIG    1        6.027  -0.361  -1.902  0.00  0.00    +0.187 C 
BRANCH  33  35
ATOM     34  C   LIG    1        6.226  -2.656  -2.528  0.00  0.00    +0.194 C 
ATOM     35  O   LIG    1        5.973  -1.736  -1.476  0.00  0.00    -0.381 OA
ENDBRANCH  33  35
ENDBRANCH  30  33
ENDBRANCH  21  30
ENDBRANCH  19  28
ENDBRANCH   1  19
TORSDOF 8
