REMARK  Name = pdb/CHEMBL3671398.pdb
REMARK                            x       y       z     vdW  Elec       q    Type
REMARK                         _______ _______ _______ _____ _____    ______ ____
ROOT
ATOM      1  C   LIG    1        2.558  -5.129  -2.805  0.00  0.00    +0.042 A 
ATOM      2  C   LIG    1        2.598  -6.526  -2.920  0.00  0.00    +0.038 A 
ATOM      3  C   LIG    1        2.001  -7.158  -4.021  0.00  0.00    +0.052 A 
ATOM      4  C   LIG    1        1.390  -6.338  -4.969  0.00  0.00    +0.134 A 
ATOM      5  N   LIG    1        1.290  -4.990  -4.858  0.00  0.00    -0.261 NA
ATOM      6  C   LIG    1        1.849  -4.423  -3.768  0.00  0.00    +0.122 A 
ENDROOT
BRANCH   3   7
ATOM      7  N   LIG    1        2.062  -8.569  -4.100  0.00  0.00    -0.284 N 
ATOM      8  H   LIG    1        2.482  -9.049  -3.312  0.00  0.00    +0.155 HD
ATOM      9  C   LIG    1        1.552  -9.357  -5.121  0.00  0.00    +0.222 C 
ATOM     10  O   LIG    1        0.922  -8.946  -6.093  0.00  0.00    -0.275 OA
BRANCH   9  11
ATOM     11  C   LIG    1        1.824 -10.846  -4.949  0.00  0.00    +0.131 C 
BRANCH  11  12
ATOM     12  C   LIG    1        0.791 -11.578  -4.123  0.00  0.00    -0.039 A 
ATOM     13  C   LIG    1        1.172 -12.687  -3.350  0.00  0.00    +0.005 A 
ATOM     14  C   LIG    1        0.228 -13.379  -2.585  0.00  0.00    +0.019 A 
ATOM     15  C   LIG    1       -1.112 -12.986  -2.602  0.00  0.00    +0.052 A 
ATOM     16  C   LIG    1       -1.505 -11.899  -3.383  0.00  0.00    +0.019 A 
ATOM     17  C   LIG    1       -0.562 -11.208  -4.148  0.00  0.00    +0.005 A 
BRANCH  15  18
ATOM     18  C   LIG    1       -2.086 -13.706  -1.828  0.00  0.00    +0.099 C 
ATOM     19  N   LIG    1       -2.869 -14.286  -1.208  0.00  0.00    -0.191 NA
ENDBRANCH  15  18
ENDBRANCH  11  12
ENDBRANCH   9  11
ENDBRANCH   3   7
BRANCH   1  20
ATOM     20  C   LIG    1        3.225  -4.432  -1.671  0.00  0.00    +0.197 C 
ATOM     21  O   LIG    1        3.336  -5.025  -0.601  0.00  0.00    -0.287 OA
BRANCH  20  29
ATOM     22  N   LIG    1        4.484  -1.183  -2.851  0.00  0.00    -0.326 N 
ATOM     23  C   LIG    1        4.390  -0.919  -1.499  0.00  0.00    +0.147 A 
ATOM     24  N   LIG    1        4.698   0.244  -0.900  0.00  0.00    -0.197 NA
ATOM     25  C   LIG    1        4.505   0.228   0.422  0.00  0.00    +0.214 A 
ATOM     26  N   LIG    1        3.987  -0.780   1.138  0.00  0.00    -0.222 NA
ATOM     27  C   LIG    1        3.683  -1.938   0.505  0.00  0.00    +0.126 A 
ATOM     28  C   LIG    1        3.900  -2.055  -0.866  0.00  0.00    +0.048 A 
ATOM     29  C   LIG    1        3.728  -3.068  -1.855  0.00  0.00    +0.051 A 
ATOM     30  C   LIG    1        4.182  -2.515  -3.044  0.00  0.00    +0.100 A 
BRANCH  22  32
ATOM     31  C   LIG    1        6.205   0.387  -3.747  0.00  0.00    +0.034 C 
ATOM     32  C   LIG    1        4.789  -0.198  -3.914  0.00  0.00    +0.039 C 
ATOM     33  C   LIG    1        4.721  -0.833  -5.326  0.00  0.00    +0.034 C 
ATOM     34  C   LIG    1        3.755   0.949  -3.894  0.00  0.00    +0.034 C 
ENDBRANCH  22  32
BRANCH  25  35
ATOM     35  N   LIG    1        4.833   1.377   1.114  0.00  0.00    -0.327 N 
ATOM     36  H   LIG    1        4.808   2.171   0.491  0.00  0.00    +0.145 HD
ATOM     37  H   LIG    1        4.288   1.429   1.963  0.00  0.00    +0.145 HD
ENDBRANCH  25  35
ENDBRANCH  20  29
ENDBRANCH   1  20
TORSDOF 8
