REMARK  Name = pdb/CHEMBL3975345.pdb
REMARK                            x       y       z     vdW  Elec       q    Type
REMARK                         _______ _______ _______ _____ _____    ______ ____
ROOT
ATOM      1  C   LIG    1        5.233  -1.662   2.563  0.00  0.00    +0.105 A 
ATOM      2  C   LIG    1        4.335  -2.669   2.264  0.00  0.00    +0.145 A 
ATOM      3  N   LIG    1        4.585  -3.733   1.471  0.00  0.00    -0.201 NA
ATOM      4  C   LIG    1        5.828  -3.809   0.985  0.00  0.00    +0.323 A 
ATOM      5  N   LIG    1        6.807  -2.915   1.220  0.00  0.00    -0.201 NA
ATOM      6  C   LIG    1        6.486  -1.879   2.024  0.00  0.00    +0.145 A 
ENDROOT
BRANCH   1   8
ATOM      7  C   LIG    1        3.912   0.079   3.487  0.00  0.00    +0.285 C 
ATOM      8  N   LIG    1        5.014  -0.580   3.426  0.00  0.00    -0.196 NA
BRANCH   7   9
ATOM      9  N   LIG    1        2.720  -0.026   2.818  0.00  0.00    -0.268 N 
ATOM     10  H   LIG    1        2.650  -0.767   2.119  0.00  0.00    +0.157 HD
BRANCH   9  12
ATOM     11  C   LIG    1        0.258   0.244   2.589  0.00  0.00    +0.127 A 
ATOM     12  C   LIG    1        1.544   0.759   2.888  0.00  0.00    +0.062 A 
ATOM     13  C   LIG    1        1.579   2.081   3.370  0.00  0.00    +0.037 A 
ATOM     14  C   LIG    1        0.419   2.854   3.558  0.00  0.00    +0.057 A 
ATOM     15  C   LIG    1       -0.819   2.323   3.192  0.00  0.00    +0.014 A 
ATOM     16  C   LIG    1       -0.895   1.034   2.679  0.00  0.00    +0.031 A 
BRANCH  14  17
ATOM     17  C   LIG    1        0.541   4.233   4.160  0.00  0.00    +0.417 C 
ATOM     18  F   LIG    1        1.298   5.068   3.400  0.00  0.00    -0.166 F 
ATOM     19  F   LIG    1        1.124   4.208   5.390  0.00  0.00    -0.166 F 
ATOM     20  F   LIG    1       -0.658   4.855   4.330  0.00  0.00    -0.166 F 
ENDBRANCH  14  17
BRANCH  11  21
ATOM     21  S   LIG    1        0.015  -1.450   2.069  0.00  0.00    +0.062 S 
ATOM     22  O   LIG    1       -1.213  -1.510   1.280  0.00  0.00    -0.153 OA
ATOM     23  O   LIG    1        1.273  -1.885   1.513  0.00  0.00    -0.153 OA
BRANCH  21  25
ATOM     24  C   LIG    1        0.810  -2.189   4.555  0.00  0.00    +0.131 C 
ATOM     25  N   LIG    1       -0.246  -2.286   3.532  0.00  0.00    -0.183 NA
ATOM     26  C   LIG    1       -1.598  -2.214   4.111  0.00  0.00    +0.131 C 
ENDBRANCH  21  25
ENDBRANCH  11  21
ENDBRANCH   9  12
ENDBRANCH   7   9
BRANCH   7  27
ATOM     27  O   LIG    1        3.948   1.026   4.440  0.00  0.00    -0.481 OA
ATOM     28  H   LIG    1        4.835   0.992   4.836  0.00  0.00    +0.295 HD
ENDBRANCH   7  27
ENDBRANCH   1   8
BRANCH   4  29
ATOM     29  O   LIG    1        6.092  -4.919   0.198  0.00  0.00    -0.424 OA
BRANCH  29  30
ATOM     30  C   LIG    1        7.354  -5.459   0.271  0.00  0.00    +0.132 A 
ATOM     31  C   LIG    1        8.115  -5.485   1.436  0.00  0.00    +0.047 A 
ATOM     32  C   LIG    1        9.383  -6.065   1.432  0.00  0.00    +0.012 A 
ATOM     33  C   LIG    1        9.907  -6.711   0.295  0.00  0.00    -0.014 A 
ATOM     34  C   LIG    1        9.100  -6.701  -0.858  0.00  0.00    +0.012 A 
ATOM     35  C   LIG    1        7.847  -6.071  -0.877  0.00  0.00    +0.047 A 
BRANCH  33  36
ATOM     36  C   LIG    1       11.235  -7.385   0.365  0.00  0.00    +0.022 A 
ATOM     37  C   LIG    1       12.143  -7.510  -0.702  0.00  0.00    +0.124 A 
ATOM     38  N   LIG    1       13.351  -8.109  -0.591  0.00  0.00    -0.240 NA
ATOM     39  C   LIG    1       13.723  -8.582   0.617  0.00  0.00    +0.125 A 
ATOM     40  C   LIG    1       12.932  -8.509   1.743  0.00  0.00    +0.074 A 
ATOM     41  C   LIG    1       11.669  -7.932   1.593  0.00  0.00    +0.025 A 
BRANCH  40  42
ATOM     42  C   LIG    1       13.439  -9.006   3.059  0.00  0.00    +0.419 C 
ATOM     43  F   LIG    1       14.577  -8.367   3.449  0.00  0.00    -0.166 F 
ATOM     44  F   LIG    1       13.742 -10.332   3.042  0.00  0.00    -0.166 F 
ATOM     45  F   LIG    1       12.553  -8.838   4.080  0.00  0.00    -0.166 F 
ENDBRANCH  40  42
BRANCH  37  46
ATOM     46  N   LIG    1       11.891  -7.023  -1.983  0.00  0.00    -0.343 N 
ATOM     47  H   LIG    1       11.657  -6.037  -1.957  0.00  0.00    +0.144 HD
ATOM     48  H   LIG    1       12.729  -7.201  -2.531  0.00  0.00    +0.144 HD
ENDBRANCH  37  46
ENDBRANCH  33  36
ENDBRANCH  29  30
ENDBRANCH   4  29
TORSDOF 12
