REMARK  Name = pdb/CHEMBL3676015.pdb
REMARK                            x       y       z     vdW  Elec       q    Type
REMARK                         _______ _______ _______ _____ _____    ______ ____
ROOT
ATOM      1  C   LIG    1        1.140   0.369   1.536  0.00  0.00    +0.126 A 
ATOM      2  N   LIG    1        2.437   0.526   1.403  0.00  0.00    -0.212 NA
ATOM      3  C   LIG    1        2.874   1.699   0.830  0.00  0.00    +0.170 A 
ATOM      4  C   LIG    1        4.134   2.145   0.466  0.00  0.00    +0.100 A 
ATOM      5  C   LIG    1        3.911   3.390  -0.153  0.00  0.00    +0.150 A 
ATOM      6  N   LIG    1        2.629   3.754  -0.146  0.00  0.00    -0.173 NA
ATOM      7  N   LIG    1        1.993   2.713   0.441  0.00  0.00    -0.221 N 
ATOM      8  C   LIG    1        0.634   2.581   0.659  0.00  0.00    +0.118 A 
ATOM      9  C   LIG    1        0.151   1.455   1.191  0.00  0.00    +0.063 A 
ENDROOT
BRANCH   1  11
ATOM     10  C   LIG    1        0.895  -1.442   3.262  0.00  0.00    +0.110 C 
ATOM     11  N   LIG    1        0.602  -0.845   1.938  0.00  0.00    -0.308 N 
ATOM     12  C   LIG    1        0.575  -1.916   0.925  0.00  0.00    +0.107 C 
ATOM     13  C   LIG    1        0.689  -3.231   1.684  0.00  0.00    +0.021 C 
ATOM     14  C   LIG    1        0.341  -2.867   3.114  0.00  0.00    +0.029 C 
BRANCH  10  16
ATOM     15  C   LIG    1        0.645  -0.831   5.728  0.00  0.00    +0.220 A 
ATOM     16  C   LIG    1        0.208  -0.722   4.404  0.00  0.00    +0.037 A 
ATOM     17  C   LIG    1       -0.956   0.037   4.198  0.00  0.00    +0.050 A 
ATOM     18  C   LIG    1       -1.563   0.698   5.253  0.00  0.00    +0.142 A 
ATOM     19  F   LIG    1       -2.669   1.422   5.051  0.00  0.00    -0.204 F 
ATOM     20  C   LIG    1       -1.012   0.584   6.508  0.00  0.00    +0.153 A 
ATOM     21  N   LIG    1        0.076  -0.170   6.768  0.00  0.00    -0.218 NA
BRANCH  15  23
ATOM     22  C   LIG    1        1.939  -1.825   7.412  0.00  0.00    +0.279 C 
ATOM     23  O   LIG    1        1.662  -1.721   6.012  0.00  0.00    -0.479 OA
ENDBRANCH  15  23
ENDBRANCH  10  16
ENDBRANCH   1  11
BRANCH   4  24
ATOM     24  C   LIG    1        5.408   1.502   0.675  0.00  0.00    +0.249 C 
ATOM     25  N   LIG    1        5.475   0.756   1.825  0.00  0.00    -0.311 N 
ATOM     26  H   LIG    1        4.603   0.595   2.325  0.00  0.00    +0.149 HD
ATOM     27  O   LIG    1        6.362   1.684  -0.079  0.00  0.00    -0.270 OA
BRANCH  25  28
ATOM     28  C   LIG    1        6.680   0.073   2.227  0.00  0.00    +0.106 C 
BRANCH  28  29
ATOM     29  C   LIG    1        6.741  -0.094   3.743  0.00  0.00    +0.037 C 
BRANCH  29  30
ATOM     30  C   LIG    1        8.028  -0.781   4.174  0.00  0.00    +0.109 C 
BRANCH  30  31
ATOM     31  N   LIG    1        8.125  -2.093   3.586  0.00  0.00    -0.281 N 
ATOM     32  H   LIG    1        7.309  -2.690   3.537  0.00  0.00    +0.152 HD
ATOM     33  C   LIG    1        9.283  -2.767   3.287  0.00  0.00    +0.401 C 
ATOM     34  O   LIG    1        9.259  -3.910   2.888  0.00  0.00    -0.226 OA
BRANCH  33  35
ATOM     35  O   LIG    1       10.391  -2.030   3.580  0.00  0.00    -0.445 OA
BRANCH  35  36
ATOM     36  C   LIG    1       11.645  -2.718   3.805  0.00  0.00    +0.107 C 
ATOM     37  C   LIG    1       11.450  -3.812   4.861  0.00  0.00    +0.055 C 
ATOM     38  C   LIG    1       12.591  -1.657   4.397  0.00  0.00    +0.055 C 
ATOM     39  C   LIG    1       12.250  -3.264   2.509  0.00  0.00    +0.055 C 
ENDBRANCH  35  36
ENDBRANCH  33  35
ENDBRANCH  30  31
ENDBRANCH  29  30
ENDBRANCH  28  29
ENDBRANCH  25  28
ENDBRANCH   4  24
TORSDOF 10
