REMARK  Name = pdb/CHEMBL211883.pdb
REMARK                            x       y       z     vdW  Elec       q    Type
REMARK                         _______ _______ _______ _____ _____    ______ ____
ROOT
ATOM      1  C   LIG    1        4.817   0.698  -2.883  0.00  0.00    +0.106 A 
ATOM      2  C   LIG    1        5.381  -0.574  -3.016  0.00  0.00    +0.098 A 
ATOM      3  C   LIG    1        6.473  -0.493  -3.968  0.00  0.00    +0.121 A 
ATOM      4  N   LIG    1        6.781   0.708  -4.440  0.00  0.00    -0.202 NA
ATOM      5  S   LIG    1        5.718   1.798  -3.825  0.00  0.00    +0.029 S 
ENDROOT
BRANCH   1  10
ATOM      6  C   LIG    1        1.499   3.837  -1.169  0.00  0.00    +0.129 C 
ATOM      7  N   LIG    1        2.074   2.518  -1.334  0.00  0.00    -0.302 N 
ATOM      8  H   LIG    1        1.964   1.876  -0.563  0.00  0.00    +0.150 HD
ATOM      9  C   LIG    1        3.239   2.410  -2.072  0.00  0.00    +0.304 C 
ATOM     10  N   LIG    1        3.695   1.107  -2.156  0.00  0.00    -0.262 N 
ATOM     11  H   LIG    1        3.184   0.387  -1.658  0.00  0.00    +0.157 HD
ATOM     12  O   LIG    1        3.739   3.398  -2.595  0.00  0.00    -0.253 OA
ENDBRANCH   1  10
BRANCH   2  13
ATOM     13  C   LIG    1        4.894  -1.731  -2.288  0.00  0.00    +0.246 C 
ATOM     14  N   LIG    1        5.094  -2.955  -2.847  0.00  0.00    -0.325 N 
ATOM     15  H   LIG    1        4.853  -3.774  -2.304  0.00  0.00    +0.145 HD
ATOM     16  H   LIG    1        5.686  -3.085  -3.658  0.00  0.00    +0.145 HD
ATOM     17  O   LIG    1        4.288  -1.635  -1.213  0.00  0.00    -0.270 OA
ENDBRANCH   2  13
BRANCH   3  18
ATOM     18  S   LIG    1        7.451  -1.842  -4.566  0.00  0.00    -0.096 S 
BRANCH  18  19
ATOM     19  C   LIG    1        7.163  -1.681  -6.376  0.00  0.00    +0.083 C 
ATOM     20  C   LIG    1        7.795  -2.810  -7.158  0.00  0.00    -0.031 A 
ATOM     21  C   LIG    1        9.135  -3.171  -7.227  0.00  0.00    +0.006 A 
ATOM     22  C   LIG    1        9.491  -4.313  -7.956  0.00  0.00    +0.020 A 
ATOM     23  C   LIG    1        8.518  -5.043  -8.650  0.00  0.00    +0.041 A 
ATOM     24 CL   LIG    1        8.970  -6.466  -9.507  0.00  0.00    -0.084 Cl
ATOM     25  C   LIG    1        7.191  -4.616  -8.673  0.00  0.00    +0.024 A 
ATOM     26  C   LIG    1        6.849  -3.493  -7.929  0.00  0.00    -0.042 A 
ATOM     27  C   LIG    1        5.533  -2.791  -7.915  0.00  0.00    +0.037 C 
ATOM     28  C   LIG    1        5.659  -1.878  -6.691  0.00  0.00    +0.024 C 
ENDBRANCH  18  19
ENDBRANCH   3  18
TORSDOF 4
