REMARK  Name = pdb/CHEMBL3661461.pdb
REMARK                            x       y       z     vdW  Elec       q    Type
REMARK                         _______ _______ _______ _____ _____    ______ ____
ROOT
ATOM      1  C   LIG    1        1.826   5.211  -0.640  0.00  0.00    +0.042 A 
ATOM      2  C   LIG    1        1.480   6.528  -0.944  0.00  0.00    +0.038 A 
ATOM      3  C   LIG    1        0.666   6.803  -2.050  0.00  0.00    +0.052 A 
ATOM      4  C   LIG    1        0.262   5.735  -2.841  0.00  0.00    +0.134 A 
ATOM      5  N   LIG    1        0.623   4.449  -2.599  0.00  0.00    -0.261 NA
ATOM      6  C   LIG    1        1.404   4.218  -1.513  0.00  0.00    +0.122 A 
ENDROOT
BRANCH   3   7
ATOM      7  N   LIG    1        0.330   8.150  -2.256  0.00  0.00    -0.284 N 
ATOM      8  H   LIG    1        0.717   8.791  -1.579  0.00  0.00    +0.155 HD
ATOM      9  C   LIG    1       -0.394   8.702  -3.294  0.00  0.00    +0.222 C 
ATOM     10  O   LIG    1       -0.917   8.063  -4.204  0.00  0.00    -0.275 OA
BRANCH   9  11
ATOM     11  C   LIG    1       -0.584  10.217  -3.201  0.00  0.00    +0.131 C 
BRANCH  11  12
ATOM     12  C   LIG    1        0.542  10.963  -2.513  0.00  0.00    -0.038 A 
ATOM     13  C   LIG    1        0.535  11.141  -1.119  0.00  0.00    +0.016 A 
ATOM     14  C   LIG    1        1.623  11.736  -0.458  0.00  0.00    +0.055 A 
ATOM     15  C   LIG    1        2.712  12.182  -1.219  0.00  0.00    +0.012 A 
ATOM     16  C   LIG    1        2.721  12.022  -2.605  0.00  0.00    +0.001 A 
ATOM     17  C   LIG    1        1.648  11.406  -3.248  0.00  0.00    +0.004 A 
BRANCH  14  18
ATOM     18  C   LIG    1        1.611  11.865   1.046  0.00  0.00    +0.417 C 
ATOM     19  F   LIG    1        1.511  10.651   1.659  0.00  0.00    -0.166 F 
ATOM     20  F   LIG    1        0.555  12.595   1.496  0.00  0.00    -0.166 F 
ATOM     21  F   LIG    1        2.726  12.453   1.557  0.00  0.00    -0.166 F 
ENDBRANCH  14  18
ENDBRANCH  11  12
ENDBRANCH   9  11
ENDBRANCH   3   7
BRANCH   1  22
ATOM     22  C   LIG    1        2.667   4.858   0.526  0.00  0.00    +0.197 C 
ATOM     23  O   LIG    1        3.446   3.912   0.410  0.00  0.00    -0.287 OA
BRANCH  22  31
ATOM     24  N   LIG    1        1.783   6.787   3.534  0.00  0.00    -0.329 N 
ATOM     25  C   LIG    1        3.090   6.485   3.826  0.00  0.00    +0.145 A 
ATOM     26  N   LIG    1        3.752   6.832   4.943  0.00  0.00    -0.218 NA
ATOM     27  C   LIG    1        5.023   6.402   4.938  0.00  0.00    +0.223 A 
ATOM     28  N   LIG    1        5.644   5.678   3.990  0.00  0.00    -0.243 NA
ATOM     29  C   LIG    1        4.929   5.329   2.895  0.00  0.00    +0.124 A 
ATOM     30  C   LIG    1        3.603   5.748   2.766  0.00  0.00    +0.048 A 
ATOM     31  C   LIG    1        2.574   5.615   1.777  0.00  0.00    +0.051 A 
ATOM     32  C   LIG    1        1.474   6.299   2.278  0.00  0.00    +0.100 A 
BRANCH  24  34
ATOM     33  C   LIG    1        0.116   6.447   5.325  0.00  0.00    +0.030 C 
ATOM     34  C   LIG    1        0.811   7.452   4.404  0.00  0.00    +0.083 C 
ATOM     35  C   LIG    1        1.366   8.640   5.193  0.00  0.00    +0.030 C 
ENDBRANCH  24  34
ENDBRANCH  22  31
ENDBRANCH   1  22
TORSDOF 7
