REMARK  Name = pdb/CHEMBL3937886.pdb
REMARK                            x       y       z     vdW  Elec       q    Type
REMARK                         _______ _______ _______ _____ _____    ______ ____
ROOT
ATOM      1  C   LIG    1        3.528  -1.170   0.980  0.00  0.00    +0.149 A 
ATOM      2  N   LIG    1        3.228  -2.108   1.894  0.00  0.00    -0.160 NA
ATOM      3  N   LIG    1        4.031  -1.828   2.966  0.00  0.00    -0.218 N 
ATOM      4  C   LIG    1        4.697  -0.597   2.795  0.00  0.00    +0.129 A 
ATOM      5  C   LIG    1        4.415  -0.207   1.505  0.00  0.00    +0.078 A 
ENDROOT
BRANCH   3   6
ATOM      6  C   LIG    1        4.050  -2.730   4.078  0.00  0.00    +0.067 A 
ATOM      7  C   LIG    1        5.141  -2.797   4.948  0.00  0.00    +0.028 A 
ATOM      8  C   LIG    1        5.144  -3.687   6.030  0.00  0.00    +0.002 A 
ATOM      9  C   LIG    1        4.059  -4.529   6.249  0.00  0.00    +0.000 A 
ATOM     10  C   LIG    1        2.973  -4.489   5.379  0.00  0.00    +0.002 A 
ATOM     11  C   LIG    1        2.972  -3.607   4.290  0.00  0.00    +0.028 A 
ENDBRANCH   3   6
BRANCH   4  12
ATOM     12  N   LIG    1        5.422   0.138   3.739  0.00  0.00    -0.266 N 
ATOM     13  H   LIG    1        5.472  -0.227   4.685  0.00  0.00    +0.157 HD
ATOM     14  C   LIG    1        6.043   1.429   3.483  0.00  0.00    +0.251 C 
ATOM     15  O   LIG    1        5.973   1.959   2.396  0.00  0.00    -0.270 OA
BRANCH  14  16
ATOM     16  C   LIG    1        6.713   2.105   4.635  0.00  0.00    +0.056 A 
ATOM     17  C   LIG    1        7.310   1.441   5.701  0.00  0.00    +0.054 A 
ATOM     18 CL   LIG    1        7.495  -0.265   5.788  0.00  0.00    -0.083 Cl
ATOM     19  C   LIG    1        7.838   2.160   6.772  0.00  0.00    +0.041 A 
ATOM     20  C   LIG    1        7.822   3.559   6.779  0.00  0.00    +0.052 A 
ATOM     21 CL   LIG    1        8.401   4.275   8.245  0.00  0.00    -0.083 Cl
ATOM     22  C   LIG    1        7.321   4.284   5.680  0.00  0.00    +0.019 A 
ATOM     23  C   LIG    1        6.754   3.518   4.623  0.00  0.00    +0.026 A 
BRANCH  22  24
ATOM     24  C   LIG    1        7.339   5.764   5.557  0.00  0.00    +0.072 A 
ATOM     25  N   LIG    1        6.319   6.293   4.833  0.00  0.00    -0.255 NA
ATOM     26  C   LIG    1        6.297   7.636   4.647  0.00  0.00    +0.111 A 
ATOM     27  C   LIG    1        7.244   8.502   5.163  0.00  0.00    +0.020 A 
ATOM     28  C   LIG    1        8.284   7.959   5.897  0.00  0.00    +0.004 A 
ATOM     29  C   LIG    1        8.347   6.579   6.074  0.00  0.00    +0.028 A 
ENDBRANCH  22  24
ENDBRANCH  14  16
ENDBRANCH   4  12
BRANCH   1  30
ATOM     30  C   LIG    1        2.897  -1.164  -0.339  0.00  0.00    +0.236 C 
ATOM     31  N   LIG    1        3.419  -0.519  -1.320  0.00  0.00    -0.249 NA
BRANCH  30  32
ATOM     32  O   LIG    1        1.741  -1.862  -0.421  0.00  0.00    -0.491 OA
ATOM     33  H   LIG    1        1.572  -2.307   0.430  0.00  0.00    +0.294 HD
ENDBRANCH  30  32
BRANCH  31  34
ATOM     34  C   LIG    1        2.702  -0.589  -2.599  0.00  0.00    +0.151 C 
BRANCH  34  35
ATOM     35  C   LIG    1        3.698  -0.533  -3.757  0.00  0.00    +0.038 C 
ATOM     36  C   LIG    1        4.536   0.731  -3.794  0.00  0.00    +0.165 C 
ATOM     37  O   LIG    1        4.847   0.952  -5.174  0.00  0.00    -0.379 OA
ATOM     38  C   LIG    1        3.722   0.509  -5.935  0.00  0.00    +0.160 C 
ATOM     39  C   LIG    1        3.026  -0.566  -5.123  0.00  0.00    +0.035 C 
ENDBRANCH  34  35
ENDBRANCH  31  34
ENDBRANCH   1  30
TORSDOF 8
