REMARK  Name = pdb/CHEMBL3676022.pdb
REMARK                            x       y       z     vdW  Elec       q    Type
REMARK                         _______ _______ _______ _____ _____    ______ ____
ROOT
ATOM      1  C   LIG    1        6.235  -0.397  -1.581  0.00  0.00    +0.126 A 
ATOM      2  N   LIG    1        6.901  -1.421  -2.073  0.00  0.00    -0.212 NA
ATOM      3  C   LIG    1        8.256  -1.285  -2.278  0.00  0.00    +0.170 A 
ATOM      4  C   LIG    1        9.219  -2.129  -2.775  0.00  0.00    +0.100 A 
ATOM      5  C   LIG    1       10.437  -1.443  -2.549  0.00  0.00    +0.150 A 
ATOM      6  N   LIG    1       10.262  -0.211  -2.067  0.00  0.00    -0.173 NA
ATOM      7  N   LIG    1        8.922  -0.098  -1.942  0.00  0.00    -0.221 N 
ATOM      8  C   LIG    1        8.222   1.018  -1.525  0.00  0.00    +0.118 A 
ATOM      9  C   LIG    1        6.897   0.950  -1.350  0.00  0.00    +0.063 A 
ENDROOT
BRANCH   1  11
ATOM     10  C   LIG    1        4.187  -1.862  -1.448  0.00  0.00    +0.110 C 
ATOM     11  N   LIG    1        4.892  -0.562  -1.246  0.00  0.00    -0.308 N 
ATOM     12  C   LIG    1        3.928   0.543  -1.313  0.00  0.00    +0.107 C 
ATOM     13  C   LIG    1        2.738  -0.056  -2.043  0.00  0.00    +0.021 C 
ATOM     14  C   LIG    1        2.700  -1.465  -1.481  0.00  0.00    +0.029 C 
BRANCH  10  16
ATOM     15  C   LIG    1        4.331  -4.280  -0.638  0.00  0.00    +0.220 A 
ATOM     16  C   LIG    1        4.451  -2.905  -0.378  0.00  0.00    +0.037 A 
ATOM     17  C   LIG    1        4.779  -2.548   0.941  0.00  0.00    +0.050 A 
ATOM     18  C   LIG    1        5.032  -3.534   1.887  0.00  0.00    +0.142 A 
ATOM     19  F   LIG    1        5.376  -3.204   3.138  0.00  0.00    -0.204 F 
ATOM     20  C   LIG    1        4.923  -4.859   1.520  0.00  0.00    +0.153 A 
ATOM     21  N   LIG    1        4.563  -5.252   0.281  0.00  0.00    -0.218 NA
BRANCH  15  23
ATOM     22  C   LIG    1        3.817  -6.105  -2.018  0.00  0.00    +0.279 C 
ATOM     23  O   LIG    1        3.913  -4.681  -1.894  0.00  0.00    -0.479 OA
ENDBRANCH  15  23
ENDBRANCH  10  16
ENDBRANCH   1  11
BRANCH   4  24
ATOM     24  C   LIG    1        9.137  -3.458  -3.387  0.00  0.00    +0.249 C 
ATOM     25  N   LIG    1        7.864  -3.951  -3.611  0.00  0.00    -0.311 N 
ATOM     26  H   LIG    1        7.095  -3.457  -3.185  0.00  0.00    +0.149 HD
ATOM     27  O   LIG    1       10.140  -4.068  -3.706  0.00  0.00    -0.270 OA
BRANCH  25  28
ATOM     28  C   LIG    1        7.675  -5.297  -4.150  0.00  0.00    +0.104 C 
BRANCH  28  29
ATOM     29  C   LIG    1        6.331  -5.423  -4.875  0.00  0.00    +0.021 C 
BRANCH  29  30
ATOM     30  C   LIG    1        6.093  -6.828  -5.438  0.00  0.00    +0.029 C 
BRANCH  30  31
ATOM     31  C   LIG    1        4.748  -6.940  -6.151  0.00  0.00    +0.156 C 
BRANCH  31  32
ATOM     32  O   LIG    1        4.588  -8.270  -6.629  0.00  0.00    -0.395 OA
ATOM     33  H   LIG    1        3.676  -8.353  -6.958  0.00  0.00    +0.209 HD
ENDBRANCH  31  32
ENDBRANCH  30  31
ENDBRANCH  29  30
ENDBRANCH  28  29
ENDBRANCH  25  28
ENDBRANCH   4  24
TORSDOF 9
