REMARK  Name = pdb/CHEMBL3959200.pdb
REMARK                            x       y       z     vdW  Elec       q    Type
REMARK                         _______ _______ _______ _____ _____    ______ ____
ROOT
ATOM      1  C   LIG    1        4.477  -2.387  -2.989  0.00  0.00    +0.133 A 
ATOM      2  C   LIG    1        4.197  -3.734  -3.074  0.00  0.00    +0.183 A 
ATOM      3  N   LIG    1        4.288  -4.608  -4.111  0.00  0.00    -0.211 NA
ATOM      4  C   LIG    1        3.865  -5.845  -3.928  0.00  0.00    +0.126 A 
ATOM      5  C   LIG    1        3.274  -6.283  -2.611  0.00  0.00    +0.063 A 
ATOM      6  C   LIG    1        3.194  -5.382  -1.631  0.00  0.00    +0.118 A 
ATOM      7  N   LIG    1        3.642  -4.078  -1.840  0.00  0.00    -0.220 N 
ATOM      8  N   LIG    1        3.641  -3.043  -0.964  0.00  0.00    -0.171 NA
ATOM      9  C   LIG    1        4.170  -2.028  -1.657  0.00  0.00    +0.165 A 
ENDROOT
BRANCH   4  10
ATOM     10  N   LIG    1        3.955  -6.708  -5.010  0.00  0.00    -0.308 N 
ATOM     11  C   LIG    1        5.068  -7.683  -5.046  0.00  0.00    +0.108 C 
ATOM     12  C   LIG    1        4.336  -9.020  -4.861  0.00  0.00    +0.029 C 
ATOM     13  C   LIG    1        3.018  -8.845  -5.604  0.00  0.00    +0.021 C 
ATOM     14  C   LIG    1        2.724  -7.356  -5.500  0.00  0.00    +0.107 C 
BRANCH  11  15
ATOM     15  C   LIG    1        5.916  -7.526  -6.308  0.00  0.00    +0.011 A 
ATOM     16  C   LIG    1        5.642  -8.165  -7.528  0.00  0.00    +0.129 A 
ATOM     17  F   LIG    1        4.681  -9.078  -7.651  0.00  0.00    -0.205 F 
ATOM     18  C   LIG    1        6.381  -7.953  -8.688  0.00  0.00    +0.041 A 
ATOM     19  C   LIG    1        7.485  -7.124  -8.656  0.00  0.00    +0.041 A 
ATOM     20  C   LIG    1        7.824  -6.515  -7.454  0.00  0.00    +0.124 A 
ATOM     21  F   LIG    1        8.918  -5.743  -7.412  0.00  0.00    -0.205 F 
ATOM     22  C   LIG    1        7.055  -6.695  -6.294  0.00  0.00    +0.046 A 
ENDBRANCH  11  15
ENDBRANCH   4  10
BRANCH   1  24
ATOM     23  C   LIG    1        4.713  -1.695  -5.179  0.00  0.00    +0.285 C 
ATOM     24  N   LIG    1        5.056  -1.541  -3.928  0.00  0.00    -0.194 NA
BRANCH  23  25
ATOM     25  N   LIG    1        3.857  -2.547  -5.807  0.00  0.00    -0.269 N 
ATOM     26  H   LIG    1        3.634  -3.388  -5.259  0.00  0.00    +0.157 HD
BRANCH  25  30
ATOM     27  C   LIG    1        2.888  -3.082  -9.887  0.00  0.00    +0.120 A 
ATOM     28  C   LIG    1        4.116  -2.527  -9.533  0.00  0.00    +0.047 A 
ATOM     29  C   LIG    1        4.467  -2.386  -8.187  0.00  0.00    +0.027 A 
ATOM     30  C   LIG    1        3.604  -2.771  -7.172  0.00  0.00    +0.035 A 
ATOM     31  C   LIG    1        2.375  -3.344  -7.535  0.00  0.00    +0.027 A 
ATOM     32  C   LIG    1        2.017  -3.494  -8.881  0.00  0.00    +0.047 A 
BRANCH  27  34
ATOM     33  C   LIG    1        3.339  -2.860 -12.201  0.00  0.00    +0.277 C 
ATOM     34  O   LIG    1        2.448  -3.272 -11.169  0.00  0.00    -0.495 OA
ENDBRANCH  27  34
ENDBRANCH  25  30
ENDBRANCH  23  25
BRANCH  23  35
ATOM     35  O   LIG    1        5.306  -0.786  -5.973  0.00  0.00    -0.481 OA
ATOM     36  H   LIG    1        5.879  -0.261  -5.409  0.00  0.00    +0.295 HD
ENDBRANCH  23  35
ENDBRANCH   1  24
TORSDOF 7
