REMARK  Name = pdb/CHEMBL3924506.pdb
REMARK                            x       y       z     vdW  Elec       q    Type
REMARK                         _______ _______ _______ _____ _____    ______ ____
ROOT
ATOM      1  C   LIG    1        4.646  -3.543  -1.994  0.00  0.00    +0.105 A 
ATOM      2  C   LIG    1        4.371  -3.954  -3.261  0.00  0.00    +0.145 A 
ATOM      3  N   LIG    1        5.312  -4.242  -4.154  0.00  0.00    -0.201 NA
ATOM      4  C   LIG    1        6.606  -4.175  -3.799  0.00  0.00    +0.323 A 
ATOM      5  N   LIG    1        7.013  -3.828  -2.576  0.00  0.00    -0.201 NA
ATOM      6  C   LIG    1        6.011  -3.499  -1.713  0.00  0.00    +0.145 A 
ENDROOT
BRANCH   1   8
ATOM      7  C   LIG    1        2.447  -3.393  -1.010  0.00  0.00    +0.285 C 
ATOM      8  N   LIG    1        3.702  -3.073  -1.076  0.00  0.00    -0.196 NA
BRANCH   7   9
ATOM      9  N   LIG    1        1.625  -4.199  -1.751  0.00  0.00    -0.267 N 
ATOM     10  H   LIG    1        2.126  -4.725  -2.450  0.00  0.00    +0.157 HD
BRANCH   9  12
ATOM     11  C   LIG    1       -0.695  -4.534  -0.644  0.00  0.00    +0.092 A 
ATOM     12  C   LIG    1        0.403  -4.876  -1.468  0.00  0.00    +0.061 A 
ATOM     13  C   LIG    1        0.298  -6.126  -2.146  0.00  0.00    +0.039 A 
ATOM     14  C   LIG    1       -0.753  -7.021  -1.946  0.00  0.00    +0.075 A 
ATOM     15  C   LIG    1       -1.686  -6.660  -1.009  0.00  0.00    +0.124 A 
ATOM     16  N   LIG    1       -1.679  -5.462  -0.381  0.00  0.00    -0.253 NA
BRANCH  11  20
ATOM     17  C   LIG    1       -0.899   0.518  -0.840  0.00  0.00    +0.044 C 
ATOM     18  C   LIG    1       -1.019  -0.750  -0.055  0.00  0.00    -0.050 A 
ATOM     19  C   LIG    1       -0.731  -1.986  -0.671  0.00  0.00    +0.013 A 
ATOM     20  C   LIG    1       -1.046  -3.202  -0.058  0.00  0.00    +0.002 A 
ATOM     21  C   LIG    1       -1.863  -3.086   1.088  0.00  0.00    +0.010 A 
ATOM     22  C   LIG    1       -1.980  -1.892   1.810  0.00  0.00    +0.001 A 
ATOM     23  C   LIG    1       -1.528  -0.715   1.244  0.00  0.00    +0.003 A 
ENDBRANCH  11  20
BRANCH  14  24
ATOM     24  C   LIG    1       -0.841  -8.292  -2.733  0.00  0.00    +0.419 C 
ATOM     25  F   LIG    1        0.262  -9.075  -2.577  0.00  0.00    -0.166 F 
ATOM     26  F   LIG    1       -0.936  -8.056  -4.072  0.00  0.00    -0.166 F 
ATOM     27  F   LIG    1       -1.907  -9.073  -2.414  0.00  0.00    -0.166 F 
ENDBRANCH  14  24
ENDBRANCH   9  12
ENDBRANCH   7   9
BRANCH   7  28
ATOM     28  O   LIG    1        1.874  -2.780   0.012  0.00  0.00    -0.481 OA
ATOM     29  H   LIG    1        2.547  -2.177   0.363  0.00  0.00    +0.295 HD
ENDBRANCH   7  28
ENDBRANCH   1   8
BRANCH   4  30
ATOM     30  O   LIG    1        7.580  -4.403  -4.783  0.00  0.00    -0.424 OA
BRANCH  30  31
ATOM     31  C   LIG    1        7.121  -4.834  -6.017  0.00  0.00    +0.132 A 
ATOM     32  C   LIG    1        7.765  -4.422  -7.183  0.00  0.00    +0.047 A 
ATOM     33  C   LIG    1        7.262  -4.820  -8.433  0.00  0.00    +0.012 A 
ATOM     34  C   LIG    1        6.065  -5.543  -8.532  0.00  0.00    -0.010 A 
ATOM     35  C   LIG    1        5.436  -5.934  -7.349  0.00  0.00    +0.012 A 
ATOM     36  C   LIG    1        6.023  -5.685  -6.130  0.00  0.00    +0.047 A 
BRANCH  34  37
ATOM     37  C   LIG    1        5.497  -5.923  -9.823  0.00  0.00    +0.041 A 
ATOM     38  S   LIG    1        4.033  -6.792  -9.880  0.00  0.00    -0.052 S 
ATOM     39  C   LIG    1        4.123  -6.911 -11.561  0.00  0.00    +0.168 A 
ATOM     40  N   LIG    1        5.121  -6.264 -12.121  0.00  0.00    -0.232 NA
ATOM     41  C   LIG    1        5.922  -5.724 -11.122  0.00  0.00    +0.129 A 
BRANCH  39  42
ATOM     42  N   LIG    1        3.171  -7.642 -12.231  0.00  0.00    -0.250 N 
ATOM     43  C   LIG    1        2.314  -8.552 -11.579  0.00  0.00    +0.221 C 
ATOM     44  O   LIG    1        2.177  -8.819 -10.409  0.00  0.00    -0.275 OA
ATOM     45  C   LIG    1        1.559  -9.310 -12.677  0.00  0.00    +0.098 C 
ATOM     46  C   LIG    1        1.781  -8.457 -13.890  0.00  0.00    +0.029 C 
ATOM     47  C   LIG    1        3.135  -7.818 -13.655  0.00  0.00    +0.116 C 
ENDBRANCH  39  42
ENDBRANCH  34  37
ENDBRANCH  30  31
ENDBRANCH   4  30
TORSDOF 10
