REMARK  Name = pdb/CHEMBL3675933.pdb
REMARK                            x       y       z     vdW  Elec       q    Type
REMARK                         _______ _______ _______ _____ _____    ______ ____
ROOT
ATOM      1  C   LIG    1        5.697  -2.813   4.449  0.00  0.00    +0.100 A 
ATOM      2  C   LIG    1        6.664  -2.566   5.410  0.00  0.00    +0.170 A 
ATOM      3  N   LIG    1        7.387  -1.444   5.715  0.00  0.00    -0.212 NA
ATOM      4  C   LIG    1        8.172  -1.493   6.774  0.00  0.00    +0.126 A 
ATOM      5  C   LIG    1        8.254  -2.736   7.634  0.00  0.00    +0.063 A 
ATOM      6  C   LIG    1        7.550  -3.806   7.257  0.00  0.00    +0.118 A 
ATOM      7  N   LIG    1        6.762  -3.750   6.129  0.00  0.00    -0.221 N 
ATOM      8  N   LIG    1        6.017  -4.753   5.609  0.00  0.00    -0.173 NA
ATOM      9  C   LIG    1        5.388  -4.182   4.596  0.00  0.00    +0.150 A 
ENDROOT
BRANCH   4  10
ATOM     10  N   LIG    1        8.949  -0.386   7.104  0.00  0.00    -0.308 N 
ATOM     11  C   LIG    1        9.291  -0.040   8.500  0.00  0.00    +0.108 C 
ATOM     12  C   LIG    1        8.822   1.422   8.574  0.00  0.00    +0.029 C 
ATOM     13  C   LIG    1        9.261   1.979   7.232  0.00  0.00    +0.021 C 
ATOM     14  C   LIG    1        8.934   0.835   6.274  0.00  0.00    +0.107 C 
BRANCH  11  15
ATOM     15  C   LIG    1       10.775  -0.221   8.804  0.00  0.00    +0.011 A 
ATOM     16  C   LIG    1       11.287   0.146  10.060  0.00  0.00    +0.129 A 
ATOM     17  F   LIG    1       10.458   0.599  11.012  0.00  0.00    -0.205 F 
ATOM     18  C   LIG    1       12.649   0.056  10.363  0.00  0.00    +0.041 A 
ATOM     19  C   LIG    1       13.538  -0.429   9.408  0.00  0.00    +0.041 A 
ATOM     20  C   LIG    1       13.044  -0.840   8.177  0.00  0.00    +0.124 A 
ATOM     21  F   LIG    1       13.891  -1.322   7.259  0.00  0.00    -0.205 F 
ATOM     22  C   LIG    1       11.685  -0.750   7.873  0.00  0.00    +0.046 A 
ENDBRANCH  11  15
ENDBRANCH   4  10
BRANCH   1  25
ATOM     23  N   LIG    1        5.560  -0.647   3.424  0.00  0.00    -0.305 N 
ATOM     24  H   LIG    1        6.252  -0.403   4.138  0.00  0.00    +0.150 HD
ATOM     25  C   LIG    1        5.075  -1.946   3.497  0.00  0.00    +0.250 C 
ATOM     26  O   LIG    1        4.175  -2.388   2.831  0.00  0.00    -0.270 OA
BRANCH  23  28
ATOM     27  C   LIG    1        6.161   1.505   2.410  0.00  0.00    +0.032 C 
ATOM     28  C   LIG    1        5.029   0.455   2.572  0.00  0.00    +0.043 C 
ATOM     29  C   LIG    1        3.855   1.177   3.265  0.00  0.00    +0.032 C 
BRANCH  28  30
ATOM     30  C   LIG    1        4.639  -0.015   1.122  0.00  0.00    +0.130 C 
BRANCH  30  31
ATOM     31  N   LIG    1        3.461  -0.922   1.076  0.00  0.00    -0.193 NA
ATOM     32  H   LIG    1        3.610  -1.714   1.721  0.00  0.00    +0.148 HD
BRANCH  31  33
ATOM     33  S   LIG    1        3.134  -1.651  -0.410  0.00  0.00    +0.027 S 
ATOM     34  C   LIG    1        1.374  -1.859  -0.263  0.00  0.00    +0.214 C 
ATOM     35  O   LIG    1        3.752  -2.965  -0.396  0.00  0.00    -0.158 OA
ATOM     36  O   LIG    1        3.413  -0.688  -1.441  0.00  0.00    -0.158 OA
ENDBRANCH  31  33
ENDBRANCH  30  31
ENDBRANCH  28  30
ENDBRANCH  23  28
ENDBRANCH   1  25
TORSDOF 7
