REMARK  Name = pdb/CHEMBL3934726.pdb
REMARK                            x       y       z     vdW  Elec       q    Type
REMARK                         _______ _______ _______ _____ _____    ______ ____
ROOT
ATOM      1  C   LIG    1        4.650   0.651  11.704  0.00  0.00    +0.323 A 
ATOM      2  N   LIG    1        5.793   1.330  11.910  0.00  0.00    -0.201 NA
ATOM      3  C   LIG    1        5.690   2.561  12.464  0.00  0.00    +0.145 A 
ATOM      4  C   LIG    1        4.500   3.151  12.838  0.00  0.00    +0.105 A 
ATOM      5  C   LIG    1        3.404   2.333  12.609  0.00  0.00    +0.145 A 
ATOM      6  N   LIG    1        3.436   1.089  12.064  0.00  0.00    -0.201 NA
ENDROOT
BRANCH   4   7
ATOM      7  N   LIG    1        4.296   4.470  13.289  0.00  0.00    -0.196 NA
ATOM      8  C   LIG    1        5.128   5.109  14.041  0.00  0.00    +0.285 C 
BRANCH   8   9
ATOM      9  N   LIG    1        4.906   6.386  14.488  0.00  0.00    -0.268 N 
ATOM     10  H   LIG    1        4.044   6.779  14.105  0.00  0.00    +0.157 HD
BRANCH   9  11
ATOM     11  C   LIG    1        5.886   7.376  14.727  0.00  0.00    +0.062 A 
ATOM     12  C   LIG    1        5.752   8.384  15.703  0.00  0.00    +0.127 A 
ATOM     13  C   LIG    1        6.790   9.302  15.928  0.00  0.00    +0.031 A 
ATOM     14  C   LIG    1        7.975   9.221  15.198  0.00  0.00    +0.014 A 
ATOM     15  C   LIG    1        8.129   8.249  14.206  0.00  0.00    +0.057 A 
ATOM     16  C   LIG    1        7.074   7.359  13.964  0.00  0.00    +0.037 A 
BRANCH  15  17
ATOM     17  C   LIG    1        9.431   8.152  13.447  0.00  0.00    +0.417 C 
ATOM     18  F   LIG    1       10.485   7.933  14.281  0.00  0.00    -0.166 F 
ATOM     19  F   LIG    1        9.720   9.289  12.762  0.00  0.00    -0.166 F 
ATOM     20  F   LIG    1        9.457   7.140  12.538  0.00  0.00    -0.166 F 
ENDBRANCH  15  17
BRANCH  12  21
ATOM     21  S   LIG    1        4.278   8.547  16.702  0.00  0.00    +0.062 S 
ATOM     22  O   LIG    1        3.168   8.590  15.785  0.00  0.00    -0.153 OA
ATOM     23  O   LIG    1        4.500   9.624  17.665  0.00  0.00    -0.153 OA
BRANCH  21  24
ATOM     24  N   LIG    1        4.234   7.090  17.570  0.00  0.00    -0.183 NA
ATOM     25  C   LIG    1        2.892   6.568  17.889  0.00  0.00    +0.131 C 
ATOM     26  C   LIG    1        5.198   6.905  18.669  0.00  0.00    +0.131 C 
ENDBRANCH  21  24
ENDBRANCH  12  21
ENDBRANCH   9  11
ENDBRANCH   8   9
BRANCH   8  27
ATOM     27  O   LIG    1        6.268   4.544  14.488  0.00  0.00    -0.481 OA
ATOM     28  H   LIG    1        6.708   5.129  15.123  0.00  0.00    +0.295 HD
ENDBRANCH   8  27
ENDBRANCH   4   7
BRANCH   1  29
ATOM     29  O   LIG    1        4.685  -0.601  11.086  0.00  0.00    -0.424 OA
BRANCH  29  33
ATOM     30  C   LIG    1        7.717  -1.199   8.231  0.00  0.00    -0.010 A 
ATOM     31  C   LIG    1        8.043  -0.894   9.561  0.00  0.00    +0.012 A 
ATOM     32  C   LIG    1        7.052  -0.739  10.533  0.00  0.00    +0.047 A 
ATOM     33  C   LIG    1        5.705  -0.821  10.186  0.00  0.00    +0.132 A 
ATOM     34  C   LIG    1        5.359  -1.184   8.886  0.00  0.00    +0.047 A 
ATOM     35  C   LIG    1        6.357  -1.369   7.917  0.00  0.00    +0.012 A 
BRANCH  30  38
ATOM     36  C   LIG    1       10.904  -1.254   5.841  0.00  0.00    +0.156 A 
ATOM     37  S   LIG    1       10.271  -0.443   7.300  0.00  0.00    -0.053 S 
ATOM     38  C   LIG    1        8.756  -1.336   7.199  0.00  0.00    +0.038 A 
ATOM     39  C   LIG    1        8.750  -2.110   6.100  0.00  0.00    +0.100 A 
ATOM     40  N   LIG    1        9.897  -2.044   5.348  0.00  0.00    -0.342 N 
ATOM     41  H   LIG    1       10.069  -2.666   4.573  0.00  0.00    +0.167 HD
BRANCH  36  42
ATOM     42  N   LIG    1       12.082  -1.155   5.341  0.00  0.00    -0.228 NA
BRANCH  42  43
ATOM     43  C   LIG    1       13.069  -0.287   5.983  0.00  0.00    +0.130 C 
BRANCH  43  45
ATOM     44  C   LIG    1       15.537   0.022   6.373  0.00  0.00    +0.005 C 
ATOM     45  C   LIG    1       14.467  -0.857   5.742  0.00  0.00    +0.017 C 
ENDBRANCH  43  45
ENDBRANCH  42  43
ENDBRANCH  36  42
ENDBRANCH  30  38
ENDBRANCH  29  33
ENDBRANCH   1  29
TORSDOF 13
