REMARK  Name = pdb/CHEMBL3951420.pdb
REMARK                            x       y       z     vdW  Elec       q    Type
REMARK                         _______ _______ _______ _____ _____    ______ ____
ROOT
ATOM      1  C   LIG    1        4.447   1.075  -1.250  0.00  0.00    +0.149 A 
ATOM      2  N   LIG    1        4.750   1.519  -2.478  0.00  0.00    -0.160 NA
ATOM      3  N   LIG    1        4.442   2.844  -2.487  0.00  0.00    -0.218 N 
ATOM      4  C   LIG    1        3.825   3.218  -1.284  0.00  0.00    +0.129 A 
ATOM      5  C   LIG    1        3.886   2.108  -0.475  0.00  0.00    +0.078 A 
ENDROOT
BRANCH   3   6
ATOM      6  C   LIG    1        4.818   3.631  -3.625  0.00  0.00    +0.067 A 
ATOM      7  C   LIG    1        5.479   2.997  -4.695  0.00  0.00    +0.028 A 
ATOM      8  C   LIG    1        5.907   3.726  -5.809  0.00  0.00    +0.002 A 
ATOM      9  C   LIG    1        5.666   5.093  -5.881  0.00  0.00    +0.000 A 
ATOM     10  C   LIG    1        5.011   5.733  -4.834  0.00  0.00    +0.002 A 
ATOM     11  C   LIG    1        4.606   5.012  -3.704  0.00  0.00    +0.028 A 
ENDBRANCH   3   6
BRANCH   4  12
ATOM     12  N   LIG    1        3.231   4.425  -0.927  0.00  0.00    -0.266 N 
ATOM     13  H   LIG    1        2.915   5.036  -1.669  0.00  0.00    +0.157 HD
ATOM     14  C   LIG    1        3.011   4.831   0.434  0.00  0.00    +0.251 C 
ATOM     15  O   LIG    1        3.351   4.124   1.364  0.00  0.00    -0.270 OA
BRANCH  14  16
ATOM     16  C   LIG    1        2.476   6.192   0.682  0.00  0.00    +0.056 A 
ATOM     17  C   LIG    1        1.675   6.896  -0.207  0.00  0.00    +0.054 A 
ATOM     18 CL   LIG    1        1.111   6.245  -1.705  0.00  0.00    -0.083 Cl
ATOM     19  C   LIG    1        1.286   8.196   0.105  0.00  0.00    +0.041 A 
ATOM     20  C   LIG    1        1.705   8.810   1.297  0.00  0.00    +0.052 A 
ATOM     21 CL   LIG    1        1.233  10.470   1.466  0.00  0.00    -0.083 Cl
ATOM     22  C   LIG    1        2.496   8.120   2.241  0.00  0.00    +0.022 A 
ATOM     23  C   LIG    1        2.851   6.797   1.904  0.00  0.00    +0.026 A 
BRANCH  22  24
ATOM     24  C   LIG    1        2.952   8.705   3.531  0.00  0.00    +0.107 A 
ATOM     25  C   LIG    1        4.188   8.413   4.120  0.00  0.00    +0.149 A 
ATOM     26  F   LIG    1        5.069   7.591   3.531  0.00  0.00    -0.203 F 
ATOM     27  C   LIG    1        4.533   8.987   5.340  0.00  0.00    +0.042 A 
ATOM     28  C   LIG    1        3.650   9.869   5.947  0.00  0.00    +0.023 A 
ATOM     29  C   LIG    1        2.447  10.118   5.311  0.00  0.00    +0.111 A 
ATOM     30  N   LIG    1        2.076   9.538   4.146  0.00  0.00    -0.252 NA
ENDBRANCH  22  24
ENDBRANCH  14  16
ENDBRANCH   4  12
BRANCH   1  31
ATOM     31  C   LIG    1        4.674  -0.301  -0.810  0.00  0.00    +0.236 C 
ATOM     32  N   LIG    1        5.222  -1.156  -1.587  0.00  0.00    -0.241 NA
BRANCH  31  33
ATOM     33  O   LIG    1        4.259  -0.540   0.455  0.00  0.00    -0.491 OA
ATOM     34  H   LIG    1        4.460  -1.435   0.754  0.00  0.00    +0.294 HD
ENDBRANCH  31  33
BRANCH  32  35
ATOM     35  C   LIG    1        5.523  -2.512  -1.172  0.00  0.00    +0.222 C 
BRANCH  35  36
ATOM     36  C   LIG    1        6.908  -2.566  -0.655  0.00  0.00    +0.158 A 
ATOM     37  C   LIG    1        8.140  -2.753  -1.233  0.00  0.00    +0.069 A 
ATOM     38  C   LIG    1        9.039  -2.639  -0.159  0.00  0.00    +0.157 A 
ATOM     39  N   LIG    1        8.412  -2.406   0.997  0.00  0.00    -0.086 NA
ATOM     40  O   LIG    1        7.065  -2.356   0.681  0.00  0.00    -0.358 OA
ENDBRANCH  35  36
ENDBRANCH  32  35
ENDBRANCH   1  31
TORSDOF 8
