REMARK  Name = pdb/CHEMBL3950778.pdb
REMARK                            x       y       z     vdW  Elec       q    Type
REMARK                         _______ _______ _______ _____ _____    ______ ____
ROOT
ATOM      1  C   LIG    1        3.125  -2.778  -0.234  0.00  0.00    +0.149 A 
ATOM      2  N   LIG    1        3.378  -2.853   1.084  0.00  0.00    -0.160 NA
ATOM      3  N   LIG    1        4.629  -3.396   1.160  0.00  0.00    -0.218 N 
ATOM      4  C   LIG    1        5.240  -3.465  -0.098  0.00  0.00    +0.129 A 
ATOM      5  C   LIG    1        4.247  -3.154  -1.004  0.00  0.00    +0.078 A 
ENDROOT
BRANCH   3   6
ATOM      6  C   LIG    1        5.158  -3.771   2.428  0.00  0.00    +0.067 A 
ATOM      7  C   LIG    1        4.720  -3.115   3.590  0.00  0.00    +0.028 A 
ATOM      8  C   LIG    1        5.235  -3.480   4.838  0.00  0.00    +0.002 A 
ATOM      9  C   LIG    1        6.170  -4.509   4.935  0.00  0.00    +0.000 A 
ATOM     10  C   LIG    1        6.579  -5.187   3.789  0.00  0.00    +0.002 A 
ATOM     11  C   LIG    1        6.070  -4.826   2.539  0.00  0.00    +0.028 A 
ENDBRANCH   3   6
BRANCH   4  12
ATOM     12  N   LIG    1        6.580  -3.728  -0.411  0.00  0.00    -0.266 N 
ATOM     13  H   LIG    1        7.179  -4.091   0.328  0.00  0.00    +0.157 HD
ATOM     14  C   LIG    1        7.191  -3.411  -1.681  0.00  0.00    +0.251 C 
ATOM     15  O   LIG    1        6.553  -2.830  -2.557  0.00  0.00    -0.270 OA
BRANCH  14  16
ATOM     16  C   LIG    1        8.629  -3.714  -1.870  0.00  0.00    +0.056 A 
ATOM     17  C   LIG    1        9.276  -4.796  -1.263  0.00  0.00    +0.054 A 
ATOM     18 CL   LIG    1        8.479  -5.938  -0.250  0.00  0.00    -0.083 Cl
ATOM     19  C   LIG    1       10.624  -5.027  -1.524  0.00  0.00    +0.041 A 
ATOM     20  C   LIG    1       11.352  -4.211  -2.406  0.00  0.00    +0.052 A 
ATOM     21 CL   LIG    1       12.946  -4.789  -2.753  0.00  0.00    -0.083 Cl
ATOM     22  C   LIG    1       10.760  -3.086  -3.018  0.00  0.00    +0.022 A 
ATOM     23  C   LIG    1        9.383  -2.882  -2.734  0.00  0.00    +0.026 A 
BRANCH  22  24
ATOM     24  C   LIG    1       11.456  -2.156  -3.954  0.00  0.00    +0.107 A 
ATOM     25  C   LIG    1       12.797  -1.770  -3.861  0.00  0.00    +0.149 A 
ATOM     26  F   LIG    1       13.569  -2.130  -2.828  0.00  0.00    -0.203 F 
ATOM     27  C   LIG    1       13.359  -0.936  -4.823  0.00  0.00    +0.042 A 
ATOM     28  C   LIG    1       12.556  -0.429  -5.834  0.00  0.00    +0.023 A 
ATOM     29  C   LIG    1       11.221  -0.792  -5.838  0.00  0.00    +0.111 A 
ATOM     30  N   LIG    1       10.661  -1.642  -4.939  0.00  0.00    -0.252 NA
ENDBRANCH  22  24
ENDBRANCH  14  16
ENDBRANCH   4  12
BRANCH   1  31
ATOM     31  C   LIG    1        1.837  -2.321  -0.742  0.00  0.00    +0.236 C 
ATOM     32  N   LIG    1        1.649  -2.213  -2.005  0.00  0.00    -0.249 NA
BRANCH  31  33
ATOM     33  O   LIG    1        0.912  -2.036   0.201  0.00  0.00    -0.491 OA
ATOM     34  H   LIG    1        1.299  -2.203   1.082  0.00  0.00    +0.294 HD
ENDBRANCH  31  33
BRANCH  32  35
ATOM     35  C   LIG    1        0.350  -1.729  -2.469  0.00  0.00    +0.151 C 
BRANCH  35  36
ATOM     36  C   LIG    1        0.017  -2.337  -3.832  0.00  0.00    +0.038 C 
ATOM     37  C   LIG    1       -0.111  -3.851  -3.822  0.00  0.00    +0.165 C 
ATOM     38  O   LIG    1        0.162  -4.307  -5.156  0.00  0.00    -0.379 OA
ATOM     39  C   LIG    1        0.680  -3.208  -5.917  0.00  0.00    +0.160 C 
ATOM     40  C   LIG    1        1.033  -2.111  -4.933  0.00  0.00    +0.035 C 
ENDBRANCH  35  36
ENDBRANCH  32  35
ENDBRANCH   1  31
TORSDOF 8
