REMARK  Name = pdb/CHEMBL3675916.pdb
REMARK                            x       y       z     vdW  Elec       q    Type
REMARK                         _______ _______ _______ _____ _____    ______ ____
ROOT
ATOM      1  C   LIG    1        3.496   2.018   4.080  0.00  0.00    +0.100 A 
ATOM      2  C   LIG    1        3.762   3.159   4.820  0.00  0.00    +0.170 A 
ATOM      3  N   LIG    1        3.480   4.490   4.611  0.00  0.00    -0.212 NA
ATOM      4  C   LIG    1        3.865   5.359   5.526  0.00  0.00    +0.126 A 
ATOM      5  C   LIG    1        4.582   4.921   6.784  0.00  0.00    +0.063 A 
ATOM      6  C   LIG    1        4.838   3.618   6.930  0.00  0.00    +0.118 A 
ATOM      7  N   LIG    1        4.440   2.719   5.959  0.00  0.00    -0.221 N 
ATOM      8  N   LIG    1        4.627   1.380   5.965  0.00  0.00    -0.173 NA
ATOM      9  C   LIG    1        4.048   0.966   4.841  0.00  0.00    +0.150 A 
ENDROOT
BRANCH   4  10
ATOM     10  N   LIG    1        3.618   6.717   5.343  0.00  0.00    -0.308 N 
ATOM     11  C   LIG    1        2.915   7.236   4.157  0.00  0.00    +0.108 C 
ATOM     12  C   LIG    1        3.736   8.477   3.776  0.00  0.00    +0.029 C 
ATOM     13  C   LIG    1        4.191   9.021   5.119  0.00  0.00    +0.021 C 
ATOM     14  C   LIG    1        4.497   7.753   5.905  0.00  0.00    +0.107 C 
BRANCH  11  15
ATOM     15  C   LIG    1        1.459   7.556   4.449  0.00  0.00    +0.011 A 
ATOM     16  C   LIG    1        0.537   7.544   3.393  0.00  0.00    +0.129 A 
ATOM     17  F   LIG    1        0.958   7.266   2.153  0.00  0.00    -0.205 F 
ATOM     18  C   LIG    1       -0.815   7.831   3.581  0.00  0.00    +0.041 A 
ATOM     19  C   LIG    1       -1.274   8.166   4.851  0.00  0.00    +0.041 A 
ATOM     20  C   LIG    1       -0.374   8.201   5.909  0.00  0.00    +0.124 A 
ATOM     21  F   LIG    1       -0.809   8.536   7.130  0.00  0.00    -0.205 F 
ATOM     22  C   LIG    1        0.975   7.896   5.722  0.00  0.00    +0.046 A 
ENDBRANCH  11  15
ENDBRANCH   4  10
BRANCH   1  25
ATOM     23  N   LIG    1        2.322   3.044   2.280  0.00  0.00    -0.294 N 
ATOM     24  H   LIG    1        2.653   3.899   2.724  0.00  0.00    +0.151 HD
ATOM     25  C   LIG    1        2.802   1.875   2.818  0.00  0.00    +0.250 C 
ATOM     26  O   LIG    1        2.656   0.778   2.296  0.00  0.00    -0.270 OA
BRANCH  23  28
ATOM     27  C   LIG    1        0.687   4.372   1.086  0.00  0.00    +0.047 C 
ATOM     28  C   LIG    1        1.612   3.148   0.998  0.00  0.00    +0.116 C 
ATOM     29  C   LIG    1        2.611   3.368  -0.147  0.00  0.00    +0.047 C 
BRANCH  28  30
ATOM     30  C   LIG    1        0.740   1.976   0.689  0.00  0.00    +0.088 C 
ATOM     31  N   LIG    1        0.023   1.110   0.417  0.00  0.00    -0.194 NA
ENDBRANCH  28  30
ENDBRANCH  23  28
ENDBRANCH   1  25
TORSDOF 5
