REMARK  Name = pdb/CHEMBL3582441.pdb
REMARK                            x       y       z     vdW  Elec       q    Type
REMARK                         _______ _______ _______ _____ _____    ______ ____
ROOT
ATOM      1  C   LIG    1        9.190  -3.742  -0.636  0.00  0.00    +0.093 A 
ATOM      2  N   LIG    1       10.254  -3.041  -1.196  0.00  0.00    -0.211 N 
ATOM      3  N   LIG    1       10.334  -1.684  -1.361  0.00  0.00    -0.149 NA
ATOM      4  C   LIG    1       11.416  -1.238  -1.948  0.00  0.00    +0.143 A 
ATOM      5  C   LIG    1       12.498  -2.174  -2.408  0.00  0.00    +0.049 A 
ATOM      6  C   LIG    1       12.360  -3.489  -2.208  0.00  0.00    +0.051 A 
ATOM      7  C   LIG    1       11.204  -3.973  -1.567  0.00  0.00    +0.155 A 
ATOM      8  N   LIG    1       10.846  -5.198  -1.252  0.00  0.00    -0.234 NA
ATOM      9  C   LIG    1        9.610  -5.063  -0.675  0.00  0.00    +0.141 A 
ENDROOT
BRANCH   1  14
ATOM     10  C   LIG    1        6.195  -1.445  -0.389  0.00  0.00    +0.122 A 
ATOM     11  N   LIG    1        5.468  -2.035   0.584  0.00  0.00    -0.240 NA
ATOM     12  C   LIG    1        5.946  -3.170   1.147  0.00  0.00    +0.113 A 
ATOM     13  C   LIG    1        7.145  -3.769   0.799  0.00  0.00    +0.030 A 
ATOM     14  C   LIG    1        7.920  -3.160  -0.180  0.00  0.00    +0.007 A 
ATOM     15  C   LIG    1        7.423  -1.990  -0.761  0.00  0.00    +0.053 A 
BRANCH  10  19
ATOM     16  N   LIG    1        3.877   1.232  -2.816  0.00  0.00    -0.290 NA
ATOM     17  C   LIG    1        5.281   0.960  -3.179  0.00  0.00    +0.104 C 
ATOM     18  C   LIG    1        5.942  -0.247  -2.486  0.00  0.00    +0.122 C 
ATOM     19  N   LIG    1        5.722  -0.272  -1.024  0.00  0.00    -0.313 N 
ATOM     20  C   LIG    1        4.384   0.132  -0.554  0.00  0.00    +0.122 C 
ATOM     21  C   LIG    1        3.832   1.348  -1.336  0.00  0.00    +0.104 C 
BRANCH  16  22
ATOM     22  C   LIG    1        2.932   0.193  -3.285  0.00  0.00    +0.205 C 
BRANCH  22  23
ATOM     23  C   LIG    1        2.870   0.056  -4.812  0.00  0.00    +0.319 C 
ATOM     24  O   LIG    1        3.479   0.654  -5.667  0.00  0.00    -0.250 OA
BRANCH  23  25
ATOM     25  O   LIG    1        1.998  -0.922  -5.175  0.00  0.00    -0.480 OA
ATOM     26  H   LIG    1        2.065  -0.916  -6.157  0.00  0.00    +0.295 HD
ENDBRANCH  23  25
ENDBRANCH  22  23
ENDBRANCH  16  22
ENDBRANCH  10  19
ENDBRANCH   1  14
BRANCH   4  27
ATOM     27  N   LIG    1       11.530   0.130  -2.149  0.00  0.00    -0.307 N 
ATOM     28  C   LIG    1       12.762   0.842  -2.498  0.00  0.00    +0.105 C 
ATOM     29  C   LIG    1       12.548   2.246  -1.916  0.00  0.00    +0.029 C 
ATOM     30  C   LIG    1       11.051   2.456  -2.058  0.00  0.00    +0.021 C 
ATOM     31  C   LIG    1       10.488   1.076  -1.726  0.00  0.00    +0.107 C 
BRANCH  28  32
ATOM     32  C   LIG    1       13.011   0.858  -3.999  0.00  0.00    -0.024 A 
ATOM     33  C   LIG    1       11.974   0.733  -4.939  0.00  0.00    +0.043 A 
ATOM     34  C   LIG    1       12.249   0.750  -6.302  0.00  0.00    +0.124 A 
ATOM     35  F   LIG    1       11.244   0.623  -7.178  0.00  0.00    -0.205 F 
ATOM     36  C   LIG    1       13.548   0.894  -6.769  0.00  0.00    +0.038 A 
ATOM     37  C   LIG    1       14.591   1.025  -5.855  0.00  0.00    +0.003 A 
ATOM     38  C   LIG    1       14.325   1.011  -4.481  0.00  0.00    +0.005 A 
ENDBRANCH  28  32
ENDBRANCH   4  27
TORSDOF 7
