REMARK  Name = pdb/CHEMBL456801.pdb
REMARK                            x       y       z     vdW  Elec       q    Type
REMARK                         _______ _______ _______ _____ _____    ______ ____
ROOT
ATOM      1  C   LIG    1        2.871   1.958   2.201  0.00  0.00    +0.219 A 
ATOM      2  N   LIG    1        3.320   2.986   1.480  0.00  0.00    -0.198 NA
ATOM      3  C   LIG    1        3.416   4.195   2.070  0.00  0.00    +0.149 A 
ATOM      4  C   LIG    1        3.042   4.374   3.398  0.00  0.00    +0.121 A 
ATOM      5 CL   LIG    1        3.303   5.869   4.228  0.00  0.00    -0.076 Cl
ATOM      6  C   LIG    1        2.502   3.273   4.054  0.00  0.00    +0.144 A 
ATOM      7  N   LIG    1        2.427   2.071   3.456  0.00  0.00    -0.198 NA
ENDROOT
BRANCH   1   8
ATOM      8  N   LIG    1        2.859   0.677   1.683  0.00  0.00    -0.307 N 
ATOM      9  H   LIG    1        2.714   0.019   2.440  0.00  0.00    +0.149 HD
BRANCH   8  11
ATOM     10  C   LIG    1        5.156  -0.127   1.519  0.00  0.00    +0.033 C 
ATOM     11  C   LIG    1        3.913   0.325   0.734  0.00  0.00    +0.100 C 
BRANCH  11  12
ATOM     12  C   LIG    1        3.398  -0.742  -0.240  0.00  0.00    -0.027 A 
ATOM     13  C   LIG    1        4.271  -1.633  -0.895  0.00  0.00    +0.008 A 
ATOM     14  C   LIG    1        3.794  -2.551  -1.836  0.00  0.00    +0.038 A 
ATOM     15  C   LIG    1        2.441  -2.585  -2.137  0.00  0.00    +0.123 A 
ATOM     16  F   LIG    1        1.988  -3.458  -3.046  0.00  0.00    -0.205 F 
ATOM     17  C   LIG    1        1.553  -1.722  -1.512  0.00  0.00    +0.038 A 
ATOM     18  C   LIG    1        2.032  -0.796  -0.582  0.00  0.00    +0.008 A 
ENDBRANCH  11  12
ENDBRANCH   8  11
ENDBRANCH   1   8
BRANCH   3  19
ATOM     19  N   LIG    1        3.911   5.290   1.330  0.00  0.00    -0.282 N 
ATOM     20  H   LIG    1        4.731   5.695   1.772  0.00  0.00    +0.155 HD
BRANCH  19  21
ATOM     21  C   LIG    1        3.830   5.490  -0.010  0.00  0.00    +0.146 A 
ATOM     22  N   LIG    1        4.788   6.071  -0.729  0.00  0.00    -0.158 NA
ATOM     23  N   LIG    1        4.286   6.084  -1.978  0.00  0.00    -0.280 N 
ATOM     24  H   LIG    1        4.865   6.450  -2.729  0.00  0.00    +0.189 HD
ATOM     25  C   LIG    1        3.012   5.616  -2.063  0.00  0.00    +0.041 A 
ATOM     26  C   LIG    1        2.676   5.219  -0.788  0.00  0.00    +0.068 A 
BRANCH  25  27
ATOM     27  C   LIG    1        2.127   5.540  -3.291  0.00  0.00    +0.037 C 
ATOM     28  C   LIG    1        2.750   5.159  -4.619  0.00  0.00    +0.010 C 
ATOM     29  C   LIG    1        2.319   6.567  -4.393  0.00  0.00    +0.010 C 
ENDBRANCH  25  27
ENDBRANCH  19  21
ENDBRANCH   3  19
BRANCH   6  30
ATOM     30  N   LIG    1        1.933   3.414   5.353  0.00  0.00    -0.325 N 
ATOM     31  H   LIG    1        2.424   4.160   5.846  0.00  0.00    +0.148 HD
BRANCH  30  32
ATOM     32  C   LIG    1        1.949   2.140   6.088  0.00  0.00    +0.136 C 
BRANCH  32  33
ATOM     33  C   LIG    1        1.332   2.307   7.482  0.00  0.00    +0.157 C 
BRANCH  33  34
ATOM     34  O   LIG    1       -0.046   2.704   7.391  0.00  0.00    -0.388 OA
ATOM     35  H   LIG    1       -0.068   3.430   6.736  0.00  0.00    +0.210 HD
ENDBRANCH  33  34
BRANCH  33  36
ATOM     36  C   LIG    1        1.396   0.980   8.242  0.00  0.00    +0.188 C 
BRANCH  36  37
ATOM     37  O   LIG    1        0.801   1.139   9.527  0.00  0.00    -0.392 OA
ATOM     38  H   LIG    1       -0.047   1.594   9.354  0.00  0.00    +0.210 HD
ENDBRANCH  36  37
ENDBRANCH  33  36
ENDBRANCH  32  33
ENDBRANCH  30  32
ENDBRANCH   6  30
TORSDOF 12
