REMARK  Name = pdb/CHEMBL3675976.pdb
REMARK                            x       y       z     vdW  Elec       q    Type
REMARK                         _______ _______ _______ _____ _____    ______ ____
ROOT
ATOM      1  C   LIG    1        4.276   0.580  -4.606  0.00  0.00    +0.100 A 
ATOM      2  C   LIG    1        4.363   1.489  -5.648  0.00  0.00    +0.170 A 
ATOM      3  N   LIG    1        4.248   2.858  -5.686  0.00  0.00    -0.212 NA
ATOM      4  C   LIG    1        4.277   3.453  -6.860  0.00  0.00    +0.126 A 
ATOM      5  C   LIG    1        4.477   2.673  -8.141  0.00  0.00    +0.063 A 
ATOM      6  C   LIG    1        4.617   1.347  -8.042  0.00  0.00    +0.118 A 
ATOM      7  N   LIG    1        4.564   0.733  -6.804  0.00  0.00    -0.221 N 
ATOM      8  N   LIG    1        4.661  -0.589  -6.543  0.00  0.00    -0.173 NA
ATOM      9  C   LIG    1        4.472  -0.675  -5.225  0.00  0.00    +0.150 A 
ENDROOT
BRANCH   4  10
ATOM     10  N   LIG    1        4.109   4.831  -6.938  0.00  0.00    -0.308 N 
ATOM     11  C   LIG    1        3.913   5.663  -5.739  0.00  0.00    +0.107 C 
ATOM     12  C   LIG    1        2.789   6.623  -6.150  0.00  0.00    +0.029 C 
ATOM     13  C   LIG    1        3.022   6.836  -7.634  0.00  0.00    +0.021 C 
ATOM     14  C   LIG    1        3.493   5.469  -8.108  0.00  0.00    +0.107 C 
BRANCH  11  15
ATOM     15  C   LIG    1        5.187   6.373  -5.325  0.00  0.00    -0.006 A 
ATOM     16  C   LIG    1        6.222   6.710  -6.207  0.00  0.00    +0.046 A 
ATOM     17  C   LIG    1        7.357   7.350  -5.726  0.00  0.00    +0.142 A 
ATOM     18  F   LIG    1        8.356   7.669  -6.560  0.00  0.00    -0.204 F 
ATOM     19  C   LIG    1        7.441   7.651  -4.380  0.00  0.00    +0.149 A 
ATOM     20  N   LIG    1        6.460   7.366  -3.494  0.00  0.00    -0.260 NA
ATOM     21  C   LIG    1        5.366   6.736  -3.988  0.00  0.00    +0.116 A 
ENDBRANCH  11  15
ENDBRANCH   4  10
BRANCH   1  24
ATOM     22  N   LIG    1        3.868   2.160  -2.860  0.00  0.00    -0.306 N 
ATOM     23  H   LIG    1        3.926   2.817  -3.637  0.00  0.00    +0.150 HD
ATOM     24  C   LIG    1        4.024   0.827  -3.200  0.00  0.00    +0.250 C 
ATOM     25  O   LIG    1        3.950  -0.089  -2.393  0.00  0.00    -0.270 OA
BRANCH  22  27
ATOM     26  C   LIG    1        4.758   2.281  -0.551  0.00  0.00    +0.031 C 
ATOM     27  C   LIG    1        3.607   2.637  -1.479  0.00  0.00    +0.032 C 
ATOM     28  C   LIG    1        3.204   4.141  -1.417  0.00  0.00    +0.025 C 
ATOM     29  C   LIG    1        1.730   3.707  -1.452  0.00  0.00    +0.004 C 
ATOM     30  C   LIG    1        2.175   2.315  -0.969  0.00  0.00    +0.025 C 
ENDBRANCH  22  27
ENDBRANCH   1  24
TORSDOF 4
