REMARK  Name = pdb/CHEMBL3931190.pdb
REMARK                            x       y       z     vdW  Elec       q    Type
REMARK                         _______ _______ _______ _____ _____    ______ ____
ROOT
ATOM      1  C   LIG    1        6.870  -0.680  -3.725  0.00  0.00    +0.149 A 
ATOM      2  N   LIG    1        7.884  -1.556  -3.805  0.00  0.00    -0.160 NA
ATOM      3  N   LIG    1        9.013  -0.817  -3.570  0.00  0.00    -0.218 N 
ATOM      4  C   LIG    1        8.703   0.536  -3.382  0.00  0.00    +0.129 A 
ATOM      5  C   LIG    1        7.347   0.629  -3.557  0.00  0.00    +0.078 A 
ENDROOT
BRANCH   3   6
ATOM      6  C   LIG    1       10.276  -1.476  -3.550  0.00  0.00    +0.067 A 
ATOM      7  C   LIG    1       11.364  -0.985  -2.821  0.00  0.00    +0.028 A 
ATOM      8  C   LIG    1       12.597  -1.647  -2.869  0.00  0.00    +0.002 A 
ATOM      9  C   LIG    1       12.747  -2.803  -3.633  0.00  0.00    +0.000 A 
ATOM     10  C   LIG    1       11.658  -3.320  -4.328  0.00  0.00    +0.002 A 
ATOM     11  C   LIG    1       10.424  -2.669  -4.277  0.00  0.00    +0.028 A 
ENDBRANCH   3   6
BRANCH   4  12
ATOM     12  N   LIG    1        9.575   1.627  -3.163  0.00  0.00    -0.266 N 
ATOM     13  H   LIG    1       10.560   1.505  -3.305  0.00  0.00    +0.157 HD
ATOM     14  C   LIG    1        9.066   2.896  -2.694  0.00  0.00    +0.251 C 
ATOM     15  O   LIG    1        7.890   3.023  -2.399  0.00  0.00    -0.270 OA
BRANCH  14  16
ATOM     16  C   LIG    1        9.952   4.064  -2.556  0.00  0.00    +0.056 A 
ATOM     17  C   LIG    1       11.285   3.999  -2.157  0.00  0.00    +0.056 A 
ATOM     18 CL   LIG    1       12.129   2.524  -1.881  0.00  0.00    -0.083 Cl
ATOM     19  C   LIG    1       11.983   5.180  -1.912  0.00  0.00    +0.059 A 
ATOM     20  C   LIG    1       11.351   6.416  -2.060  0.00  0.00    +0.134 A 
ATOM     21  F   LIG    1       12.061   7.499  -1.716  0.00  0.00    -0.205 F 
ATOM     22  C   LIG    1       10.026   6.533  -2.493  0.00  0.00    +0.039 A 
ATOM     23  C   LIG    1        9.340   5.320  -2.730  0.00  0.00    +0.027 A 
BRANCH  22  24
ATOM     24  C   LIG    1        9.331   7.827  -2.658  0.00  0.00    +0.109 A 
ATOM     25  C   LIG    1        9.970   9.017  -3.011  0.00  0.00    +0.149 A 
ATOM     26  F   LIG    1       11.279   9.061  -3.291  0.00  0.00    -0.203 F 
ATOM     27  C   LIG    1        9.234  10.190  -3.129  0.00  0.00    +0.042 A 
ATOM     28  C   LIG    1        7.863  10.157  -2.917  0.00  0.00    +0.023 A 
ATOM     29  C   LIG    1        7.284   8.942  -2.596  0.00  0.00    +0.111 A 
ATOM     30  N   LIG    1        7.981   7.786  -2.465  0.00  0.00    -0.252 NA
ENDBRANCH  22  24
ENDBRANCH  14  16
ENDBRANCH   4  12
BRANCH   1  32
ATOM     31  N   LIG    1        4.525  -0.251  -3.722  0.00  0.00    -0.246 NA
ATOM     32  C   LIG    1        5.476  -1.110  -3.795  0.00  0.00    +0.236 C 
BRANCH  31  36
ATOM     33  C   LIG    1        1.766   1.582  -4.997  0.00  0.00    +0.115 C 
ATOM     34  C   LIG    1        2.513   0.533  -5.823  0.00  0.00    +0.033 C 
ATOM     35  C   LIG    1        2.573  -0.824  -5.124  0.00  0.00    +0.029 C 
ATOM     36  C   LIG    1        3.135  -0.728  -3.702  0.00  0.00    +0.109 C 
ATOM     37  C   LIG    1        2.296   0.280  -2.898  0.00  0.00    +0.029 C 
ATOM     38  C   LIG    1        2.268   1.659  -3.556  0.00  0.00    +0.033 C 
BRANCH  33  39
ATOM     39  O   LIG    1        1.899   2.857  -5.618  0.00  0.00    -0.392 OA
ATOM     40  H   LIG    1        2.844   3.088  -5.615  0.00  0.00    +0.210 HD
ENDBRANCH  33  39
ENDBRANCH  31  36
BRANCH  32  41
ATOM     41  O   LIG    1        5.302  -2.445  -3.903  0.00  0.00    -0.491 OA
ATOM     42  H   LIG    1        6.181  -2.872  -3.915  0.00  0.00    +0.294 HD
ENDBRANCH  32  41
ENDBRANCH   1  32
TORSDOF 8
