REMARK  Name = pdb/CHEMBL3936753.pdb
REMARK                            x       y       z     vdW  Elec       q    Type
REMARK                         _______ _______ _______ _____ _____    ______ ____
ROOT
ATOM      1  C   LIG    1        1.799   4.088   0.768  0.00  0.00    +0.179 A 
ATOM      2  N   LIG    1        0.891   4.968   0.183  0.00  0.00    -0.193 N 
ATOM      3  N   LIG    1       -0.453   4.743   0.000  0.00  0.00    -0.148 NA
ATOM      4  C   LIG    1       -1.092   5.691  -0.634  0.00  0.00    +0.143 A 
ATOM      5  C   LIG    1       -0.427   6.986  -1.009  0.00  0.00    +0.049 A 
ATOM      6  C   LIG    1        0.884   7.134  -0.805  0.00  0.00    +0.051 A 
ATOM      7  C   LIG    1        1.610   6.079  -0.222  0.00  0.00    +0.157 A 
ATOM      8  N   LIG    1        2.896   5.953   0.020  0.00  0.00    -0.232 NA
ATOM      9  C   LIG    1        3.015   4.734   0.639  0.00  0.00    +0.161 A 
ENDROOT
BRANCH   4  10
ATOM     10  N   LIG    1       -2.426   5.506  -0.993  0.00  0.00    -0.307 N 
ATOM     11  C   LIG    1       -2.890   5.936  -2.329  0.00  0.00    +0.108 C 
ATOM     12  C   LIG    1       -3.517   4.663  -2.909  0.00  0.00    +0.029 C 
ATOM     13  C   LIG    1       -4.150   4.007  -1.700  0.00  0.00    +0.021 C 
ATOM     14  C   LIG    1       -3.150   4.288  -0.583  0.00  0.00    +0.107 C 
BRANCH  11  15
ATOM     15  C   LIG    1       -3.838   7.119  -2.261  0.00  0.00    +0.011 A 
ATOM     16  C   LIG    1       -4.383   7.625  -3.451  0.00  0.00    +0.129 A 
ATOM     17  F   LIG    1       -4.059   7.061  -4.623  0.00  0.00    -0.205 F 
ATOM     18  C   LIG    1       -5.258   8.710  -3.460  0.00  0.00    +0.041 A 
ATOM     19  C   LIG    1       -5.592   9.332  -2.260  0.00  0.00    +0.041 A 
ATOM     20  C   LIG    1       -5.043   8.861  -1.074  0.00  0.00    +0.124 A 
ATOM     21  F   LIG    1       -5.354   9.464   0.080  0.00  0.00    -0.205 F 
ATOM     22  C   LIG    1       -4.174   7.770  -1.063  0.00  0.00    +0.046 A 
ENDBRANCH  11  15
ENDBRANCH   4  10
BRANCH   1  24
ATOM     23  C   LIG    1        2.009   1.854   1.354  0.00  0.00    +0.282 C 
ATOM     24  N   LIG    1        1.367   2.954   1.379  0.00  0.00    -0.178 NA
BRANCH  23  25
ATOM     25  N   LIG    1        3.175   1.440   0.774  0.00  0.00    -0.294 N 
ATOM     26  H   LIG    1        3.716   2.175   0.341  0.00  0.00    +0.151 HD
BRANCH  25  28
ATOM     27  C   LIG    1        4.812   0.032  -0.338  0.00  0.00    +0.031 C 
ATOM     28  C   LIG    1        3.859   0.144   0.871  0.00  0.00    +0.028 C 
ATOM     29  C   LIG    1        4.692   0.077   2.157  0.00  0.00    +0.031 C 
ATOM     30  C   LIG    1        2.909  -1.064   0.809  0.00  0.00    +0.031 C 
ENDBRANCH  25  28
ENDBRANCH  23  25
BRANCH  23  31
ATOM     31  O   LIG    1        1.379   0.898   2.044  0.00  0.00    -0.481 OA
ATOM     32  H   LIG    1        0.543   1.302   2.330  0.00  0.00    +0.295 HD
ENDBRANCH  23  31
ENDBRANCH   1  24
TORSDOF 6
