REMARK  Name = pdb/CHEMBL2037213.pdb
REMARK                            x       y       z     vdW  Elec       q    Type
REMARK                         _______ _______ _______ _____ _____    ______ ____
ROOT
ATOM      1  C   LIG    1        9.489   1.655  -6.772  0.00  0.00    +0.035 A 
ATOM      2  C   LIG    1        9.571   0.552  -7.651  0.00  0.00    +0.046 A 
ATOM      3  C   LIG    1       10.275   0.628  -8.871  0.00  0.00    +0.033 A 
ATOM      4  C   LIG    1       10.918   1.829  -9.176  0.00  0.00    +0.023 A 
ATOM      5  C   LIG    1       10.857   2.920  -8.308  0.00  0.00    +0.004 A 
ATOM      6  C   LIG    1       10.137   2.837  -7.119  0.00  0.00    +0.023 A 
ENDROOT
BRANCH   1   8
ATOM      7  C   LIG    1        8.557   2.462  -4.581  0.00  0.00    +0.248 C 
ATOM      8  N   LIG    1        8.740   1.511  -5.579  0.00  0.00    -0.281 N 
ATOM      9  H   LIG    1        8.330   0.600  -5.436  0.00  0.00    +0.155 HD
ATOM     10  O   LIG    1        9.039   3.588  -4.540  0.00  0.00    -0.270 OA
BRANCH   7  15
ATOM     11  C   LIG    1        7.149   2.248  -1.035  0.00  0.00    +0.031 A 
ATOM     12  C   LIG    1        6.088   1.356  -1.278  0.00  0.00    +0.035 A 
ATOM     13  C   LIG    1        5.830   0.794  -2.547  0.00  0.00    +0.057 A 
ATOM     14  C   LIG    1        6.643   1.143  -3.624  0.00  0.00    +0.025 A 
ATOM     15  C   LIG    1        7.693   2.038  -3.438  0.00  0.00    +0.039 A 
ATOM     16  C   LIG    1        7.922   2.589  -2.162  0.00  0.00    +0.036 A 
BRANCH  11  20
ATOM     17  C   LIG    1        9.444   1.778   1.978  0.00  0.00    +0.118 C 
ATOM     18  C   LIG    1        9.761   2.688   0.790  0.00  0.00    +0.050 C 
ATOM     19  C   LIG    1        8.582   3.615   0.489  0.00  0.00    +0.107 C 
ATOM     20  N   LIG    1        7.377   2.799   0.230  0.00  0.00    -0.330 N 
ATOM     21  C   LIG    1        6.980   2.069   1.450  0.00  0.00    +0.107 C 
ATOM     22  C   LIG    1        8.084   1.084   1.846  0.00  0.00    +0.050 C 
BRANCH  17  23
ATOM     23  O   LIG    1        9.468   2.564   3.170  0.00  0.00    -0.392 OA
ATOM     24  H   LIG    1        9.488   1.952   3.926  0.00  0.00    +0.210 HD
ENDBRANCH  17  23
ENDBRANCH  11  20
BRANCH  13  25
ATOM     25  C   LIG    1        4.683  -0.162  -2.746  0.00  0.00    +0.417 C 
ATOM     26  F   LIG    1        3.478   0.388  -2.445  0.00  0.00    -0.166 F 
ATOM     27  F   LIG    1        4.801  -1.279  -1.978  0.00  0.00    -0.166 F 
ATOM     28  F   LIG    1        4.576  -0.612  -4.031  0.00  0.00    -0.166 F 
ENDBRANCH  13  25
ENDBRANCH   7  15
ENDBRANCH   1   8
BRANCH   3  29
ATOM     29  N   LIG    1       10.276  -0.462  -9.768  0.00  0.00    -0.314 N 
ATOM     30  H   LIG    1       10.210  -1.370  -9.322  0.00  0.00    +0.152 HD
BRANCH  29  31
ATOM     31  C   LIG    1       10.262  -0.515 -11.183  0.00  0.00    +0.033 A 
ATOM     32  C   LIG    1       10.817  -1.631 -11.836  0.00  0.00    +0.047 A 
ATOM     33  C   LIG    1       10.795  -1.670 -13.223  0.00  0.00    +0.043 A 
ATOM     34  N   LIG    1       11.286  -2.686 -14.042  0.00  0.00    -0.281 N 
ATOM     35  H   LIG    1       11.729  -3.537 -13.729  0.00  0.00    +0.155 HD
ATOM     36  C   LIG    1       11.084  -2.404 -15.380  0.00  0.00    +0.249 C 
ATOM     37  O   LIG    1       11.383  -3.131 -16.319  0.00  0.00    -0.270 OA
ATOM     38  C   LIG    1       10.383  -1.066 -15.409  0.00  0.00    +0.048 C 
ATOM     39  C   LIG    1        9.943  -0.342 -16.456  0.00  0.00    +0.039 C 
ATOM     40  C   LIG    1       10.248  -0.650 -14.000  0.00  0.00    +0.008 A 
ATOM     41  C   LIG    1        9.721   0.469 -13.383  0.00  0.00    +0.012 A 
ATOM     42  C   LIG    1        9.744   0.534 -11.977  0.00  0.00    +0.024 A 
BRANCH  39  43
ATOM     43  C   LIG    1       10.046  -0.665 -17.835  0.00  0.00    +0.040 A 
ATOM     44  N   LIG    1       10.026  -1.967 -18.279  0.00  0.00    -0.361 N 
ATOM     45  H   LIG    1       10.009  -2.787 -17.682  0.00  0.00    +0.165 HD
ATOM     46  C   LIG    1       10.136  -2.001 -19.645  0.00  0.00    +0.083 A 
ATOM     47  C   LIG    1       10.183  -0.705 -20.099  0.00  0.00    +0.019 A 
ATOM     48  C   LIG    1       10.111   0.137 -18.962  0.00  0.00    +0.027 A 
ENDBRANCH  39  43
ENDBRANCH  29  31
ENDBRANCH   3  29
TORSDOF 8
