REMARK  Name = pdb/CHEMBL3951602.pdb
REMARK                            x       y       z     vdW  Elec       q    Type
REMARK                         _______ _______ _______ _____ _____    ______ ____
ROOT
ATOM      1  C   LIG    1        4.780  -0.745   1.526  0.00  0.00    +0.086 A 
ATOM      2  C   LIG    1        4.527   0.289   0.624  0.00  0.00    +0.042 A 
ATOM      3  C   LIG    1        3.594   0.121  -0.408  0.00  0.00    +0.042 A 
ATOM      4  C   LIG    1        2.947  -1.100  -0.511  0.00  0.00    +0.122 A 
ATOM      5  N   LIG    1        3.234  -2.166   0.283  0.00  0.00    -0.260 NA
ATOM      6  C   LIG    1        4.149  -1.963   1.266  0.00  0.00    +0.138 A 
ENDROOT
BRANCH   1   8
ATOM      7  C   LIG    1        5.784   0.320   3.429  0.00  0.00    +0.210 C 
ATOM      8  N   LIG    1        5.693  -0.659   2.585  0.00  0.00    -0.214 NA
BRANCH   7   9
ATOM      9  O   LIG    1        6.768   0.192   4.347  0.00  0.00    -0.494 OA
ATOM     10  H   LIG    1        6.880   0.962   4.939  0.00  0.00    +0.293 HD
ENDBRANCH   7   9
BRANCH   7  11
ATOM     11  C   LIG    1        4.992   1.613   3.483  0.00  0.00    +0.240 C 
BRANCH  11  15
ATOM     12  C   LIG    1        4.438   2.276   6.948  0.00  0.00    +0.085 A 
ATOM     13  N   LIG    1        5.637   2.895   6.690  0.00  0.00    -0.134 NA
ATOM     14  N   LIG    1        5.884   2.802   5.390  0.00  0.00    -0.065 NA
ATOM     15  N   LIG    1        4.858   2.133   4.832  0.00  0.00    -0.242 N 
ATOM     16  C   LIG    1        3.890   1.861   5.749  0.00  0.00    +0.134 A 
BRANCH  12  18
ATOM     17  C   LIG    1        2.434   1.937   8.435  0.00  0.00    +0.014 C 
ATOM     18  C   LIG    1        3.955   2.083   8.354  0.00  0.00    +0.035 C 
ATOM     19  C   LIG    1        4.607   0.854   8.999  0.00  0.00    +0.014 C 
ENDBRANCH  12  18
ENDBRANCH  11  15
ENDBRANCH   7  11
ENDBRANCH   1   8
BRANCH   3  20
ATOM     20  C   LIG    1        3.219   1.234  -1.340  0.00  0.00    +0.197 C 
ATOM     21  O   LIG    1        2.063   1.340  -1.686  0.00  0.00    -0.287 OA
BRANCH  20  22
ATOM     22  C   LIG    1        4.257   2.175  -1.766  0.00  0.00    +0.049 A 
ATOM     23  C   LIG    1        4.130   3.568  -2.102  0.00  0.00    +0.029 A 
ATOM     24  C   LIG    1        3.049   4.457  -2.224  0.00  0.00    +0.121 A 
ATOM     25  N   LIG    1        3.256   5.795  -2.321  0.00  0.00    -0.263 NA
ATOM     26  C   LIG    1        4.518   6.260  -2.366  0.00  0.00    +0.113 A 
ATOM     27  C   LIG    1        5.642   5.456  -2.410  0.00  0.00    +0.046 A 
ATOM     28  C   LIG    1        5.428   4.076  -2.287  0.00  0.00    +0.053 A 
ATOM     29  N   LIG    1        6.282   2.983  -2.366  0.00  0.00    -0.338 N 
ATOM     30  C   LIG    1        5.601   1.877  -1.915  0.00  0.00    +0.099 A 
BRANCH  29  31
ATOM     31  C   LIG    1        7.642   2.966  -2.967  0.00  0.00    +0.063 C 
ATOM     32  C   LIG    1        7.556   3.460  -4.430  0.00  0.00    +0.036 C 
ATOM     33  C   LIG    1        8.230   1.529  -3.038  0.00  0.00    +0.036 C 
BRANCH  31  34
ATOM     34  C   LIG    1        8.621   3.838  -2.141  0.00  0.00    +0.183 C 
BRANCH  34  35
ATOM     35  O   LIG    1        9.940   3.841  -2.688  0.00  0.00    -0.393 OA
ATOM     36  H   LIG    1       10.465   3.174  -2.213  0.00  0.00    +0.209 HD
ENDBRANCH  34  35
ENDBRANCH  31  34
ENDBRANCH  29  31
ENDBRANCH  20  22
ENDBRANCH   3  20
TORSDOF 10
