REMARK  Name = pdb/CHEMBL3676047.pdb
REMARK                            x       y       z     vdW  Elec       q    Type
REMARK                         _______ _______ _______ _____ _____    ______ ____
ROOT
ATOM      1  C   UNK A  0        8.135   1.651   2.052  0.00  0.00    +0.100 A 
ATOM      2  C   UNK A  0        9.027   2.709   1.865  0.00  0.00    +0.170 A 
ATOM      3  N   UNK A  0        8.870   4.074   1.783  0.00  0.00    -0.212 NA
ATOM      4  C   UNK A  0        9.950   4.807   1.590  0.00  0.00    +0.126 A 
ATOM      5  C   UNK A  0       11.337   4.213   1.580  0.00  0.00    +0.063 A 
ATOM      6  C   UNK A  0       11.432   2.883   1.645  0.00  0.00    +0.118 A 
ATOM      7  N   UNK A  0       10.290   2.110   1.752  0.00  0.00    -0.221 N 
ATOM      8  N   UNK A  0       10.232   0.760   1.789  0.00  0.00    -0.173 NA
ATOM      9  C   UNK A  0        8.941   0.497   1.954  0.00  0.00    +0.150 A 
ENDROOT
BRANCH   4  10
ATOM     10  N   UNK A  0        9.867   6.179   1.386  0.00  0.00    -0.308 N 
ATOM     11  C   UNK A  0        8.689   6.961   1.803  0.00  0.00    +0.108 C 
ATOM     12  C   UNK A  0        8.287   7.701   0.520  0.00  0.00    +0.029 C 
ATOM     13  C   UNK A  0        9.619   8.008  -0.144  0.00  0.00    +0.021 C 
ATOM     14  C   UNK A  0       10.443   6.758   0.153  0.00  0.00    +0.107 C 
BRANCH  11  15
ATOM     15  C   UNK A  0        9.050   7.896   2.950  0.00  0.00    +0.011 A 
ATOM     16  C   UNK A  0        8.063   8.303   3.857  0.00  0.00    +0.129 A 
ATOM     17  F   UNK A  0        6.805   7.862   3.716  0.00  0.00    -0.205 F 
ATOM     18  C   UNK A  0        8.351   9.163   4.923  0.00  0.00    +0.041 A 
ATOM     19  C   UNK A  0        9.647   9.646   5.095  0.00  0.00    +0.041 A 
ATOM     20  C   UNK A  0       10.635   9.260   4.201  0.00  0.00    +0.124 A 
ATOM     21  F   UNK A  0       11.882   9.723   4.350  0.00  0.00    -0.205 F 
ATOM     22  C   UNK A  0       10.351   8.398   3.145  0.00  0.00    +0.046 A 
ENDBRANCH  11  15
ENDBRANCH   4  10
BRANCH   1  25
ATOM     23  N   VAL A  1        6.195   2.782   2.850  0.00  0.00    -0.306 N 
ATOM     24  H   VAL A  1        6.852   3.547   3.033  0.00  0.00    +0.149 HD
ATOM     25  C   UNK A  0        6.705   1.638   2.303  0.00  0.00    +0.249 C 
ATOM     26  O   UNK A  0        6.023   0.625   2.093  0.00  0.00    -0.270 OA
BRANCH  23  27
ATOM     27  CA  VAL A  1        4.794   2.910   3.292  0.00  0.00    +0.101 C 
BRANCH  27  29
ATOM     28  CG1 VAL A  1        5.315   3.277   5.797  0.00  0.00    +0.009 C 
ATOM     29  CB  VAL A  1        4.602   2.403   4.759  0.00  0.00    +0.005 C 
ATOM     30  CG2 VAL A  1        3.126   2.258   5.169  0.00  0.00    +0.009 C 
ENDBRANCH  27  29
BRANCH  27  31
ATOM     31  C   VAL A  1        4.317   4.354   3.066  0.00  0.00    +0.178 C 
BRANCH  31  32
ATOM     32  O   VAL A  1        4.549   4.772   1.718  0.00  0.00    -0.393 OA
ATOM     33  H   VAL A  1        5.514   4.736   1.576  0.00  0.00    +0.209 HD
ENDBRANCH  31  32
ENDBRANCH  27  31
ENDBRANCH  23  27
ENDBRANCH   1  25
TORSDOF 7
