REMARK  Name = pdb/CHEMBL3904952.pdb
REMARK                            x       y       z     vdW  Elec       q    Type
REMARK                         _______ _______ _______ _____ _____    ______ ____
ROOT
ATOM      1  C   LIG    1        2.189  -2.636   0.142  0.00  0.00    +0.126 A 
ATOM      2  N   LIG    1        1.695  -1.642  -0.570  0.00  0.00    -0.212 NA
ATOM      3  C   LIG    1        0.978  -1.946  -1.701  0.00  0.00    +0.170 A 
ATOM      4  C   LIG    1        0.228  -1.153  -2.560  0.00  0.00    +0.100 A 
ATOM      5  C   LIG    1       -0.139  -2.046  -3.587  0.00  0.00    +0.150 A 
ATOM      6  N   LIG    1        0.221  -3.308  -3.354  0.00  0.00    -0.173 NA
ATOM      7  N   LIG    1        0.857  -3.253  -2.166  0.00  0.00    -0.221 N 
ATOM      8  C   LIG    1        1.342  -4.310  -1.418  0.00  0.00    +0.118 A 
ATOM      9  C   LIG    1        1.974  -4.079  -0.262  0.00  0.00    +0.063 A 
ENDROOT
BRANCH   1  11
ATOM     10  C   LIG    1        3.178  -0.979   1.770  0.00  0.00    +0.110 C 
ATOM     11  N   LIG    1        2.912  -2.356   1.297  0.00  0.00    -0.308 N 
ATOM     12  C   LIG    1        3.822  -3.301   1.943  0.00  0.00    +0.107 C 
ATOM     13  C   LIG    1        4.895  -2.435   2.587  0.00  0.00    +0.021 C 
ATOM     14  C   LIG    1        4.140  -1.174   2.955  0.00  0.00    +0.029 C 
BRANCH  10  16
ATOM     15  C   LIG    1        1.896   1.168   2.178  0.00  0.00    +0.220 A 
ATOM     16  C   LIG    1        1.940  -0.230   2.205  0.00  0.00    +0.037 A 
ATOM     17  C   LIG    1        0.796  -0.893   2.680  0.00  0.00    +0.050 A 
ATOM     18  C   LIG    1       -0.326  -0.161   3.032  0.00  0.00    +0.142 A 
ATOM     19  F   LIG    1       -1.430  -0.782   3.465  0.00  0.00    -0.204 F 
ATOM     20  C   LIG    1       -0.284   1.215   2.931  0.00  0.00    +0.153 A 
ATOM     21  N   LIG    1        0.812   1.899   2.533  0.00  0.00    -0.218 NA
BRANCH  15  23
ATOM     22  C   LIG    1        2.903   3.254   1.829  0.00  0.00    +0.279 C 
ATOM     23  O   LIG    1        3.045   1.834   1.796  0.00  0.00    -0.479 OA
ENDBRANCH  15  23
ENDBRANCH  10  16
ENDBRANCH   1  11
BRANCH   4  24
ATOM     24  C   LIG    1       -0.010   0.268  -2.402  0.00  0.00    +0.221 C 
ATOM     25  N   LIG    1       -0.988   0.968  -2.822  0.00  0.00    -0.247 NA
BRANCH  25  26
ATOM     26  C   LIG    1       -2.174   0.497  -3.527  0.00  0.00    +0.109 C 
ATOM     27  C   LIG    1       -2.661   1.623  -4.449  0.00  0.00    +0.029 C 
ATOM     28  C   LIG    1       -3.213   2.827  -3.682  0.00  0.00    +0.033 C 
ATOM     29  C   LIG    1       -4.278   2.432  -2.661  0.00  0.00    +0.115 C 
ATOM     30  C   LIG    1       -3.809   1.305  -1.743  0.00  0.00    +0.033 C 
ATOM     31  C   LIG    1       -3.270   0.107  -2.529  0.00  0.00    +0.029 C 
BRANCH  29  32
ATOM     32  O   LIG    1       -5.452   2.019  -3.362  0.00  0.00    -0.392 OA
ATOM     33  H   LIG    1       -6.151   1.891  -2.698  0.00  0.00    +0.210 HD
ENDBRANCH  29  32
ENDBRANCH  25  26
BRANCH  24  34
ATOM     34  O   LIG    1        0.939   0.924  -1.686  0.00  0.00    -0.492 OA
ATOM     35  H   LIG    1        1.567   0.304  -1.273  0.00  0.00    +0.294 HD
ENDBRANCH  24  34
ENDBRANCH   4  24
TORSDOF 7
