REMARK  Name = pdb/CHEMBL3676058.pdb
REMARK                            x       y       z     vdW  Elec       q    Type
REMARK                         _______ _______ _______ _____ _____    ______ ____
ROOT
ATOM      1  C   LIG    1        1.109  -1.404   2.799  0.00  0.00    +0.126 A 
ATOM      2  N   LIG    1        1.496  -0.215   2.382  0.00  0.00    -0.212 NA
ATOM      3  C   LIG    1        1.024   0.893   3.053  0.00  0.00    +0.170 A 
ATOM      4  C   LIG    1        1.157   2.256   2.827  0.00  0.00    +0.100 A 
ATOM      5  C   LIG    1        0.427   2.863   3.870  0.00  0.00    +0.150 A 
ATOM      6  N   LIG    1       -0.134   1.986   4.698  0.00  0.00    -0.173 NA
ATOM      7  N   LIG    1        0.202   0.784   4.179  0.00  0.00    -0.221 N 
ATOM      8  C   LIG    1       -0.209  -0.454   4.630  0.00  0.00    +0.118 A 
ATOM      9  C   LIG    1        0.185  -1.560   3.995  0.00  0.00    +0.063 A 
ENDROOT
BRANCH   1  11
ATOM     10  C   LIG    1        2.463  -2.566   0.984  0.00  0.00    +0.107 C 
ATOM     11  N   LIG    1        1.537  -2.561   2.148  0.00  0.00    -0.308 N 
ATOM     12  C   LIG    1        0.696  -3.767   2.124  0.00  0.00    +0.107 C 
ATOM     13  C   LIG    1        0.893  -4.355   0.739  0.00  0.00    +0.021 C 
ATOM     14  C   LIG    1        2.337  -4.004   0.440  0.00  0.00    +0.029 C 
BRANCH  10  17
ATOM     15  C   LIG    1        4.473  -1.451  -1.074  0.00  0.00    +0.066 C 
ATOM     16  C   LIG    1        4.808  -1.683   0.371  0.00  0.00    +0.043 A 
ATOM     17  C   LIG    1        3.910  -2.229   1.313  0.00  0.00    -0.003 A 
ATOM     18  C   LIG    1        4.428  -2.487   2.596  0.00  0.00    +0.047 A 
ATOM     19  C   LIG    1        5.739  -2.154   2.907  0.00  0.00    +0.142 A 
ATOM     20  F   LIG    1        6.222  -2.378   4.134  0.00  0.00    -0.204 F 
ATOM     21  C   LIG    1        6.531  -1.591   1.933  0.00  0.00    +0.149 A 
ATOM     22  N   LIG    1        6.101  -1.369   0.673  0.00  0.00    -0.257 NA
ENDBRANCH  10  17
ENDBRANCH   1  11
BRANCH   4  23
ATOM     23  C   LIG    1        1.854   2.947   1.766  0.00  0.00    +0.250 C 
ATOM     24  N   LIG    1        2.498   2.133   0.865  0.00  0.00    -0.306 N 
ATOM     25  H   LIG    1        2.435   1.128   1.022  0.00  0.00    +0.150 HD
ATOM     26  O   LIG    1        1.846   4.180   1.695  0.00  0.00    -0.270 OA
BRANCH  24  27
ATOM     27  C   LIG    1        3.235   2.619  -0.267  0.00  0.00    +0.032 C 
ATOM     28  C   LIG    1        4.675   2.169  -0.396  0.00  0.00    +0.027 C 
ATOM     29  C   LIG    1        4.372   3.598  -0.071  0.00  0.00    +0.027 C 
ATOM     30  C   LIG    1        2.416   2.786  -1.523  0.00  0.00    +0.031 C 
ENDBRANCH  24  27
ENDBRANCH   4  23
TORSDOF 4
