REMARK  Name = pdb/CHEMBL3964207.pdb
REMARK                            x       y       z     vdW  Elec       q    Type
REMARK                         _______ _______ _______ _____ _____    ______ ____
ROOT
ATOM      1  C   LIG    1        5.327   2.777   3.294  0.00  0.00    +0.133 A 
ATOM      2  C   LIG    1        4.382   3.677   3.746  0.00  0.00    +0.183 A 
ATOM      3  N   LIG    1        3.229   3.559   4.493  0.00  0.00    -0.211 NA
ATOM      4  C   LIG    1        2.472   4.623   4.678  0.00  0.00    +0.126 A 
ATOM      5  C   LIG    1        2.885   5.977   4.139  0.00  0.00    +0.063 A 
ATOM      6  C   LIG    1        4.017   6.041   3.423  0.00  0.00    +0.118 A 
ATOM      7  N   LIG    1        4.776   4.902   3.204  0.00  0.00    -0.220 N 
ATOM      8  N   LIG    1        5.916   4.812   2.466  0.00  0.00    -0.171 NA
ATOM      9  C   LIG    1        6.208   3.509   2.486  0.00  0.00    +0.165 A 
ENDROOT
BRANCH   4  10
ATOM     10  N   LIG    1        1.249   4.492   5.355  0.00  0.00    -0.308 N 
ATOM     11  C   LIG    1        0.774   5.494   6.333  0.00  0.00    +0.107 C 
ATOM     12  C   LIG    1        0.214   4.648   7.493  0.00  0.00    +0.029 C 
ATOM     13  C   LIG    1       -0.298   3.398   6.805  0.00  0.00    +0.021 C 
ATOM     14  C   LIG    1        0.776   3.150   5.753  0.00  0.00    +0.107 C 
BRANCH  11  15
ATOM     15  C   LIG    1       -0.265   6.470   5.780  0.00  0.00    -0.006 A 
ATOM     16  C   LIG    1       -0.420   7.754   6.350  0.00  0.00    +0.046 A 
ATOM     17 CL   LIG    1        0.542   8.286   7.687  0.00  0.00    -0.083 Cl
ATOM     18  C   LIG    1       -1.373   8.663   5.866  0.00  0.00    +0.023 A 
ATOM     19  C   LIG    1       -2.210   8.306   4.814  0.00  0.00    +0.040 A 
ATOM     20  C   LIG    1       -2.093   7.039   4.262  0.00  0.00    +0.124 A 
ATOM     21  F   LIG    1       -2.920   6.684   3.269  0.00  0.00    -0.205 F 
ATOM     22  C   LIG    1       -1.138   6.128   4.727  0.00  0.00    +0.045 A 
ENDBRANCH  11  15
ENDBRANCH   4  10
BRANCH   1  24
ATOM     23  C   LIG    1        6.351   0.710   3.503  0.00  0.00    +0.283 C 
ATOM     24  N   LIG    1        5.275   1.393   3.477  0.00  0.00    -0.194 NA
BRANCH  23  27
ATOM     25  C   LIG    1       10.058   0.895   3.153  0.00  0.00    +0.133 C 
ATOM     26  C   LIG    1        8.697   0.420   2.619  0.00  0.00    +0.140 C 
ATOM     27  N   LIG    1        7.704   0.994   3.529  0.00  0.00    -0.283 N 
ATOM     28  C   LIG    1        8.358   1.857   4.511  0.00  0.00    +0.112 C 
ATOM     29  C   LIG    1        9.714   2.182   3.882  0.00  0.00    +0.052 C 
BRANCH  25  30
ATOM     30  O   LIG    1       11.012   1.116   2.129  0.00  0.00    -0.390 OA
ATOM     31  H   LIG    1       11.694   0.424   2.204  0.00  0.00    +0.210 HD
ENDBRANCH  25  30
ENDBRANCH  23  27
BRANCH  23  32
ATOM     32  O   LIG    1        6.157  -0.623   3.524  0.00  0.00    -0.481 OA
ATOM     33  H   LIG    1        6.975  -1.095   3.684  0.00  0.00    +0.295 HD
ENDBRANCH  23  32
ENDBRANCH   1  24
TORSDOF 6
