REMARK  Name = pdb/CHEMBL3666427.pdb
REMARK                            x       y       z     vdW  Elec       q    Type
REMARK                         _______ _______ _______ _____ _____    ______ ____
ROOT
ATOM      1  C   LIG    1        3.091  -6.010  -2.997  0.00  0.00    +0.053 A 
ATOM      2  C   LIG    1        2.285  -6.137  -4.131  0.00  0.00    +0.038 A 
ATOM      3  C   LIG    1        2.053  -7.403  -4.684  0.00  0.00    +0.042 A 
ATOM      4  C   LIG    1        2.580  -8.509  -4.033  0.00  0.00    +0.122 A 
ATOM      5  N   LIG    1        3.372  -8.425  -2.939  0.00  0.00    -0.261 NA
ATOM      6  C   LIG    1        3.620  -7.180  -2.456  0.00  0.00    +0.134 A 
ENDROOT
BRANCH   1   8
ATOM      7  C   LIG    1        4.066  -4.391  -1.371  0.00  0.00    +0.267 C 
ATOM      8  N   LIG    1        3.314  -4.717  -2.487  0.00  0.00    -0.279 N 
ATOM      9  H   LIG    1        2.889  -3.919  -2.954  0.00  0.00    +0.155 HD
ATOM     10  O   LIG    1        4.665  -5.176  -0.647  0.00  0.00    -0.268 OA
BRANCH   7  13
ATOM     11  C   LIG    1        4.917  -1.110   0.268  0.00  0.00    -0.044 A 
ATOM     12  C   LIG    1        4.846  -2.478   0.018  0.00  0.00    +0.036 A 
ATOM     13  C   LIG    1        4.119  -2.925  -1.082  0.00  0.00    +0.126 A 
ATOM     14  N   LIG    1        3.450  -2.103  -1.941  0.00  0.00    -0.250 NA
ATOM     15  C   LIG    1        3.533  -0.777  -1.669  0.00  0.00    +0.112 A 
ATOM     16  C   LIG    1        4.244  -0.245  -0.596  0.00  0.00    +0.023 A 
BRANCH  11  18
ATOM     17  C   LIG    1        4.860  -0.504   2.714  0.00  0.00    +0.009 C 
ATOM     18  C   LIG    1        5.702  -0.601   1.450  0.00  0.00    +0.032 C 
ENDBRANCH  11  18
ENDBRANCH   7  13
ENDBRANCH   1   8
BRANCH   3  19
ATOM     19  C   LIG    1        1.252  -7.620  -5.911  0.00  0.00    +0.197 C 
ATOM     20  O   LIG    1        0.569  -8.637  -5.992  0.00  0.00    -0.287 OA
BRANCH  19  21
ATOM     21  C   LIG    1        1.310  -6.654  -7.006  0.00  0.00    +0.051 A 
ATOM     22  C   LIG    1        0.321  -6.450  -8.018  0.00  0.00    +0.048 A 
ATOM     23  C   LIG    1       -0.942  -6.970  -8.301  0.00  0.00    +0.124 A 
ATOM     24  N   LIG    1       -1.644  -6.492  -9.354  0.00  0.00    -0.243 NA
ATOM     25  C   LIG    1       -1.068  -5.535 -10.108  0.00  0.00    +0.223 A 
ATOM     26  N   LIG    1        0.151  -4.983  -9.960  0.00  0.00    -0.218 NA
ATOM     27  C   LIG    1        0.800  -5.482  -8.893  0.00  0.00    +0.145 A 
ATOM     28  N   LIG    1        2.069  -5.142  -8.488  0.00  0.00    -0.329 N 
ATOM     29  C   LIG    1        2.353  -5.791  -7.307  0.00  0.00    +0.100 A 
BRANCH  28  30
ATOM     30  C   LIG    1        2.994  -4.285  -9.232  0.00  0.00    +0.083 C 
ATOM     31  C   LIG    1        4.439  -4.799  -9.181  0.00  0.00    +0.030 C 
ATOM     32  C   LIG    1        2.930  -2.836  -8.754  0.00  0.00    +0.030 C 
ENDBRANCH  28  30
ENDBRANCH  19  21
ENDBRANCH   3  19
TORSDOF 6
