REMARK  Name = pdb/CHEMBL3934727.pdb
REMARK                            x       y       z     vdW  Elec       q    Type
REMARK                         _______ _______ _______ _____ _____    ______ ____
ROOT
ATOM      1  C   UNK A  0        6.822  -4.840   0.112  0.00  0.00    +0.149 A 
ATOM      2  N   UNK A  0        6.129  -5.978  -0.026  0.00  0.00    -0.160 NA
ATOM      3  N   UNK A  0        6.866  -6.751  -0.862  0.00  0.00    -0.218 N 
ATOM      4  C   UNK A  0        7.998  -6.069  -1.326  0.00  0.00    +0.129 A 
ATOM      5  C   UNK A  0        7.983  -4.852  -0.684  0.00  0.00    +0.078 A 
ENDROOT
BRANCH   3   6
ATOM      6  C   UNK A  0        6.398  -8.060  -1.180  0.00  0.00    +0.067 A 
ATOM      7  C   UNK A  0        7.266  -9.082  -1.574  0.00  0.00    +0.028 A 
ATOM      8  C   UNK A  0        6.766 -10.345  -1.910  0.00  0.00    +0.002 A 
ATOM      9  C   UNK A  0        5.400 -10.605  -1.825  0.00  0.00    +0.000 A 
ATOM     10  C   UNK A  0        4.532  -9.607  -1.392  0.00  0.00    +0.002 A 
ATOM     11  C   UNK A  0        5.026  -8.342  -1.063  0.00  0.00    +0.028 A 
ENDBRANCH   3   6
BRANCH   4  12
ATOM     12  N   UNK A  0        8.923  -6.460  -2.295  0.00  0.00    -0.266 N 
ATOM     13  H   UNK A  0        8.767  -7.370  -2.731  0.00  0.00    +0.157 HD
ATOM     14  C   UNK A  0       10.006  -5.654  -2.783  0.00  0.00    +0.251 C 
ATOM     15  O   UNK A  0       10.191  -4.512  -2.344  0.00  0.00    -0.270 OA
BRANCH  14  16
ATOM     16  C   UNK A  0       10.886  -6.200  -3.848  0.00  0.00    +0.056 A 
ATOM     17  C   UNK A  0       10.738  -7.455  -4.454  0.00  0.00    +0.054 A 
ATOM     18 CL   UNK A  0        9.559  -8.631  -4.028  0.00  0.00    -0.083 Cl
ATOM     19  C   UNK A  0       11.585  -7.835  -5.488  0.00  0.00    +0.041 A 
ATOM     20  C   UNK A  0       12.615  -7.000  -5.931  0.00  0.00    +0.052 A 
ATOM     21 CL   UNK A  0       13.548  -7.665  -7.230  0.00  0.00    -0.083 Cl
ATOM     22  C   UNK A  0       12.851  -5.748  -5.321  0.00  0.00    +0.022 A 
ATOM     23  C   UNK A  0       11.948  -5.377  -4.298  0.00  0.00    +0.026 A 
BRANCH  22  24
ATOM     24  C   UNK A  0       13.983  -4.856  -5.693  0.00  0.00    +0.107 A 
ATOM     25  C   UNK A  0       14.656  -4.031  -4.785  0.00  0.00    +0.149 A 
ATOM     26  F   UNK A  0       14.284  -3.946  -3.499  0.00  0.00    -0.203 F 
ATOM     27  C   UNK A  0       15.757  -3.286  -5.201  0.00  0.00    +0.042 A 
ATOM     28  C   UNK A  0       16.180  -3.379  -6.520  0.00  0.00    +0.023 A 
ATOM     29  C   UNK A  0       15.457  -4.191  -7.373  0.00  0.00    +0.111 A 
ATOM     30  N   UNK A  0       14.369  -4.898  -6.992  0.00  0.00    -0.252 NA
ENDBRANCH  22  24
ENDBRANCH  14  16
ENDBRANCH   4  12
BRANCH   1  32
ATOM     31  N   UNK A  1        5.603  -3.922   1.938  0.00  0.00    -0.241 NA
ATOM     32  C   UNK A  0        6.372  -3.726   0.933  0.00  0.00    +0.236 C 
BRANCH  32  33
ATOM     33  O   UNK A  0        6.840  -2.530   0.513  0.00  0.00    -0.491 OA
ATOM     34  H   UNK A  0        6.284  -1.810   0.874  0.00  0.00    +0.294 HD
ENDBRANCH  32  33
BRANCH  31  35
ATOM     35  C   UNK A  1        5.113  -2.819   2.779  0.00  0.00    +0.160 C 
BRANCH  35  36
ATOM     36  C   UNK A  1        4.055  -2.011   2.010  0.00  0.00    +0.188 C 
BRANCH  36  38
ATOM     37  C   UNK A  1        3.714  -0.632   0.132  0.00  0.00    +0.194 C 
ATOM     38  O   UNK A  1        4.684  -1.307   0.928  0.00  0.00    -0.381 OA
ENDBRANCH  36  38
ENDBRANCH  35  36
BRANCH  35  39
ATOM     39  C   UNK A  1        4.455  -3.466   4.012  0.00  0.00    +0.185 C 
BRANCH  39  40
ATOM     40  O   UNK A  1        3.418  -4.360   3.604  0.00  0.00    -0.393 OA
ATOM     41  H   UNK A  1        3.839  -4.942   2.938  0.00  0.00    +0.209 HD
ENDBRANCH  39  40
ENDBRANCH  35  39
ENDBRANCH  31  35
ENDBRANCH   1  32
TORSDOF 11
