REMARK  Name = pdb/CHEMBL2113063.pdb
REMARK                            x       y       z     vdW  Elec       q    Type
REMARK                         _______ _______ _______ _____ _____    ______ ____
ROOT
ATOM      1  C   LIG    1        3.283   1.996  -1.652  0.00  0.00    +0.046 C 
ATOM      2  C   LIG    1        3.775   1.355  -0.363  0.00  0.00    +0.115 C 
ATOM      3  C   LIG    1        5.141   0.616  -0.539  0.00  0.00    +0.175 C 
ATOM      4  N   LIG    1        6.519   1.141   0.032  0.00  0.00    -0.307 N 
ATOM      5  C   LIG    1        7.340   0.218   0.604  0.00  0.00    +0.077 A 
ATOM      6  C   LIG    1        6.918  -0.692   1.544  0.00  0.00    +0.077 A 
ATOM      7  N   LIG    1        5.655  -0.648   2.042  0.00  0.00    -0.311 N 
ATOM      8  C   LIG    1        5.425  -2.119   1.859  0.00  0.00    +0.052 A 
ATOM      9  C   LIG    1        4.176  -2.754   1.628  0.00  0.00    +0.026 A 
ATOM     10  C   LIG    1        4.137  -3.994   0.982  0.00  0.00    +0.002 A 
ATOM     11  C   LIG    1        5.299  -4.682   0.676  0.00  0.00    +0.001 A 
ATOM     12  C   LIG    1        6.546  -4.129   0.966  0.00  0.00    +0.010 A 
ATOM     13  C   LIG    1        6.645  -2.815   1.482  0.00  0.00    +0.008 A 
ATOM     14  C   LIG    1        4.592   0.270   1.713  0.00  0.00    +0.225 C 
ATOM     15  C   LIG    1        7.691  -1.872   1.481  0.00  0.00    +0.022 A 
ATOM     16  C   LIG    1        8.982  -2.082   0.939  0.00  0.00    +0.052 A 
ATOM     17  C   LIG    1        9.889  -3.179   0.676  0.00  0.00    +0.245 C 
ATOM     18  O   LIG    1        9.801  -4.358   0.665  0.00  0.00    -0.270 OA
ATOM     19  N   LIG    1       11.090  -2.499   0.366  0.00  0.00    -0.307 N 
ATOM     20  H   LIG    1       11.923  -3.042   0.198  0.00  0.00    +0.149 HD
ATOM     21  C   LIG    1       11.053  -1.049   0.414  0.00  0.00    +0.141 C 
ATOM     22  C   LIG    1        9.618  -0.876   0.619  0.00  0.00    -0.008 A 
ATOM     23  C   LIG    1        8.696   0.140   0.358  0.00  0.00    +0.015 A 
ATOM     24  C   LIG    1        8.956   1.459   0.061  0.00  0.00    +0.008 A 
ATOM     25  C   LIG    1       10.194   2.151   0.145  0.00  0.00    +0.010 A 
ATOM     26  C   LIG    1       10.239   3.521   0.197  0.00  0.00    +0.001 A 
ATOM     27  C   LIG    1        9.039   4.207   0.084  0.00  0.00    +0.002 A 
ATOM     28  C   LIG    1        7.751   3.563  -0.103  0.00  0.00    +0.026 A 
ATOM     29  C   LIG    1        7.625   2.133  -0.124  0.00  0.00    +0.053 A 
ATOM     30  C   LIG    1        5.227  -0.456  -1.639  0.00  0.00    +0.070 C 
ATOM     31  O   LIG    1        4.562  -0.316   0.438  0.00  0.00    -0.328 OA
ATOM     32  C   LIG    1        4.058   1.731   1.123  0.00  0.00    +0.094 C 
ENDROOT
BRANCH   2  33
ATOM     33  O   LIG    1        2.563   0.432  -0.249  0.00  0.00    -0.384 OA
ATOM     34  H   LIG    1        2.078   0.596   0.576  0.00  0.00    +0.210 HD
ENDBRANCH   2  33
TORSDOF 1
