REMARK  Name = pdb/CHEMBL3963962.pdb
REMARK                            x       y       z     vdW  Elec       q    Type
REMARK                         _______ _______ _______ _____ _____    ______ ____
ROOT
ATOM      1  C   LIG    1        5.406   1.832   0.646  0.00  0.00    +0.149 A 
ATOM      2  N   LIG    1        5.775   2.714   1.590  0.00  0.00    -0.160 NA
ATOM      3  N   LIG    1        4.784   3.657   1.599  0.00  0.00    -0.218 N 
ATOM      4  C   LIG    1        3.928   3.499   0.492  0.00  0.00    +0.129 A 
ATOM      5  C   LIG    1        4.270   2.283  -0.058  0.00  0.00    +0.078 A 
ENDROOT
BRANCH   3   6
ATOM      6  C   LIG    1        4.787   4.667   2.613  0.00  0.00    +0.067 A 
ATOM      7  C   LIG    1        5.983   4.953   3.294  0.00  0.00    +0.028 A 
ATOM      8  C   LIG    1        6.029   5.958   4.268  0.00  0.00    +0.002 A 
ATOM      9  C   LIG    1        4.882   6.680   4.581  0.00  0.00    +0.000 A 
ATOM     10  C   LIG    1        3.681   6.377   3.942  0.00  0.00    +0.002 A 
ATOM     11  C   LIG    1        3.626   5.361   2.976  0.00  0.00    +0.028 A 
ENDBRANCH   3   6
BRANCH   4  12
ATOM     12  N   LIG    1        2.990   4.413  -0.017  0.00  0.00    -0.266 N 
ATOM     13  H   LIG    1        2.927   5.313   0.445  0.00  0.00    +0.157 HD
ATOM     14  C   LIG    1        2.193   4.203  -1.203  0.00  0.00    +0.251 C 
ATOM     15  O   LIG    1        2.310   3.160  -1.846  0.00  0.00    -0.270 OA
BRANCH  14  16
ATOM     16  C   LIG    1        1.238   5.262  -1.655  0.00  0.00    +0.056 A 
ATOM     17  C   LIG    1        1.030   6.483  -1.018  0.00  0.00    +0.054 A 
ATOM     18 CL   LIG    1        1.831   6.989   0.421  0.00  0.00    -0.083 Cl
ATOM     19  C   LIG    1        0.127   7.406  -1.549  0.00  0.00    +0.041 A 
ATOM     20  C   LIG    1       -0.598   7.137  -2.716  0.00  0.00    +0.052 A 
ATOM     21 CL   LIG    1       -1.662   8.413  -3.201  0.00  0.00    -0.083 Cl
ATOM     22  C   LIG    1       -0.458   5.908  -3.384  0.00  0.00    +0.019 A 
ATOM     23  C   LIG    1        0.482   4.994  -2.826  0.00  0.00    +0.026 A 
BRANCH  22  24
ATOM     24  C   LIG    1       -1.246   5.483  -4.573  0.00  0.00    +0.072 A 
ATOM     25  N   LIG    1       -1.525   4.153  -4.618  0.00  0.00    -0.255 NA
ATOM     26  C   LIG    1       -2.277   3.688  -5.645  0.00  0.00    +0.111 A 
ATOM     27  C   LIG    1       -2.779   4.486  -6.655  0.00  0.00    +0.020 A 
ATOM     28  C   LIG    1       -2.474   5.836  -6.622  0.00  0.00    +0.004 A 
ATOM     29  C   LIG    1       -1.690   6.336  -5.583  0.00  0.00    +0.028 A 
ENDBRANCH  22  24
ENDBRANCH  14  16
ENDBRANCH   4  12
BRANCH   1  30
ATOM     30  C   LIG    1        6.197   0.632   0.376  0.00  0.00    +0.236 C 
ATOM     31  N   LIG    1        5.676  -0.380  -0.215  0.00  0.00    -0.248 NA
BRANCH  30  32
ATOM     32  O   LIG    1        7.488   0.699   0.773  0.00  0.00    -0.491 OA
ATOM     33  H   LIG    1        7.651   1.562   1.196  0.00  0.00    +0.294 HD
ENDBRANCH  30  32
BRANCH  31  34
ATOM     34  C   LIG    1        6.528  -1.552  -0.430  0.00  0.00    +0.162 C 
BRANCH  34  35
ATOM     35  C   LIG    1        6.593  -1.850  -1.905  0.00  0.00    +0.052 C 
ATOM     36  C   LIG    1        7.655  -1.194  -2.672  0.00  0.00    +0.028 C 
ATOM     37  C   LIG    1        7.716  -1.363  -4.002  0.00  0.00    +0.184 C 
ATOM     38  N   LIG    1        6.815  -2.160  -4.656  0.00  0.00    -0.210 N 
ATOM     39  H   LIG    1        6.898  -2.307  -5.653  0.00  0.00    +0.298 HD
ATOM     40  C   LIG    1        5.860  -2.880  -3.989  0.00  0.00    +0.295 C 
ATOM     41  C   LIG    1        5.731  -2.698  -2.508  0.00  0.00    +0.083 C 
BRANCH  40  42
ATOM     42  N   LIG    1        5.097  -3.697  -4.644  0.00  0.00    -0.071 NA
ATOM     43  H   LIG    1        4.448  -4.166  -4.007  0.00  0.00    +0.348 HD
ENDBRANCH  40  42
ENDBRANCH  34  35
ENDBRANCH  31  34
ENDBRANCH   1  30
TORSDOF 9
