REMARK  Name = pdb/CHEMBL3673480.pdb
REMARK                            x       y       z     vdW  Elec       q    Type
REMARK                         _______ _______ _______ _____ _____    ______ ____
ROOT
ATOM      1  N   LIG    1        3.977   1.942  -5.290  0.00  0.00    -0.293 N 
ATOM      2  C   LIG    1        3.853   1.517  -6.590  0.00  0.00    +0.162 A 
ATOM      3  N   LIG    1        4.389   0.411  -7.142  0.00  0.00    -0.235 NA
ATOM      4  C   LIG    1        4.005   0.252  -8.435  0.00  0.00    +0.121 A 
ATOM      5  C   LIG    1        3.184   1.111  -9.176  0.00  0.00    +0.005 A 
ATOM      6  C   LIG    1        2.691   2.260  -8.537  0.00  0.00    +0.041 A 
ATOM      7  C   LIG    1        3.030   2.456  -7.195  0.00  0.00    +0.110 A 
ATOM      8  N   LIG    1        2.679   3.440  -6.301  0.00  0.00    -0.213 NA
ATOM      9  C   LIG    1        3.228   3.092  -5.169  0.00  0.00    +0.195 A 
ENDROOT
BRANCH   5  10
ATOM     10  C   LIG    1        2.822   0.818 -10.550  0.00  0.00    +0.021 A 
ATOM     11  C   LIG    1        3.595   0.106 -11.446  0.00  0.00    +0.116 A 
ATOM     12  N   LIG    1        2.886   0.060 -12.614  0.00  0.00    -0.274 N 
ATOM     13  C   LIG    1        3.296  -0.588 -13.836  0.00  0.00    +0.172 C 
ATOM     14  N   LIG    1        1.702   0.690 -12.546  0.00  0.00    -0.179 NA
ATOM     15  C   LIG    1        1.665   1.153 -11.293  0.00  0.00    +0.143 A 
ENDBRANCH   5  10
BRANCH   9  16
ATOM     16  N   LIG    1        3.082   3.745  -3.995  0.00  0.00    -0.329 N 
ATOM     17  H   LIG    1        2.375   4.477  -4.040  0.00  0.00    +0.145 HD
ATOM     18  H   LIG    1        2.981   3.196  -3.154  0.00  0.00    +0.145 HD
ENDBRANCH   9  16
BRANCH   1  19
ATOM     19  C   LIG    1        4.800   1.299  -4.292  0.00  0.00    +0.161 C 
BRANCH  19  24
ATOM     20  C   LIG    1        3.276  -0.484  -1.286  0.00  0.00    +0.162 A 
ATOM     21  C   LIG    1        2.668  -1.602  -1.878  0.00  0.00    +0.162 A 
ATOM     22  C   LIG    1        2.745  -1.760  -3.267  0.00  0.00    +0.050 A 
ATOM     23  C   LIG    1        3.418  -0.819  -4.055  0.00  0.00    +0.009 A 
ATOM     24  C   LIG    1        4.028   0.298  -3.470  0.00  0.00    -0.024 A 
ATOM     25  C   LIG    1        3.957   0.445  -2.080  0.00  0.00    +0.054 A 
BRANCH  20  27
ATOM     26  C   LIG    1        3.115   0.946   0.586  0.00  0.00    +0.277 C 
ATOM     27  O   LIG    1        3.271  -0.373   0.078  0.00  0.00    -0.491 OA
ENDBRANCH  20  27
BRANCH  21  28
ATOM     28  O   LIG    1        1.999  -2.601  -1.211  0.00  0.00    -0.482 OA
BRANCH  28  29
ATOM     29  C   LIG    1        1.453  -2.236   0.067  0.00  0.00    +0.285 C 
BRANCH  29  30
ATOM     30  C   LIG    1        0.336  -3.136   0.472  0.00  0.00    +0.086 A 
ATOM     31  N   LIG    1       -0.789  -3.175  -0.330  0.00  0.00    -0.246 NA
ATOM     32  C   LIG    1       -1.644  -4.052   0.138  0.00  0.00    +0.076 A 
ATOM     33  C   LIG    1       -2.900  -4.412  -0.563  0.00  0.00    +0.073 C 
ATOM     34  S   LIG    1       -1.212  -4.785   1.628  0.00  0.00    -0.080 S 
ATOM     35  C   LIG    1        0.267  -3.921   1.608  0.00  0.00    +0.073 A 
ENDBRANCH  29  30
ENDBRANCH  28  29
ENDBRANCH  21  28
ENDBRANCH  19  24
ENDBRANCH   1  19
TORSDOF 8
