REMARK  Name = pdb/CHEMBL3298164.pdb
REMARK                            x       y       z     vdW  Elec       q    Type
REMARK                         _______ _______ _______ _____ _____    ______ ____
ROOT
ATOM      1  C   LIG    1        6.551  -2.008  -2.113  0.00  0.00    +0.080 A 
ATOM      2  C   LIG    1        6.167  -3.335  -1.763  0.00  0.00    +0.027 A 
ATOM      3  C   LIG    1        5.198  -3.916  -0.895  0.00  0.00    +0.045 A 
ATOM      4  C   LIG    1        5.222  -5.298  -1.013  0.00  0.00    +0.128 A 
ATOM      5  N   LIG    1        6.229  -5.595  -1.916  0.00  0.00    -0.331 N 
ATOM      6  C   LIG    1        6.807  -4.417  -2.382  0.00  0.00    +0.053 A 
ATOM      7  C   LIG    1        7.829  -4.209  -3.313  0.00  0.00    +0.046 A 
ATOM      8  C   LIG    1        8.135  -2.890  -3.595  0.00  0.00    +0.113 A 
ATOM      9  N   LIG    1        7.530  -1.825  -3.041  0.00  0.00    -0.254 NA
ENDROOT
BRANCH   1  12
ATOM     10  C   LIG    1        4.851   0.438   0.268  0.00  0.00    +0.121 A 
ATOM     11  C   LIG    1        5.453  -0.711  -0.264  0.00  0.00    +0.055 A 
ATOM     12  C   LIG    1        5.930  -0.782  -1.576  0.00  0.00    +0.004 A 
ATOM     13  C   LIG    1        5.829   0.389  -2.344  0.00  0.00    +0.010 A 
ATOM     14  C   LIG    1        5.248   1.556  -1.830  0.00  0.00    +0.004 A 
ATOM     15  C   LIG    1        4.739   1.574  -0.529  0.00  0.00    +0.045 A 
BRANCH  10  16
ATOM     16  O   LIG    1        4.342   0.502   1.545  0.00  0.00    -0.492 OA
BRANCH  16  18
ATOM     17  C   LIG    1        4.291  -0.378   3.814  0.00  0.00    +0.048 C 
ATOM     18  C   LIG    1        4.951  -0.423   2.454  0.00  0.00    +0.225 C 
ENDBRANCH  16  18
ENDBRANCH  10  16
ENDBRANCH   1  12
BRANCH   4  19
ATOM     19  C   LIG    1        4.383  -6.248  -0.314  0.00  0.00    +0.353 C 
ATOM     20  O   LIG    1        4.726  -7.333   0.101  0.00  0.00    -0.243 OA
BRANCH  19  21
ATOM     21  O   LIG    1        3.115  -5.773  -0.187  0.00  0.00    -0.476 OA
ATOM     22  H   LIG    1        2.957  -4.962  -0.702  0.00  0.00    +0.295 HD
ENDBRANCH  19  21
ENDBRANCH   4  19
BRANCH   5  23
ATOM     23  C   LIG    1        6.507  -6.917  -2.475  0.00  0.00    +0.163 C 
BRANCH  23  24
ATOM     24  C   LIG    1        7.556  -7.762  -1.743  0.00  0.00    +0.250 C 
BRANCH  24  25
ATOM     25  O   LIG    1        8.854  -7.159  -1.740  0.00  0.00    -0.490 OA
BRANCH  25  26
ATOM     26  C   LIG    1        9.170  -6.335  -0.693  0.00  0.00    +0.121 A 
ATOM     27  C   LIG    1       10.345  -5.593  -0.849  0.00  0.00    +0.047 A 
ATOM     28  C   LIG    1       10.725  -4.655   0.116  0.00  0.00    +0.023 A 
ATOM     29  C   LIG    1        9.936  -4.471   1.248  0.00  0.00    +0.041 A 
ATOM     30 CL   LIG    1       10.377  -3.305   2.432  0.00  0.00    -0.084 Cl
ATOM     31  C   LIG    1        8.779  -5.220   1.424  0.00  0.00    +0.023 A 
ATOM     32  C   LIG    1        8.404  -6.156   0.460  0.00  0.00    +0.047 A 
ENDBRANCH  25  26
ENDBRANCH  24  25
ENDBRANCH  23  24
ENDBRANCH   5  23
TORSDOF 9
