REMARK  Name = pdb/CHEMBL3966928.pdb
REMARK                            x       y       z     vdW  Elec       q    Type
REMARK                         _______ _______ _______ _____ _____    ______ ____
ROOT
ATOM      1  C   LIG    1        4.812   1.160  -0.572  0.00  0.00    +0.148 A 
ATOM      2  N   LIG    1        5.721   2.201  -0.641  0.00  0.00    -0.197 N 
ATOM      3  N   LIG    1        5.436   3.545  -0.529  0.00  0.00    -0.148 NA
ATOM      4  C   LIG    1        6.474   4.342  -0.645  0.00  0.00    +0.143 A 
ATOM      5  C   LIG    1        7.863   3.799  -0.877  0.00  0.00    +0.049 A 
ATOM      6  C   LIG    1        8.058   2.481  -0.972  0.00  0.00    +0.051 A 
ATOM      7  C   LIG    1        6.958   1.618  -0.854  0.00  0.00    +0.156 A 
ATOM      8  N   LIG    1        6.891   0.306  -0.913  0.00  0.00    -0.233 NA
ATOM      9  C   LIG    1        5.564   0.014  -0.733  0.00  0.00    +0.157 A 
ENDROOT
BRANCH   4  10
ATOM     10  N   LIG    1        6.300   5.724  -0.542  0.00  0.00    -0.307 N 
ATOM     11  C   LIG    1        7.180   6.699  -1.225  0.00  0.00    +0.108 C 
ATOM     12  C   LIG    1        6.250   7.845  -1.666  0.00  0.00    +0.029 C 
ATOM     13  C   LIG    1        4.847   7.283  -1.507  0.00  0.00    +0.021 C 
ATOM     14  C   LIG    1        4.990   6.339  -0.326  0.00  0.00    +0.107 C 
BRANCH  11  15
ATOM     15  C   LIG    1        8.290   7.205  -0.326  0.00  0.00    +0.011 A 
ATOM     16  C   LIG    1        9.484   7.660  -0.902  0.00  0.00    +0.129 A 
ATOM     17  F   LIG    1        9.628   7.637  -2.234  0.00  0.00    -0.205 F 
ATOM     18  C   LIG    1       10.539   8.139  -0.125  0.00  0.00    +0.041 A 
ATOM     19  C   LIG    1       10.410   8.181   1.261  0.00  0.00    +0.041 A 
ATOM     20  C   LIG    1        9.223   7.756   1.846  0.00  0.00    +0.124 A 
ATOM     21  F   LIG    1        9.088   7.813   3.177  0.00  0.00    -0.205 F 
ATOM     22  C   LIG    1        8.169   7.275   1.071  0.00  0.00    +0.046 A 
ENDBRANCH  11  15
ENDBRANCH   4  10
BRANCH   1  23
ATOM     23  N   LIG    1        3.477   1.366  -0.430  0.00  0.00    -0.253 N 
ATOM     24  H   LIG    1        3.140   2.325  -0.485  0.00  0.00    +0.158 HD
BRANCH  23  25
ATOM     25  C   LIG    1        2.486   0.439  -0.356  0.00  0.00    +0.286 C 
ATOM     26  N   LIG    1        2.574  -0.779   0.089  0.00  0.00    -0.199 NA
BRANCH  26  27
ATOM     27  C   LIG    1        1.487  -1.639   0.302  0.00  0.00    +0.069 A 
ATOM     28  C   LIG    1        0.237  -1.205   0.766  0.00  0.00    +0.028 A 
ATOM     29  C   LIG    1       -0.809  -2.104   0.986  0.00  0.00    +0.002 A 
ATOM     30  C   LIG    1       -0.600  -3.469   0.818  0.00  0.00    +0.000 A 
ATOM     31  C   LIG    1        0.658  -3.930   0.437  0.00  0.00    +0.002 A 
ATOM     32  C   LIG    1        1.691  -3.021   0.178  0.00  0.00    +0.028 A 
ENDBRANCH  26  27
BRANCH  25  33
ATOM     33  O   LIG    1        1.349   0.959  -0.854  0.00  0.00    -0.481 OA
ATOM     34  H   LIG    1        0.740   0.243  -1.085  0.00  0.00    +0.295 HD
ENDBRANCH  25  33
ENDBRANCH  23  25
ENDBRANCH   1  23
TORSDOF 6
