REMARK  Name = pdb/CHEMBL3675956.pdb
REMARK                            x       y       z     vdW  Elec       q    Type
REMARK                         _______ _______ _______ _____ _____    ______ ____
ROOT
ATOM      1  C   LIG    1        4.705   3.399   1.634  0.00  0.00    +0.100 A 
ATOM      2  C   LIG    1        4.137   4.589   1.220  0.00  0.00    +0.170 A 
ATOM      3  N   LIG    1        3.077   4.878   0.399  0.00  0.00    -0.212 NA
ATOM      4  C   LIG    1        2.792   6.146   0.160  0.00  0.00    +0.126 A 
ATOM      5  C   LIG    1        3.606   7.271   0.757  0.00  0.00    +0.063 A 
ATOM      6  C   LIG    1        4.617   6.935   1.563  0.00  0.00    +0.118 A 
ATOM      7  N   LIG    1        4.903   5.603   1.807  0.00  0.00    -0.221 N 
ATOM      8  N   LIG    1        5.899   5.115   2.581  0.00  0.00    -0.173 NA
ATOM      9  C   LIG    1        5.794   3.797   2.451  0.00  0.00    +0.150 A 
ENDROOT
BRANCH   4  10
ATOM     10  N   LIG    1        1.711   6.454  -0.662  0.00  0.00    -0.308 N 
ATOM     11  C   LIG    1        0.886   7.665  -0.472  0.00  0.00    +0.107 C 
ATOM     12  C   LIG    1       -0.547   7.164  -0.720  0.00  0.00    +0.029 C 
ATOM     13  C   LIG    1       -0.365   6.059  -1.745  0.00  0.00    +0.021 C 
ATOM     14  C   LIG    1        0.913   5.380  -1.270  0.00  0.00    +0.107 C 
BRANCH  11  15
ATOM     15  C   LIG    1        1.260   8.808  -1.407  0.00  0.00    -0.001 A 
ATOM     16  CA  LIG    1        0.977  10.154  -1.087  0.00  0.00    +0.072 A 
ATOM     17  N   LIG    1        1.296  11.193  -1.914  0.00  0.00    -0.254 NA
ATOM     18  C   LIG    1        1.897  10.906  -3.090  0.00  0.00    +0.149 A 
ATOM     19  C   LIG    1        2.179   9.621  -3.497  0.00  0.00    +0.142 A 
ATOM     20  F   LIG    1        2.742   9.389  -4.689  0.00  0.00    -0.204 F 
ATOM     21  C   LIG    1        1.862   8.566  -2.655  0.00  0.00    +0.047 A 
BRANCH  16  22
ATOM     22  C   LIG    1        0.323  10.562   0.214  0.00  0.00    +0.211 C 
BRANCH  22  23
ATOM     23  O   LIG    1        1.312  10.694   1.229  0.00  0.00    -0.389 OA
ATOM     24  H   LIG    1        0.841  10.879   2.060  0.00  0.00    +0.210 HD
ENDBRANCH  22  23
ENDBRANCH  16  22
ENDBRANCH  11  15
ENDBRANCH   4  10
BRANCH   1  27
ATOM     25  N   LIG    1        3.028   1.804   1.057  0.00  0.00    -0.304 N 
ATOM     26  H   LIG    1        2.435   2.639   1.023  0.00  0.00    +0.150 HD
ATOM     27  C   LIG    1        4.361   2.004   1.342  0.00  0.00    +0.250 C 
ATOM     28  O   LIG    1        5.180   1.105   1.390  0.00  0.00    -0.270 OA
BRANCH  25  30
ATOM     29  C   LIG    1        3.010  -0.122  -0.491  0.00  0.00    +0.034 C 
ATOM     30  C   LIG    1        2.409   0.488   0.785  0.00  0.00    +0.057 C 
ATOM     31  C   LIG    1        0.902   0.704   0.561  0.00  0.00    +0.034 C 
BRANCH  30  32
ATOM     32  C   LIG    1        2.576  -0.523   1.947  0.00  0.00    +0.238 C 
ATOM     33  F   LIG    1        2.032  -0.014   3.088  0.00  0.00    -0.247 F 
ENDBRANCH  30  32
ENDBRANCH  25  30
ENDBRANCH   1  27
TORSDOF 7
