REMARK  Name = pdb/CHEMBL3676052.pdb
REMARK                            x       y       z     vdW  Elec       q    Type
REMARK                         _______ _______ _______ _____ _____    ______ ____
ROOT
ATOM      1  C   LIG    1        5.125   2.747  -1.498  0.00  0.00    +0.100 A 
ATOM      2  C   LIG    1        4.946   4.063  -1.080  0.00  0.00    +0.170 A 
ATOM      3  N   LIG    1        4.135   4.639  -0.132  0.00  0.00    -0.212 NA
ATOM      4  C   LIG    1        4.178   5.952   0.011  0.00  0.00    +0.126 A 
ATOM      5  C   LIG    1        5.091   6.815  -0.826  0.00  0.00    +0.063 A 
ATOM      6  C   LIG    1        5.856   6.205  -1.732  0.00  0.00    +0.118 A 
ATOM      7  N   LIG    1        5.801   4.832  -1.877  0.00  0.00    -0.221 N 
ATOM      8  N   LIG    1        6.506   4.085  -2.755  0.00  0.00    -0.173 NA
ATOM      9  C   LIG    1        6.089   2.846  -2.530  0.00  0.00    +0.150 A 
ENDROOT
BRANCH   4  10
ATOM     10  N   LIG    1        3.357   6.560   0.949  0.00  0.00    -0.308 N 
ATOM     11  C   LIG    1        3.543   7.924   1.470  0.00  0.00    +0.107 C 
ATOM     12  C   LIG    1        3.054   7.802   2.920  0.00  0.00    +0.029 C 
ATOM     13  C   LIG    1        1.925   6.789   2.830  0.00  0.00    +0.021 C 
ATOM     14  C   LIG    1        2.435   5.792   1.792  0.00  0.00    +0.107 C 
BRANCH  11  15
ATOM     15  C   LIG    1        2.771   8.967   0.670  0.00  0.00    -0.003 A 
ATOM     16  C   LIG    1        3.129  10.330   0.657  0.00  0.00    +0.043 A 
ATOM     17  C   LIG    1        4.349  10.866   1.351  0.00  0.00    +0.066 C 
ATOM     18  N   LIG    1        2.405  11.278  -0.002  0.00  0.00    -0.257 NA
ATOM     19  C   LIG    1        1.298  10.883  -0.669  0.00  0.00    +0.149 A 
ATOM     20  C   LIG    1        0.883   9.574  -0.727  0.00  0.00    +0.142 A 
ATOM     21  F   LIG    1       -0.224   9.232  -1.398  0.00  0.00    -0.204 F 
ATOM     22  C   LIG    1        1.623   8.610  -0.064  0.00  0.00    +0.047 A 
ENDBRANCH  11  15
ENDBRANCH   4  10
BRANCH   1  25
ATOM     23  N   LIG    1        3.583   1.645  -0.024  0.00  0.00    -0.309 N 
ATOM     24  H   LIG    1        3.527   2.555   0.441  0.00  0.00    +0.149 HD
ATOM     25  C   LIG    1        4.483   1.523  -1.056  0.00  0.00    +0.249 C 
ATOM     26  O   LIG    1        4.739   0.439  -1.595  0.00  0.00    -0.270 OA
BRANCH  23  28
ATOM     27  C   LIG    1        3.620  -0.163   1.650  0.00  0.00    +0.027 C 
ATOM     28  C   LIG    1        2.853   0.500   0.508  0.00  0.00    +0.067 C 
ATOM     29  C   LIG    1        1.452   0.891   0.967  0.00  0.00    +0.027 C 
ENDBRANCH  23  28
ENDBRANCH   1  25
TORSDOF 4
