REMARK  Name = pdb/CHEMBL3676104.pdb
REMARK                            x       y       z     vdW  Elec       q    Type
REMARK                         _______ _______ _______ _____ _____    ______ ____
ROOT
ATOM      1  C   LIG    1        2.496  -2.256  -0.239  0.00  0.00    +0.126 A 
ATOM      2  N   LIG    1        2.678  -1.084  -0.827  0.00  0.00    -0.212 NA
ATOM      3  C   LIG    1        2.323  -0.970  -2.144  0.00  0.00    +0.170 A 
ATOM      4  C   LIG    1        2.232   0.143  -2.977  0.00  0.00    +0.101 A 
ATOM      5  C   LIG    1        1.880  -0.399  -4.231  0.00  0.00    +0.150 A 
ATOM      6  N   LIG    1        1.690  -1.712  -4.200  0.00  0.00    -0.173 NA
ATOM      7  N   LIG    1        1.899  -2.053  -2.908  0.00  0.00    -0.221 N 
ATOM      8  C   LIG    1        1.683  -3.278  -2.307  0.00  0.00    +0.118 A 
ATOM      9  C   LIG    1        1.922  -3.433  -1.002  0.00  0.00    +0.063 A 
ENDROOT
BRANCH   1  11
ATOM     10  C   LIG    1        3.430  -1.367   1.952  0.00  0.00    +0.110 C 
ATOM     11  N   LIG    1        2.814  -2.410   1.105  0.00  0.00    -0.308 N 
ATOM     12  C   LIG    1        2.888  -3.712   1.776  0.00  0.00    +0.107 C 
ATOM     13  C   LIG    1        3.771  -3.496   2.996  0.00  0.00    +0.021 C 
ATOM     14  C   LIG    1        3.548  -2.038   3.332  0.00  0.00    +0.029 C 
BRANCH  10  16
ATOM     15  C   LIG    1        3.247   1.116   2.420  0.00  0.00    +0.220 A 
ATOM     16  C   LIG    1        2.628  -0.092   2.079  0.00  0.00    +0.037 A 
ATOM     17  C   LIG    1        1.232  -0.072   1.916  0.00  0.00    +0.050 A 
ATOM     18  C   LIG    1        0.539   1.117   2.059  0.00  0.00    +0.142 A 
ATOM     19  F   LIG    1       -0.785   1.154   1.871  0.00  0.00    -0.204 F 
ATOM     20  C   LIG    1        1.239   2.258   2.388  0.00  0.00    +0.153 A 
ATOM     21  N   LIG    1        2.580   2.282   2.565  0.00  0.00    -0.218 NA
BRANCH  15  23
ATOM     22  C   LIG    1        5.227   2.343   2.945  0.00  0.00    +0.279 C 
ATOM     23  O   LIG    1        4.616   1.109   2.571  0.00  0.00    -0.479 OA
ENDBRANCH  15  23
ENDBRANCH  10  16
ENDBRANCH   1  11
BRANCH   4  24
ATOM     24  C   LIG    1        2.383   1.544  -2.655  0.00  0.00    +0.254 C 
ATOM     25  N   LIG    1        2.842   1.693  -1.308  0.00  0.00    -0.267 N 
ATOM     26  H   LIG    1        3.150   0.853  -0.760  0.00  0.00    +0.157 HD
ATOM     27  O   LIG    1        2.225   2.487  -3.399  0.00  0.00    -0.270 OA
BRANCH  25  28
ATOM     28  C   LIG    1        3.086   2.953  -0.819  0.00  0.00    +0.121 A 
ATOM     29  N   LIG    1        2.238   4.035  -0.845  0.00  0.00    -0.264 N 
ATOM     30  H   LIG    1        1.261   4.064  -1.109  0.00  0.00    +0.190 HD
ATOM     31  N   LIG    1        2.806   5.159  -0.376  0.00  0.00    -0.177 NA
ATOM     32  C   LIG    1        4.036   4.764  -0.025  0.00  0.00    +0.068 A 
ATOM     33  C   LIG    1        4.256   3.392  -0.269  0.00  0.00    +0.068 A 
BRANCH  32  34
ATOM     34  C   LIG    1        5.089   5.699   0.548  0.00  0.00    +0.040 C 
ATOM     35  C   LIG    1        4.648   7.041   1.099  0.00  0.00    +0.010 C 
ATOM     36  C   LIG    1        5.402   6.985  -0.187  0.00  0.00    +0.010 C 
ENDBRANCH  32  34
ENDBRANCH  25  28
ENDBRANCH   4  24
TORSDOF 6
