REMARK  Name = pdb/CHEMBL3326006.pdb
REMARK                            x       y       z     vdW  Elec       q    Type
REMARK                         _______ _______ _______ _____ _____    ______ ____
ROOT
ATOM      1  C   LIG    1       11.072  -0.503   0.392  0.00  0.00    +0.217 A 
ATOM      2  N   LIG    1       10.420  -0.604  -0.779  0.00  0.00    -0.196 NA
ATOM      3  C   LIG    1       10.182  -1.852  -1.190  0.00  0.00    +0.147 A 
ATOM      4  N   LIG    1        9.540  -2.240  -2.352  0.00  0.00    -0.328 N 
ATOM      5  C   LIG    1        9.539  -3.621  -2.422  0.00  0.00    +0.097 A 
ATOM      6  C   LIG    1       10.164  -4.136  -1.293  0.00  0.00    +0.010 A 
ATOM      7  C   LIG    1       10.550  -3.009  -0.505  0.00  0.00    +0.045 A 
ATOM      8  C   LIG    1       11.176  -2.797   0.719  0.00  0.00    +0.126 A 
ATOM      9  N   LIG    1       11.437  -1.550   1.151  0.00  0.00    -0.222 NA
ENDROOT
BRANCH   4  10
ATOM     10  C   LIG    1        8.944  -1.376  -3.391  0.00  0.00    +0.089 C 
ATOM     11  C   LIG    1        7.451  -1.718  -3.600  0.00  0.00    +0.027 C 
ATOM     12  C   LIG    1        6.739  -0.785  -4.578  0.00  0.00    +0.033 C 
ATOM     13  C   LIG    1        6.932   0.680  -4.207  0.00  0.00    +0.115 C 
ATOM     14  C   LIG    1        8.413   1.025  -4.145  0.00  0.00    +0.033 C 
ATOM     15  C   LIG    1        9.132   0.133  -3.145  0.00  0.00    +0.027 C 
BRANCH  13  16
ATOM     16  O   LIG    1        6.286   1.512  -5.162  0.00  0.00    -0.392 OA
ATOM     17  H   LIG    1        6.658   1.319  -6.038  0.00  0.00    +0.210 HD
ENDBRANCH  13  16
ENDBRANCH   4  10
BRANCH   6  18
ATOM     18  C   LIG    1       10.362  -5.569  -1.067  0.00  0.00    -0.016 A 
ATOM     19  C   LIG    1       11.483  -6.048  -0.374  0.00  0.00    +0.009 A 
ATOM     20  C   LIG    1       11.706  -7.427  -0.221  0.00  0.00    +0.005 A 
ATOM     21  C   LIG    1       10.799  -8.362  -0.741  0.00  0.00    -0.033 A 
ATOM     22  C   LIG    1        9.643  -7.878  -1.364  0.00  0.00    +0.005 A 
ATOM     23  C   LIG    1        9.442  -6.506  -1.552  0.00  0.00    +0.009 A 
BRANCH  21  24
ATOM     24  C   LIG    1       11.063  -9.857  -0.608  0.00  0.00    +0.119 C 
BRANCH  24  25
ATOM     25  N   LIG    1       10.519 -10.682  -1.717  0.00  0.00    -0.296 NA
ATOM     26  C   LIG    1       10.755 -12.125  -1.497  0.00  0.00    +0.100 C 
ATOM     27  C   LIG    1       12.249 -12.525  -1.482  0.00  0.00    +0.099 C 
ATOM     28  N   LIG    1       13.051 -12.053  -2.628  0.00  0.00    -0.303 NA
ATOM     29  C   LIG    1       13.064 -13.027  -3.712  0.00  0.00    +0.105 C 
ATOM     30  C   LIG    1       12.650 -10.712  -3.101  0.00  0.00    +0.099 C 
ATOM     31  C   LIG    1       11.149 -10.357  -3.014  0.00  0.00    +0.100 C 
ENDBRANCH  24  25
ENDBRANCH  21  24
ENDBRANCH   6  18
BRANCH   1  32
ATOM     32  N   LIG    1       11.390   0.780   0.801  0.00  0.00    -0.313 N 
ATOM     33  H   LIG    1       11.093   1.409   0.061  0.00  0.00    +0.149 HD
BRANCH  32  34
ATOM     34  C   LIG    1       12.762   0.983   1.278  0.00  0.00    +0.104 C 
BRANCH  34  35
ATOM     35  C   LIG    1       13.802   0.861   0.154  0.00  0.00    +0.018 C 
BRANCH  35  37
ATOM     36  C   LIG    1       15.789   0.523   1.772  0.00  0.00    +0.004 C 
ATOM     37  C   LIG    1       15.252   1.216   0.529  0.00  0.00    -0.002 C 
ENDBRANCH  35  37
ENDBRANCH  34  35
ENDBRANCH  32  34
ENDBRANCH   1  32
TORSDOF 9
