REMARK  Name = pdb/CHEMBL3673478.pdb
REMARK                            x       y       z     vdW  Elec       q    Type
REMARK                         _______ _______ _______ _____ _____    ______ ____
ROOT
ATOM      1  C   LIG    1        5.455  -0.065   1.700  0.00  0.00    +0.162 A 
ATOM      2  C   LIG    1        5.697  -0.864   0.578  0.00  0.00    +0.162 A 
ATOM      3  C   LIG    1        6.375  -2.087   0.765  0.00  0.00    +0.050 A 
ATOM      4  C   LIG    1        6.660  -2.575   2.058  0.00  0.00    +0.009 A 
ATOM      5  C   LIG    1        6.339  -1.812   3.176  0.00  0.00    -0.024 A 
ATOM      6  C   LIG    1        5.808  -0.542   2.949  0.00  0.00    +0.054 A 
ENDROOT
BRANCH   1   8
ATOM      7  C   LIG    1        4.611   2.037   2.623  0.00  0.00    +0.277 C 
ATOM      8  O   LIG    1        4.866   1.147   1.548  0.00  0.00    -0.491 OA
ENDBRANCH   1   8
BRANCH   2   9
ATOM      9  O   LIG    1        5.325  -0.579  -0.714  0.00  0.00    -0.484 OA
BRANCH   9  10
ATOM     10  C   LIG    1        4.148   0.223  -1.032  0.00  0.00    +0.264 C 
BRANCH  10  11
ATOM     11  C   LIG    1        2.997   0.302  -0.026  0.00  0.00    -0.010 A 
ATOM     12  C   LIG    1        2.625  -0.853   0.674  0.00  0.00    +0.007 A 
ATOM     13  C   LIG    1        1.986  -0.758   1.919  0.00  0.00    +0.013 A 
ATOM     14  C   LIG    1        1.614   0.487   2.448  0.00  0.00    +0.055 A 
ATOM     15  C   LIG    1        1.801   1.624   1.641  0.00  0.00    +0.013 A 
ATOM     16  C   LIG    1        2.529   1.547   0.436  0.00  0.00    +0.007 A 
BRANCH  14  17
ATOM     17  C   LIG    1        1.053   0.642   3.850  0.00  0.00    +0.417 C 
ATOM     18  F   LIG    1        1.751   0.016   4.834  0.00  0.00    -0.166 F 
ATOM     19  F   LIG    1       -0.196   0.130   3.950  0.00  0.00    -0.166 F 
ATOM     20  F   LIG    1        0.993   1.935   4.276  0.00  0.00    -0.166 F 
ENDBRANCH  14  17
ENDBRANCH  10  11
ENDBRANCH   9  10
ENDBRANCH   2   9
BRANCH   5  21
ATOM     21  C   LIG    1        6.660  -2.208   4.606  0.00  0.00    +0.161 C 
BRANCH  21  22
ATOM     22  N   LIG    1        5.543  -2.411   5.526  0.00  0.00    -0.293 N 
ATOM     23  C   LIG    1        5.565  -3.219   6.640  0.00  0.00    +0.162 A 
ATOM     24  N   LIG    1        6.537  -4.074   7.018  0.00  0.00    -0.235 NA
ATOM     25  C   LIG    1        6.151  -4.823   8.089  0.00  0.00    +0.121 A 
ATOM     26  C   LIG    1        4.923  -4.768   8.761  0.00  0.00    +0.005 A 
ATOM     27  C   LIG    1        3.996  -3.806   8.354  0.00  0.00    +0.041 A 
ATOM     28  C   LIG    1        4.341  -3.030   7.259  0.00  0.00    +0.110 A 
ATOM     29  N   LIG    1        3.614  -2.090   6.619  0.00  0.00    -0.213 NA
ATOM     30  C   LIG    1        4.302  -1.827   5.605  0.00  0.00    +0.195 A 
BRANCH  26  31
ATOM     31  C   LIG    1        4.578  -5.683   9.819  0.00  0.00    +0.021 A 
ATOM     32  C   LIG    1        3.298  -6.127  10.085  0.00  0.00    +0.116 A 
ATOM     33  N   LIG    1        3.401  -6.963  11.156  0.00  0.00    -0.274 N 
ATOM     34  C   LIG    1        2.308  -7.635  11.814  0.00  0.00    +0.172 C 
ATOM     35  N   LIG    1        4.663  -7.115  11.597  0.00  0.00    -0.179 NA
ATOM     36  C   LIG    1        5.377  -6.335  10.781  0.00  0.00    +0.143 A 
ENDBRANCH  26  31
BRANCH  30  37
ATOM     37  N   LIG    1        3.808  -1.055   4.597  0.00  0.00    -0.329 N 
ATOM     38  H   LIG    1        2.926  -0.685   4.915  0.00  0.00    +0.145 HD
ATOM     39  H   LIG    1        3.699  -1.529   3.718  0.00  0.00    +0.145 HD
ENDBRANCH  30  37
ENDBRANCH  21  22
ENDBRANCH   5  21
TORSDOF 9
