REMARK  Name = pdb/CHEMBL3659501.pdb
REMARK                            x       y       z     vdW  Elec       q    Type
REMARK                         _______ _______ _______ _____ _____    ______ ____
ROOT
ATOM      1  C   LIG    1       -2.121  -4.867  -0.209  0.00  0.00    +0.122 A 
ATOM      2  N   LIG    1       -2.281  -3.608   0.262  0.00  0.00    -0.213 NA
ATOM      3  C   LIG    1       -3.567  -3.201   0.364  0.00  0.00    +0.168 A 
ATOM      4  N   LIG    1       -4.055  -1.964   0.753  0.00  0.00    -0.266 N 
ATOM      5  C   LIG    1       -5.432  -2.066   0.696  0.00  0.00    +0.207 A 
ATOM      6  N   LIG    1       -5.850  -3.242   0.281  0.00  0.00    -0.234 NA
ATOM      7  C   LIG    1       -4.700  -3.947   0.055  0.00  0.00    +0.108 A 
ATOM      8  C   LIG    1       -4.518  -5.243  -0.427  0.00  0.00    +0.035 A 
ATOM      9  C   LIG    1       -3.200  -5.693  -0.556  0.00  0.00    +0.046 A 
ENDROOT
BRANCH   4  10
ATOM     10  C   LIG    1       -3.335  -0.783   1.090  0.00  0.00    +0.165 A 
ATOM     11  N   LIG    1       -4.027   0.340   1.315  0.00  0.00    -0.153 NA
ATOM     12  N   LIG    1       -3.069   1.269   1.493  0.00  0.00    -0.245 N 
ATOM     13  H   LIG    1       -3.338   2.229   1.647  0.00  0.00    +0.192 HD
ATOM     14  C   LIG    1       -1.791   0.769   1.419  0.00  0.00    +0.213 A 
ATOM     15  C   LIG    1       -1.942  -0.579   1.188  0.00  0.00    +0.115 A 
BRANCH  14  16
ATOM     16  O   LIG    1       -0.771   1.624   1.559  0.00  0.00    -0.474 OA
BRANCH  16  17
ATOM     17  C   LIG    1        0.556   1.092   1.557  0.00  0.00    +0.169 C 
ATOM     18  C   LIG    1        1.209   1.467   2.883  0.00  0.00    +0.051 C 
ATOM     19  C   LIG    1        1.328   1.720   0.400  0.00  0.00    +0.051 C 
ENDBRANCH  16  17
ENDBRANCH  14  16
ENDBRANCH   4  10
BRANCH   1  20
ATOM     20  N   LIG    1       -0.835  -5.425  -0.293  0.00  0.00    -0.321 N 
ATOM     21  H   LIG    1       -0.671  -5.859  -1.199  0.00  0.00    +0.148 HD
BRANCH  20  22
ATOM     22  C   LIG    1        0.304  -4.595   0.129  0.00  0.00    +0.120 C 
BRANCH  22  23
ATOM     23  C   LIG    1        1.317  -4.440  -1.020  0.00  0.00    +0.062 A 
ATOM     24  N   LIG    1        1.884  -5.563  -1.549  0.00  0.00    -0.255 NA
ATOM     25  C   LIG    1        2.832  -5.390  -2.507  0.00  0.00    +0.149 A 
ATOM     26  C   LIG    1        3.238  -4.153  -2.974  0.00  0.00    +0.141 A 
ATOM     27  F   LIG    1        4.192  -4.048  -3.908  0.00  0.00    -0.204 F 
ATOM     28  C   LIG    1        2.635  -3.019  -2.460  0.00  0.00    +0.042 A 
ATOM     29  C   LIG    1        1.654  -3.161  -1.477  0.00  0.00    +0.028 A 
ENDBRANCH  22  23
BRANCH  22  31
ATOM     30  C   LIG    1        0.112  -5.329   2.593  0.00  0.00    +0.006 C 
ATOM     31  C   LIG    1        1.001  -5.220   1.358  0.00  0.00    +0.025 C 
ENDBRANCH  22  31
ENDBRANCH  20  22
ENDBRANCH   1  20
TORSDOF 7
