REMARK  Name = pdb/CHEMBL3673486.pdb
REMARK                            x       y       z     vdW  Elec       q    Type
REMARK                         _______ _______ _______ _____ _____    ______ ____
ROOT
ATOM      1  C   LIG    1        4.813 -11.787  -6.598  0.00  0.00    +0.161 C 
ENDROOT
BRANCH   1   2
ATOM      2  N   LIG    1        5.955 -11.483  -7.518  0.00  0.00    -0.293 N 
ATOM      3  C   LIG    1        6.356 -12.373  -8.465  0.00  0.00    +0.162 A 
ATOM      4  N   LIG    1        5.780 -13.541  -8.821  0.00  0.00    -0.235 NA
ATOM      5  C   LIG    1        6.438 -14.144  -9.866  0.00  0.00    +0.121 A 
ATOM      6  C   LIG    1        7.608 -13.712 -10.528  0.00  0.00    +0.002 A 
ATOM      7  C   LIG    1        8.160 -12.514 -10.050  0.00  0.00    +0.041 A 
ATOM      8  C   LIG    1        7.496 -11.832  -9.007  0.00  0.00    +0.110 A 
ATOM      9  N   LIG    1        7.817 -10.647  -8.449  0.00  0.00    -0.213 NA
ATOM     10  C   LIG    1        6.822 -10.428  -7.627  0.00  0.00    +0.195 A 
BRANCH   6  11
ATOM     11  C   LIG    1        8.224 -14.454 -11.672  0.00  0.00    -0.014 A 
ATOM     12  C   LIG    1        9.378 -13.989 -12.330  0.00  0.00    +0.028 A 
ATOM     13  C   LIG    1        9.922 -14.710 -13.388  0.00  0.00    +0.111 A 
ATOM     14  N   LIG    1        9.406 -15.860 -13.852  0.00  0.00    -0.263 NA
ATOM     15  C   LIG    1        8.301 -16.307 -13.230  0.00  0.00    +0.111 A 
ATOM     16  C   LIG    1        7.691 -15.655 -12.163  0.00  0.00    +0.028 A 
ENDBRANCH   6  11
BRANCH  10  17
ATOM     17  N   LIG    1        6.682  -9.267  -6.986  0.00  0.00    -0.329 N 
ATOM     18  H   LIG    1        7.383  -8.528  -7.094  0.00  0.00    +0.145 HD
ATOM     19  H   LIG    1        5.819  -8.890  -6.525  0.00  0.00    +0.145 HD
ENDBRANCH  10  17
ENDBRANCH   1   2
BRANCH   1  23
ATOM     20  C   LIG    1        4.988  -8.688  -3.608  0.00  0.00    +0.162 A 
ATOM     21  C   LIG    1        5.729  -9.872  -3.531  0.00  0.00    +0.162 A 
ATOM     22  C   LIG    1        5.388 -10.972  -4.332  0.00  0.00    +0.054 A 
ATOM     23  C   LIG    1        4.591 -10.823  -5.457  0.00  0.00    -0.024 A 
ATOM     24  C   LIG    1        3.775  -9.693  -5.514  0.00  0.00    +0.009 A 
ATOM     25  C   LIG    1        3.949  -8.653  -4.570  0.00  0.00    +0.050 A 
BRANCH  21  26
ATOM     26  O   LIG    1        6.880  -9.965  -2.782  0.00  0.00    -0.491 OA
ATOM     27  C   LIG    1        7.917 -10.665  -3.492  0.00  0.00    +0.277 C 
ENDBRANCH  21  26
BRANCH  20  28
ATOM     28  O   LIG    1        5.216  -7.505  -2.937  0.00  0.00    -0.484 OA
BRANCH  28  29
ATOM     29  C   LIG    1        6.007  -7.487  -1.733  0.00  0.00    +0.266 C 
BRANCH  29  33
ATOM     30  C   LIG    1        9.925  -5.761  -2.038  0.00  0.00    +0.214 A 
ATOM     31  N   LIG    1        8.924  -5.154  -2.712  0.00  0.00    -0.221 NA
ATOM     32  C   LIG    1        7.683  -5.725  -2.616  0.00  0.00    +0.121 A 
ATOM     33  C   LIG    1        7.386  -6.854  -1.854  0.00  0.00    +0.008 A 
ATOM     34  C   LIG    1        8.449  -7.387  -1.112  0.00  0.00    +0.013 A 
ATOM     35  C   LIG    1        9.741  -6.881  -1.252  0.00  0.00    +0.067 A 
BRANCH  30  37
ATOM     36  C   LIG    1       11.310  -3.905  -2.354  0.00  0.00    +0.279 C 
ATOM     37  O   LIG    1       11.229  -5.308  -2.137  0.00  0.00    -0.480 OA
ENDBRANCH  30  37
ENDBRANCH  29  33
ENDBRANCH  28  29
ENDBRANCH  20  28
ENDBRANCH   1  23
TORSDOF 9
