REMARK  Name = pdb/CHEMBL3671437.pdb
REMARK                            x       y       z     vdW  Elec       q    Type
REMARK                         _______ _______ _______ _____ _____    ______ ____
ROOT
ATOM      1  C   LIG    1        5.447   5.009   0.686  0.00  0.00    +0.042 A 
ATOM      2  C   LIG    1        6.408   5.947   0.264  0.00  0.00    +0.038 A 
ATOM      3  C   LIG    1        6.606   7.141   0.981  0.00  0.00    +0.052 A 
ATOM      4  C   LIG    1        5.842   7.311   2.133  0.00  0.00    +0.134 A 
ATOM      5  N   LIG    1        4.825   6.494   2.492  0.00  0.00    -0.261 NA
ATOM      6  C   LIG    1        4.624   5.404   1.727  0.00  0.00    +0.122 A 
ENDROOT
BRANCH   3   7
ATOM      7  N   LIG    1        7.558   8.079   0.495  0.00  0.00    -0.284 N 
ATOM      8  H   LIG    1        8.004   7.845  -0.384  0.00  0.00    +0.155 HD
ATOM      9  C   LIG    1        7.881   9.306   1.076  0.00  0.00    +0.222 C 
ATOM     10  O   LIG    1        7.376   9.738   2.109  0.00  0.00    -0.275 OA
BRANCH   9  11
ATOM     11  C   LIG    1        8.916  10.111   0.280  0.00  0.00    +0.131 C 
BRANCH  11  12
ATOM     12  C   LIG    1        9.769  11.069   1.094  0.00  0.00    -0.039 A 
ATOM     13  C   LIG    1       10.683  10.578   2.038  0.00  0.00    +0.006 A 
ATOM     14  C   LIG    1       11.576  11.439   2.681  0.00  0.00    +0.025 A 
ATOM     15  C   LIG    1       11.560  12.800   2.397  0.00  0.00    +0.048 A 
ATOM     16  C   LIG    1       10.631  13.317   1.494  0.00  0.00    +0.025 A 
ATOM     17  C   LIG    1        9.740  12.452   0.844  0.00  0.00    +0.006 A 
BRANCH  15  18
ATOM     18  N   LIG    1       12.628  13.621   2.883  0.00  0.00    -0.221 N 
ATOM     19  H   LIG    1       12.375  14.602   3.021  0.00  0.00    +0.173 HD
BRANCH  18  20
ATOM     20  S   LIG    1       14.046  13.564   1.937  0.00  0.00    +0.040 S 
ATOM     21  C   LIG    1       15.194  12.781   3.053  0.00  0.00    +0.218 C 
ATOM     22  O   LIG    1       14.456  14.959   1.796  0.00  0.00    -0.155 OA
ATOM     23  O   LIG    1       13.873  12.716   0.796  0.00  0.00    -0.155 OA
ENDBRANCH  18  20
ENDBRANCH  15  18
ENDBRANCH  11  12
ENDBRANCH   9  11
ENDBRANCH   3   7
BRANCH   1  24
ATOM     24  C   LIG    1        5.328   3.659   0.041  0.00  0.00    +0.197 C 
ATOM     25  O   LIG    1        6.107   3.377  -0.866  0.00  0.00    -0.287 OA
BRANCH  24  33
ATOM     26  N   LIG    1        2.642   1.736   1.678  0.00  0.00    -0.323 N 
ATOM     27  C   LIG    1        2.617   1.167   0.426  0.00  0.00    +0.147 A 
ATOM     28  N   LIG    1        1.749   0.240   0.005  0.00  0.00    -0.197 NA
ATOM     29  C   LIG    1        1.935  -0.132  -1.263  0.00  0.00    +0.214 A 
ATOM     30  N   LIG    1        2.861   0.335  -2.107  0.00  0.00    -0.222 NA
ATOM     31  C   LIG    1        3.707   1.296  -1.662  0.00  0.00    +0.126 A 
ATOM     32  C   LIG    1        3.618   1.745  -0.346  0.00  0.00    +0.048 A 
ATOM     33  C   LIG    1        4.285   2.712   0.460  0.00  0.00    +0.051 A 
ATOM     34  C   LIG    1        3.780   2.516   1.735  0.00  0.00    +0.100 A 
BRANCH  26  36
ATOM     35  C   LIG    1        2.034   2.509   3.961  0.00  0.00    +0.036 C 
ATOM     36  C   LIG    1        1.648   1.580   2.773  0.00  0.00    +0.064 C 
ATOM     37  C   LIG    1        1.609   0.138   3.312  0.00  0.00    +0.036 C 
BRANCH  36  38
ATOM     38  C   LIG    1        0.205   2.000   2.346  0.00  0.00    +0.183 C 
BRANCH  38  39
ATOM     39  O   LIG    1       -0.377   1.227   1.309  0.00  0.00    -0.393 OA
ATOM     40  H   LIG    1        0.144   1.372   0.494  0.00  0.00    +0.209 HD
ENDBRANCH  38  39
ENDBRANCH  36  38
ENDBRANCH  26  36
BRANCH  29  41
ATOM     41  N   LIG    1        1.105  -1.128  -1.735  0.00  0.00    -0.327 N 
ATOM     42  H   LIG    1        0.756  -1.668  -0.954  0.00  0.00    +0.145 HD
ATOM     43  H   LIG    1        1.578  -1.634  -2.470  0.00  0.00    +0.145 HD
ENDBRANCH  29  41
ENDBRANCH  24  33
ENDBRANCH   1  24
TORSDOF 11
