REMARK  Name = pdb/CHEMBL3676078.pdb
REMARK                            x       y       z     vdW  Elec       q    Type
REMARK                         _______ _______ _______ _____ _____    ______ ____
ROOT
ATOM      1  C   LIG    1        4.923  -4.155   1.549  0.00  0.00    +0.100 A 
ATOM      2  C   LIG    1        5.513  -4.353   0.314  0.00  0.00    +0.170 A 
ATOM      3  N   LIG    1        6.178  -3.505  -0.548  0.00  0.00    -0.212 NA
ATOM      4  C   LIG    1        6.653  -4.005  -1.672  0.00  0.00    +0.126 A 
ATOM      5  C   LIG    1        6.475  -5.469  -2.013  0.00  0.00    +0.063 A 
ATOM      6  C   LIG    1        5.799  -6.237  -1.157  0.00  0.00    +0.118 A 
ATOM      7  N   LIG    1        5.313  -5.702   0.016  0.00  0.00    -0.221 N 
ATOM      8  N   LIG    1        4.631  -6.352   0.983  0.00  0.00    -0.173 NA
ATOM      9  C   LIG    1        4.396  -5.412   1.904  0.00  0.00    +0.150 A 
ENDROOT
BRANCH   4  10
ATOM     10  N   LIG    1        7.318  -3.167  -2.565  0.00  0.00    -0.303 N 
ATOM     11  C   LIG    1        7.992  -3.598  -3.801  0.00  0.00    +0.107 C 
ATOM     12  C   LIG    1        8.743  -2.356  -4.296  0.00  0.00    +0.029 C 
ATOM     13  C   LIG    1        7.960  -1.196  -3.702  0.00  0.00    +0.027 C 
ATOM     14  C   LIG    1        7.535  -1.729  -2.323  0.00  0.00    +0.101 C 
BRANCH  11  15
ATOM     15  C   LIG    1        7.031  -4.135  -4.841  0.00  0.00    -0.006 A 
ATOM     16  C   LIG    1        7.426  -5.147  -5.729  0.00  0.00    +0.046 A 
ATOM     17  C   LIG    1        6.496  -5.679  -6.613  0.00  0.00    +0.142 A 
ATOM     18  F   LIG    1        6.846  -6.666  -7.448  0.00  0.00    -0.204 F 
ATOM     19  C   LIG    1        5.205  -5.187  -6.608  0.00  0.00    +0.149 A 
ATOM     20  N   LIG    1        4.791  -4.196  -5.786  0.00  0.00    -0.260 NA
ATOM     21  C   LIG    1        5.709  -3.696  -4.928  0.00  0.00    +0.116 A 
ENDBRANCH  11  15
BRANCH  14  22
ATOM     22  C   LIG    1        8.624  -1.501  -1.257  0.00  0.00    +0.178 C 
BRANCH  22  23
ATOM     23  O   LIG    1        8.839  -0.113  -1.016  0.00  0.00    -0.393 OA
ATOM     24  H   LIG    1        9.388   0.239  -1.737  0.00  0.00    +0.209 HD
ENDBRANCH  22  23
ENDBRANCH  14  22
ENDBRANCH   4  10
BRANCH   1  27
ATOM     25  N   LIG    1        5.474  -1.853   1.804  0.00  0.00    -0.300 N 
ATOM     26  H   LIG    1        5.913  -1.962   0.894  0.00  0.00    +0.150 HD
ATOM     27  C   LIG    1        4.826  -2.946   2.337  0.00  0.00    +0.250 C 
ATOM     28  O   LIG    1        4.215  -2.899   3.387  0.00  0.00    -0.270 OA
BRANCH  25  30
ATOM     29  C   LIG    1        6.164   0.483   1.624  0.00  0.00    +0.037 C 
ATOM     30  C   LIG    1        5.441  -0.555   2.483  0.00  0.00    +0.174 C 
BRANCH  30  31
ATOM     31  C   LIG    1        5.988  -0.557   3.939  0.00  0.00    +0.407 C 
ATOM     32  F   LIG    1        6.533  -1.743   4.295  0.00  0.00    -0.169 F 
ATOM     33  F   LIG    1        5.006  -0.267   4.825  0.00  0.00    -0.169 F 
ATOM     34  F   LIG    1        6.957   0.376   4.112  0.00  0.00    -0.169 F 
ENDBRANCH  30  31
ENDBRANCH  25  30
ENDBRANCH   1  27
TORSDOF 7
