REMARK  Name = pdb/CHEMBL3962074.pdb
REMARK                            x       y       z     vdW  Elec       q    Type
REMARK                         _______ _______ _______ _____ _____    ______ ____
ROOT
ATOM      1  N   LIG    1       11.001  -6.650   0.592  0.00  0.00    -0.196 NA
ATOM      2  C   LIG    1        9.742  -6.960   0.702  0.00  0.00    +0.285 C 
ENDROOT
BRANCH   1   6
ATOM      3  C   LIG    1       12.351  -3.122  -1.117  0.00  0.00    +0.323 A 
ATOM      4  N   LIG    1       11.223  -3.630  -1.627  0.00  0.00    -0.201 NA
ATOM      5  C   LIG    1       10.789  -4.771  -1.043  0.00  0.00    +0.145 A 
ATOM      6  C   LIG    1       11.392  -5.416   0.032  0.00  0.00    +0.105 A 
ATOM      7  C   LIG    1       12.532  -4.771   0.469  0.00  0.00    +0.145 A 
ATOM      8  N   LIG    1       13.019  -3.624  -0.059  0.00  0.00    -0.201 NA
BRANCH   3   9
ATOM      9  O   LIG    1       12.896  -2.057  -1.822  0.00  0.00    -0.424 OA
BRANCH   9  13
ATOM     10  C   LIG    1       17.035  -2.104  -2.538  0.00  0.00    -0.010 A 
ATOM     11  C   LIG    1       16.337  -3.310  -2.404  0.00  0.00    +0.012 A 
ATOM     12  C   LIG    1       14.956  -3.317  -2.211  0.00  0.00    +0.047 A 
ATOM     13  C   LIG    1       14.247  -2.120  -2.087  0.00  0.00    +0.132 A 
ATOM     14  C   LIG    1       14.916  -0.912  -2.269  0.00  0.00    +0.047 A 
ATOM     15  C   LIG    1       16.298  -0.907  -2.488  0.00  0.00    +0.012 A 
BRANCH  10  18
ATOM     16  C   LIG    1       20.977  -1.597  -2.659  0.00  0.00    +0.156 A 
ATOM     17  S   LIG    1       19.478  -0.797  -2.102  0.00  0.00    -0.053 S 
ATOM     18  C   LIG    1       18.489  -2.108  -2.714  0.00  0.00    +0.038 A 
ATOM     19  C   LIG    1       19.260  -3.040  -3.299  0.00  0.00    +0.100 A 
ATOM     20  N   LIG    1       20.604  -2.764  -3.290  0.00  0.00    -0.342 N 
ATOM     21  H   LIG    1       21.267  -3.427  -3.673  0.00  0.00    +0.167 HD
BRANCH  16  22
ATOM     22  N   LIG    1       22.174  -1.168  -2.495  0.00  0.00    -0.229 NA
BRANCH  22  24
ATOM     23  C   LIG    1       23.187   1.005  -2.766  0.00  0.00    +0.026 C 
ATOM     24  C   LIG    1       22.447   0.087  -1.810  0.00  0.00    +0.126 C 
ENDBRANCH  22  24
ENDBRANCH  16  22
ENDBRANCH  10  18
ENDBRANCH   9  13
ENDBRANCH   3   9
ENDBRANCH   1   6
BRANCH   2  25
ATOM     25  N   LIG    1        9.182  -8.126   1.125  0.00  0.00    -0.267 N 
ATOM     26  H   LIG    1        8.170  -8.154   1.121  0.00  0.00    +0.157 HD
BRANCH  25  27
ATOM     27  C   LIG    1        9.677  -9.092   2.044  0.00  0.00    +0.061 A 
ATOM     28  C   LIG    1        8.951 -10.273   2.358  0.00  0.00    +0.092 A 
ATOM     29  N   LIG    1        9.349 -11.119   3.357  0.00  0.00    -0.253 NA
ATOM     30  C   LIG    1       10.490 -10.844   4.032  0.00  0.00    +0.124 A 
ATOM     31  C   LIG    1       11.311  -9.776   3.733  0.00  0.00    +0.075 A 
ATOM     32  C   LIG    1       10.904  -8.921   2.700  0.00  0.00    +0.039 A 
BRANCH  28  33
ATOM     33  C   LIG    1        7.699 -10.717   1.669  0.00  0.00    +0.002 A 
ATOM     34  C   LIG    1        6.700 -11.429   2.362  0.00  0.00    +0.010 A 
ATOM     35  C   LIG    1        5.532 -11.883   1.728  0.00  0.00    +0.004 A 
ATOM     36  C   LIG    1        5.310 -11.618   0.376  0.00  0.00    -0.050 A 
ATOM     37  C   LIG    1        4.076 -12.116  -0.319  0.00  0.00    +0.044 C 
ATOM     38  C   LIG    1        6.294 -10.931  -0.336  0.00  0.00    +0.004 A 
ATOM     39  C   LIG    1        7.472 -10.505   0.296  0.00  0.00    +0.010 A 
ENDBRANCH  28  33
BRANCH  31  40
ATOM     40  C   LIG    1       12.535  -9.483   4.549  0.00  0.00    +0.419 C 
ATOM     41  F   LIG    1       13.315 -10.576   4.769  0.00  0.00    -0.166 F 
ATOM     42  F   LIG    1       12.226  -8.990   5.780  0.00  0.00    -0.166 F 
ATOM     43  F   LIG    1       13.351  -8.554   3.976  0.00  0.00    -0.166 F 
ENDBRANCH  31  40
ENDBRANCH  25  27
ENDBRANCH   2  25
BRANCH   2  44
ATOM     44  O   LIG    1        8.815  -6.052   0.339  0.00  0.00    -0.481 OA
ATOM     45  H   LIG    1        7.941  -6.426   0.163  0.00  0.00    +0.295 HD
ENDBRANCH   2  44
TORSDOF 11
