REMARK  Name = pdb/CHEMBL3895250.pdb
REMARK                            x       y       z     vdW  Elec       q    Type
REMARK                         _______ _______ _______ _____ _____    ______ ____
ROOT
ATOM      1  C   LIG    1       -2.217  -0.646  -1.720  0.00  0.00    +0.149 A 
ATOM      2  N   LIG    1       -3.464  -0.287  -1.380  0.00  0.00    -0.160 NA
ATOM      3  N   LIG    1       -4.255  -1.330  -1.740  0.00  0.00    -0.218 N 
ATOM      4  C   LIG    1       -3.482  -2.424  -2.145  0.00  0.00    +0.129 A 
ATOM      5  C   LIG    1       -2.201  -1.959  -2.237  0.00  0.00    +0.078 A 
ENDROOT
BRANCH   3   6
ATOM      6  C   LIG    1       -5.671  -1.196  -1.646  0.00  0.00    +0.067 A 
ATOM      7  C   LIG    1       -6.543  -1.985  -2.407  0.00  0.00    +0.028 A 
ATOM      8  C   LIG    1       -7.927  -1.804  -2.298  0.00  0.00    +0.002 A 
ATOM      9  C   LIG    1       -8.447  -0.830  -1.446  0.00  0.00    +0.000 A 
ATOM     10  C   LIG    1       -7.586  -0.027  -0.704  0.00  0.00    +0.002 A 
ATOM     11  C   LIG    1       -6.204  -0.202  -0.808  0.00  0.00    +0.028 A 
ENDBRANCH   3   6
BRANCH   4  12
ATOM     12  N   LIG    1       -3.905  -3.754  -2.327  0.00  0.00    -0.266 N 
ATOM     13  H   LIG    1       -4.852  -3.974  -2.072  0.00  0.00    +0.157 HD
ATOM     14  C   LIG    1       -3.022  -4.810  -2.765  0.00  0.00    +0.251 C 
ATOM     15  O   LIG    1       -1.858  -4.576  -3.041  0.00  0.00    -0.270 OA
BRANCH  14  16
ATOM     16  C   LIG    1       -3.553  -6.198  -2.900  0.00  0.00    +0.056 A 
ATOM     17  C   LIG    1       -4.865  -6.586  -2.655  0.00  0.00    +0.056 A 
ATOM     18 CL   LIG    1       -6.128  -5.531  -2.139  0.00  0.00    -0.083 Cl
ATOM     19  C   LIG    1       -5.236  -7.917  -2.833  0.00  0.00    +0.059 A 
ATOM     20  C   LIG    1       -4.301  -8.863  -3.243  0.00  0.00    +0.134 A 
ATOM     21  F   LIG    1       -4.732 -10.128  -3.324  0.00  0.00    -0.205 F 
ATOM     22  C   LIG    1       -2.972  -8.530  -3.521  0.00  0.00    +0.039 A 
ATOM     23  C   LIG    1       -2.613  -7.176  -3.319  0.00  0.00    +0.027 A 
BRANCH  22  24
ATOM     24  C   LIG    1       -1.975  -9.524  -3.977  0.00  0.00    +0.109 A 
ATOM     25  C   LIG    1       -2.296 -10.663  -4.721  0.00  0.00    +0.149 A 
ATOM     26  F   LIG    1       -3.541 -10.897  -5.160  0.00  0.00    -0.203 F 
ATOM     27  C   LIG    1       -1.306 -11.574  -5.065  0.00  0.00    +0.042 A 
ATOM     28  C   LIG    1        0.007 -11.318  -4.696  0.00  0.00    +0.023 A 
ATOM     29  C   LIG    1        0.269 -10.151  -3.998  0.00  0.00    +0.111 A 
ATOM     30  N   LIG    1       -0.683  -9.257  -3.630  0.00  0.00    -0.252 NA
ENDBRANCH  22  24
ENDBRANCH  14  16
ENDBRANCH   4  12
BRANCH   1  32
ATOM     31  N   LIG    1        0.118  -0.288  -1.748  0.00  0.00    -0.244 NA
ATOM     32  C   LIG    1       -1.043   0.197  -1.498  0.00  0.00    +0.236 C 
BRANCH  32  33
ATOM     33  O   LIG    1       -1.297   1.428  -1.013  0.00  0.00    -0.491 OA
ATOM     34  H   LIG    1       -0.495   1.931  -0.822  0.00  0.00    +0.294 HD
ENDBRANCH  32  33
BRANCH  31  35
ATOM     35  C   LIG    1        1.339   0.468  -1.488  0.00  0.00    +0.184 C 
BRANCH  35  37
ATOM     36  C   LIG    1        2.559   1.258   0.592  0.00  0.00    +0.121 A 
ATOM     37  C   LIG    1        1.882   0.252  -0.098  0.00  0.00    +0.013 A 
ATOM     38  C   LIG    1        1.741  -0.987   0.547  0.00  0.00    +0.010 A 
ATOM     39  C   LIG    1        2.205  -1.155   1.846  0.00  0.00    +0.020 A 
ATOM     40  C   LIG    1        2.827  -0.082   2.451  0.00  0.00    +0.113 A 
ATOM     41  N   LIG    1        3.021   1.111   1.847  0.00  0.00    -0.240 NA
BRANCH  36  42
ATOM     42  N   LIG    1        2.775   2.519   0.038  0.00  0.00    -0.343 N 
ATOM     43  H   LIG    1        3.313   2.457  -0.820  0.00  0.00    +0.144 HD
ATOM     44  H   LIG    1        3.299   3.036   0.744  0.00  0.00    +0.144 HD
ENDBRANCH  36  42
ENDBRANCH  35  37
ENDBRANCH  31  35
ENDBRANCH   1  32
TORSDOF 9
