REMARK  Name = pdb/CHEMBL3900303.pdb
REMARK                            x       y       z     vdW  Elec       q    Type
REMARK                         _______ _______ _______ _____ _____    ______ ____
ROOT
ATOM      1  C   LIG    1       -0.926  -6.124  -0.524  0.00  0.00    +0.323 A 
ATOM      2  N   LIG    1       -1.584  -5.379  -1.432  0.00  0.00    -0.201 NA
ATOM      3  C   LIG    1       -2.832  -5.786  -1.764  0.00  0.00    +0.145 A 
ATOM      4  C   LIG    1       -3.490  -6.872  -1.217  0.00  0.00    +0.105 A 
ATOM      5  C   LIG    1       -2.733  -7.498  -0.231  0.00  0.00    +0.145 A 
ATOM      6  N   LIG    1       -1.459  -7.174   0.123  0.00  0.00    -0.201 NA
ENDROOT
BRANCH   4   7
ATOM      7  N   LIG    1       -4.792  -7.211  -1.644  0.00  0.00    -0.196 NA
ATOM      8  C   LIG    1       -5.137  -8.457  -1.773  0.00  0.00    +0.285 C 
BRANCH   8   9
ATOM      9  N   LIG    1       -6.307  -9.013  -2.193  0.00  0.00    -0.267 N 
ATOM     10  H   LIG    1       -6.526  -9.943  -1.850  0.00  0.00    +0.157 HD
BRANCH   9  11
ATOM     11  C   LIG    1       -7.314  -8.524  -3.050  0.00  0.00    +0.070 A 
ATOM     12  C   LIG    1       -8.182  -9.455  -3.651  0.00  0.00    +0.145 A 
ATOM     13  F   LIG    1       -8.047 -10.757  -3.342  0.00  0.00    -0.204 F 
ATOM     14  C   LIG    1       -9.160  -9.092  -4.578  0.00  0.00    +0.052 A 
ATOM     15  C   LIG    1       -9.316  -7.745  -4.924  0.00  0.00    +0.058 A 
ATOM     16  C   LIG    1       -8.458  -6.803  -4.333  0.00  0.00    +0.014 A 
ATOM     17  C   LIG    1       -7.449  -7.191  -3.433  0.00  0.00    +0.027 A 
BRANCH  15  18
ATOM     18  C   LIG    1      -10.369  -7.321  -5.922  0.00  0.00    +0.418 C 
ATOM     19  F   LIG    1      -11.631  -7.640  -5.522  0.00  0.00    -0.166 F 
ATOM     20  F   LIG    1      -10.201  -7.910  -7.137  0.00  0.00    -0.166 F 
ATOM     21  F   LIG    1      -10.381  -5.979  -6.157  0.00  0.00    -0.166 F 
ENDBRANCH  15  18
ENDBRANCH   9  11
ENDBRANCH   8   9
BRANCH   8  22
ATOM     22  O   LIG    1       -4.250  -9.422  -1.485  0.00  0.00    -0.481 OA
ATOM     23  H   LIG    1       -4.516 -10.279  -1.875  0.00  0.00    +0.295 HD
ENDBRANCH   8  22
ENDBRANCH   4   7
BRANCH   1  24
ATOM     24  O   LIG    1        0.391  -5.790  -0.194  0.00  0.00    -0.424 OA
BRANCH  24  28
ATOM     25  C   LIG    1        2.954  -4.173  -3.163  0.00  0.00    -0.014 A 
ATOM     26  C   LIG    1        3.097  -3.875  -1.792  0.00  0.00    +0.012 A 
ATOM     27  C   LIG    1        2.238  -4.409  -0.815  0.00  0.00    +0.047 A 
ATOM     28  C   LIG    1        1.190  -5.252  -1.186  0.00  0.00    +0.132 A 
ATOM     29  C   LIG    1        1.044  -5.568  -2.537  0.00  0.00    +0.047 A 
ATOM     30  C   LIG    1        1.895  -5.025  -3.507  0.00  0.00    +0.012 A 
BRANCH  25  32
ATOM     31  C   LIG    1        3.580  -3.274  -5.490  0.00  0.00    +0.124 A 
ATOM     32  C   LIG    1        3.916  -3.640  -4.169  0.00  0.00    +0.023 A 
ATOM     33  C   LIG    1        5.273  -3.476  -3.816  0.00  0.00    +0.033 A 
ATOM     34  C   LIG    1        6.199  -2.986  -4.728  0.00  0.00    +0.060 A 
ATOM     35 CL   LIG    1        7.839  -2.760  -4.276  0.00  0.00    -0.082 Cl
ATOM     36  C   LIG    1        5.760  -2.687  -6.000  0.00  0.00    +0.133 A 
ATOM     37  N   LIG    1        4.475  -2.823  -6.398  0.00  0.00    -0.239 NA
BRANCH  31  38
ATOM     38  N   LIG    1        2.280  -3.335  -5.987  0.00  0.00    -0.343 N 
ATOM     39  H   LIG    1        1.645  -2.805  -5.399  0.00  0.00    +0.144 HD
ATOM     40  H   LIG    1        2.312  -2.968  -6.936  0.00  0.00    +0.144 HD
ENDBRANCH  31  38
ENDBRANCH  25  32
ENDBRANCH  24  28
ENDBRANCH   1  24
TORSDOF 9
