REMARK  Name = pdb/CHEMBL3952568.pdb
REMARK                            x       y       z     vdW  Elec       q    Type
REMARK                         _______ _______ _______ _____ _____    ______ ____
ROOT
ATOM      1  C   LIG    1       -1.324  -8.248   3.923  0.00  0.00    +0.323 A 
ATOM      2  N   LIG    1       -0.945  -6.970   3.969  0.00  0.00    -0.201 NA
ATOM      3  C   LIG    1       -1.961  -6.069   4.009  0.00  0.00    +0.145 A 
ATOM      4  C   LIG    1       -3.319  -6.359   3.933  0.00  0.00    +0.105 A 
ATOM      5  C   LIG    1       -3.566  -7.710   3.913  0.00  0.00    +0.145 A 
ATOM      6  N   LIG    1       -2.610  -8.651   3.950  0.00  0.00    -0.201 NA
ENDROOT
BRANCH   4   7
ATOM      7  N   LIG    1       -4.394  -5.464   3.984  0.00  0.00    -0.196 NA
ATOM      8  C   LIG    1       -4.297  -4.221   3.566  0.00  0.00    +0.285 C 
BRANCH   8   9
ATOM      9  N   LIG    1       -5.215  -3.231   3.629  0.00  0.00    -0.269 N 
ATOM     10  H   LIG    1       -5.031  -2.392   3.102  0.00  0.00    +0.157 HD
BRANCH   9  11
ATOM     11  C   LIG    1       -6.303  -3.064   4.519  0.00  0.00    +0.045 A 
ATOM     12  C   LIG    1       -7.253  -2.011   4.359  0.00  0.00    +0.021 A 
ATOM     13  C   LIG    1       -8.328  -1.958   5.272  0.00  0.00    +0.012 A 
ATOM     14  C   LIG    1       -8.440  -2.846   6.349  0.00  0.00    +0.013 A 
ATOM     15  C   LIG    1       -7.498  -3.856   6.527  0.00  0.00    +0.057 A 
ATOM     16  C   LIG    1       -6.464  -3.963   5.593  0.00  0.00    +0.036 A 
BRANCH  12  17
ATOM     17  C   LIG    1       -7.194  -0.989   3.277  0.00  0.00    +0.070 A 
ATOM     18  N   LIG    1       -7.518   0.361   3.402  0.00  0.00    -0.267 N 
ATOM     19  C   LIG    1       -7.659   1.159   4.600  0.00  0.00    +0.173 C 
ATOM     20  N   LIG    1       -7.494   1.035   2.234  0.00  0.00    -0.179 NA
ATOM     21  C   LIG    1       -7.021   0.154   1.360  0.00  0.00    +0.135 A 
ATOM     22  C   LIG    1       -6.820  -1.107   1.943  0.00  0.00    +0.049 A 
ENDBRANCH  12  17
BRANCH  15  23
ATOM     23  C   LIG    1       -7.567  -4.798   7.706  0.00  0.00    +0.417 C 
ATOM     24  F   LIG    1       -8.723  -5.514   7.743  0.00  0.00    -0.166 F 
ATOM     25  F   LIG    1       -7.496  -4.136   8.895  0.00  0.00    -0.166 F 
ATOM     26  F   LIG    1       -6.559  -5.715   7.734  0.00  0.00    -0.166 F 
ENDBRANCH  15  23
ENDBRANCH   9  11
ENDBRANCH   8   9
BRANCH   8  27
ATOM     27  O   LIG    1       -3.159  -3.807   2.999  0.00  0.00    -0.481 OA
ATOM     28  H   LIG    1       -3.071  -2.846   3.056  0.00  0.00    +0.295 HD
ENDBRANCH   8  27
ENDBRANCH   4   7
BRANCH   1  29
ATOM     29  O   LIG    1       -0.291  -9.179   3.824  0.00  0.00    -0.424 OA
BRANCH  29  33
ATOM     30  C   LIG    1       -1.197 -13.261   3.851  0.00  0.00    -0.013 A 
ATOM     31  C   LIG    1        0.007 -12.775   4.380  0.00  0.00    +0.012 A 
ATOM     32  C   LIG    1        0.296 -11.405   4.357  0.00  0.00    +0.047 A 
ATOM     33  C   LIG    1       -0.605 -10.517   3.770  0.00  0.00    +0.132 A 
ATOM     34  C   LIG    1       -1.746 -11.024   3.147  0.00  0.00    +0.047 A 
ATOM     35  C   LIG    1       -2.080 -12.363   3.252  0.00  0.00    +0.012 A 
BRANCH  30  39
ATOM     36  C   LIG    1       -0.053 -16.672   6.510  0.00  0.00    +0.125 A 
ATOM     37  N   LIG    1       -0.325 -15.561   5.852  0.00  0.00    -0.213 NA
ATOM     38  C   LIG    1       -1.131 -15.623   4.740  0.00  0.00    +0.165 A 
ATOM     39  C   LIG    1       -1.545 -14.665   3.836  0.00  0.00    +0.046 A 
ATOM     40  C   LIG    1       -2.380 -15.361   2.931  0.00  0.00    +0.145 A 
ATOM     41  N   LIG    1       -2.491 -16.658   3.207  0.00  0.00    -0.173 NA
ATOM     42  N   LIG    1       -1.714 -16.819   4.306  0.00  0.00    -0.221 N 
ATOM     43  C   LIG    1       -1.462 -17.993   4.996  0.00  0.00    +0.118 A 
ATOM     44  C   LIG    1       -0.659 -17.989   6.069  0.00  0.00    +0.063 A 
BRANCH  36  46
ATOM     45  C   LIG    1        0.921 -15.387   8.385  0.00  0.00    +0.130 C 
ATOM     46  N   LIG    1        0.803 -16.634   7.627  0.00  0.00    -0.321 N 
ATOM     47  C   LIG    1        1.209 -17.838   8.336  0.00  0.00    +0.130 C 
ENDBRANCH  36  46
ENDBRANCH  30  39
ENDBRANCH  29  33
ENDBRANCH   1  29
TORSDOF 10
