REMARK  Name = pdb/CHEMBL3899159.pdb
REMARK                            x       y       z     vdW  Elec       q    Type
REMARK                         _______ _______ _______ _____ _____    ______ ____
ROOT
ATOM      1  C   LIG    1       -0.899  -7.360  -1.379  0.00  0.00    +0.221 A 
ATOM      2  N   LIG    1       -0.678  -6.737  -0.198  0.00  0.00    -0.219 NA
ATOM      3  C   LIG    1       -1.528  -5.748   0.148  0.00  0.00    +0.142 A 
ATOM      4  C   LIG    1       -2.528  -5.243  -0.677  0.00  0.00    +0.087 A 
ATOM      5  C   LIG    1       -2.717  -5.904  -1.898  0.00  0.00    +0.034 A 
ATOM      6  C   LIG    1       -1.904  -6.983  -2.253  0.00  0.00    +0.070 A 
ENDROOT
BRANCH   4   7
ATOM      7  N   LIG    1       -3.408  -4.229  -0.311  0.00  0.00    -0.198 NA
ATOM      8  C   LIG    1       -3.084  -3.116   0.290  0.00  0.00    +0.285 C 
BRANCH   8   9
ATOM      9  N   LIG    1       -3.934  -2.137   0.665  0.00  0.00    -0.269 N 
ATOM     10  H   LIG    1       -3.514  -1.217   0.752  0.00  0.00    +0.157 HD
BRANCH   9  11
ATOM     11  C   LIG    1       -5.318  -2.228   0.937  0.00  0.00    +0.043 A 
ATOM     12  C   LIG    1       -6.200  -1.110   0.810  0.00  0.00    +0.005 A 
ATOM     13  C   LIG    1       -7.566  -1.340   1.124  0.00  0.00    +0.011 A 
ATOM     14  C   LIG    1       -8.060  -2.585   1.530  0.00  0.00    +0.013 A 
ATOM     15  C   LIG    1       -7.207  -3.678   1.618  0.00  0.00    +0.057 A 
ATOM     16  C   LIG    1       -5.854  -3.483   1.309  0.00  0.00    +0.036 A 
BRANCH  12  17
ATOM     17  C   LIG    1       -5.793   0.271   0.387  0.00  0.00    +0.002 A 
ATOM     18  C   LIG    1       -6.456   1.414   0.861  0.00  0.00    +0.119 A 
ATOM     19  N   LIG    1       -6.177   2.701   0.524  0.00  0.00    -0.263 NA
ATOM     20  C   LIG    1       -5.155   2.894  -0.327  0.00  0.00    +0.111 A 
ATOM     21  C   LIG    1       -4.420   1.857  -0.866  0.00  0.00    +0.020 A 
ATOM     22  C   LIG    1       -4.767   0.544  -0.531  0.00  0.00    +0.011 A 
ENDBRANCH  12  17
BRANCH  15  23
ATOM     23  C   LIG    1       -7.718  -5.037   2.031  0.00  0.00    +0.417 C 
ATOM     24  F   LIG    1       -8.676  -5.512   1.188  0.00  0.00    -0.166 F 
ATOM     25  F   LIG    1       -8.283  -5.028   3.270  0.00  0.00    -0.166 F 
ATOM     26  F   LIG    1       -6.751  -5.996   2.074  0.00  0.00    -0.166 F 
ENDBRANCH  15  23
ENDBRANCH   9  11
ENDBRANCH   8   9
BRANCH   8  27
ATOM     27  O   LIG    1       -1.819  -2.772   0.579  0.00  0.00    -0.481 OA
ATOM     28  H   LIG    1       -1.169  -3.374   0.193  0.00  0.00    +0.295 HD
ENDBRANCH   8  27
ENDBRANCH   4   7
BRANCH   1  29
ATOM     29  O   LIG    1       -0.090  -8.430  -1.758  0.00  0.00    -0.438 OA
BRANCH  29  33
ATOM     30  C   LIG    1        2.011 -10.491   1.302  0.00  0.00    -0.014 A 
ATOM     31  C   LIG    1        0.692 -10.026   1.479  0.00  0.00    +0.012 A 
ATOM     32  C   LIG    1       -0.035  -9.398   0.466  0.00  0.00    +0.047 A 
ATOM     33  C   LIG    1        0.558  -9.114  -0.756  0.00  0.00    +0.130 A 
ATOM     34  C   LIG    1        1.839  -9.587  -0.997  0.00  0.00    +0.047 A 
ATOM     35  C   LIG    1        2.541 -10.272   0.013  0.00  0.00    +0.012 A 
BRANCH  30  37
ATOM     36  C   LIG    1        4.000 -11.821   2.334  0.00  0.00    +0.124 A 
ATOM     37  C   LIG    1        2.731 -11.205   2.420  0.00  0.00    +0.023 A 
ATOM     38  C   LIG    1        2.108 -11.340   3.688  0.00  0.00    +0.033 A 
ATOM     39  C   LIG    1        2.690 -12.052   4.730  0.00  0.00    +0.060 A 
ATOM     40 CL   LIG    1        1.885 -12.217   6.237  0.00  0.00    -0.082 Cl
ATOM     41  C   LIG    1        3.918 -12.624   4.509  0.00  0.00    +0.133 A 
ATOM     42  N   LIG    1        4.583 -12.517   3.341  0.00  0.00    -0.239 NA
BRANCH  36  43
ATOM     43  N   LIG    1        4.824 -11.772   1.214  0.00  0.00    -0.343 N 
ATOM     44  H   LIG    1        5.092 -10.812   1.027  0.00  0.00    +0.144 HD
ATOM     45  H   LIG    1        5.647 -12.323   1.449  0.00  0.00    +0.144 HD
ENDBRANCH  36  43
ENDBRANCH  30  37
ENDBRANCH  29  33
ENDBRANCH   1  29
TORSDOF 10
