REMARK  Name = pdb/CHEMBL3671138.pdb
REMARK                            x       y       z     vdW  Elec       q    Type
REMARK                         _______ _______ _______ _____ _____    ______ ____
ROOT
ATOM      1  C   LIG    1        5.882   0.895   1.311  0.00  0.00    +0.100 A 
ATOM      2  C   LIG    1        6.231   1.990   0.540  0.00  0.00    +0.170 A 
ATOM      3  N   LIG    1        5.535   3.110   0.161  0.00  0.00    -0.212 NA
ATOM      4  C   LIG    1        6.178   4.054  -0.496  0.00  0.00    +0.126 A 
ATOM      5  C   LIG    1        7.616   3.879  -0.927  0.00  0.00    +0.063 A 
ATOM      6  C   LIG    1        8.240   2.756  -0.553  0.00  0.00    +0.118 A 
ATOM      7  N   LIG    1        7.569   1.803   0.193  0.00  0.00    -0.221 N 
ATOM      8  N   LIG    1        8.064   0.636   0.667  0.00  0.00    -0.173 NA
ATOM      9  C   LIG    1        7.051   0.110   1.356  0.00  0.00    +0.150 A 
ENDROOT
BRANCH   1  13
ATOM     10  C   LIG    1        2.193   0.948   1.852  0.00  0.00    +0.128 C 
ATOM     11  N   LIG    1        3.524   1.189   1.370  0.00  0.00    -0.314 N 
ATOM     12  H   LIG    1        3.690   1.853   0.618  0.00  0.00    +0.149 HD
ATOM     13  C   LIG    1        4.619   0.590   1.951  0.00  0.00    +0.249 C 
ATOM     14  O   LIG    1        4.540  -0.176   2.899  0.00  0.00    -0.270 OA
ENDBRANCH   1  13
BRANCH   4  15
ATOM     15  N   LIG    1        5.510   5.234  -0.807  0.00  0.00    -0.308 N 
ATOM     16  C   LIG    1        6.193   6.537  -0.922  0.00  0.00    +0.108 C 
ATOM     17  C   LIG    1        5.363   7.415   0.027  0.00  0.00    +0.029 C 
ATOM     18  C   LIG    1        3.944   6.945  -0.234  0.00  0.00    +0.021 C 
ATOM     19  C   LIG    1        4.106   5.438  -0.411  0.00  0.00    +0.107 C 
BRANCH  16  20
ATOM     20  C   LIG    1        6.222   7.030  -2.361  0.00  0.00    +0.011 A 
ATOM     21  C   LIG    1        6.707   8.314  -2.651  0.00  0.00    +0.129 A 
ATOM     22  F   LIG    1        7.172   9.091  -1.663  0.00  0.00    -0.205 F 
ATOM     23  C   LIG    1        6.728   8.820  -3.952  0.00  0.00    +0.041 A 
ATOM     24  C   LIG    1        6.278   8.029  -5.007  0.00  0.00    +0.041 A 
ATOM     25  C   LIG    1        5.828   6.742  -4.744  0.00  0.00    +0.124 A 
ATOM     26  F   LIG    1        5.408   5.972  -5.755  0.00  0.00    -0.205 F 
ATOM     27  C   LIG    1        5.802   6.239  -3.445  0.00  0.00    +0.046 A 
ENDBRANCH  16  20
ENDBRANCH   4  15
TORSDOF 3
