REMARK  Name = pdb/CHEMBL3673440.pdb
REMARK                            x       y       z     vdW  Elec       q    Type
REMARK                         _______ _______ _______ _____ _____    ______ ____
ROOT
ATOM      1  N   LIG    1        6.184   2.522  -9.322  0.00  0.00    -0.308 N 
ATOM      2  C   LIG    1        7.253   2.130  -8.531  0.00  0.00    +0.070 A 
ATOM      3  C   LIG    1        8.481   1.511  -8.781  0.00  0.00    +0.028 A 
ATOM      4  C   LIG    1        9.333   1.316  -7.677  0.00  0.00    +0.011 A 
ATOM      5  C   LIG    1        8.984   1.684  -6.360  0.00  0.00    -0.014 A 
ATOM      6  C   LIG    1        7.732   2.286  -6.163  0.00  0.00    +0.038 A 
ATOM      7  C   LIG    1        6.880   2.514  -7.248  0.00  0.00    +0.091 A 
ATOM      8  N   LIG    1        5.661   3.115  -7.236  0.00  0.00    -0.215 NA
ATOM      9  C   LIG    1        5.289   3.154  -8.483  0.00  0.00    +0.194 A 
ENDROOT
BRANCH   5  10
ATOM     10  C   LIG    1        9.883   1.445  -5.213  0.00  0.00    +0.000 A 
ATOM     11  C   LIG    1       10.779   0.378  -5.182  0.00  0.00    +0.120 A 
ATOM     12  N   LIG    1       11.622   0.096  -4.161  0.00  0.00    -0.252 NA
ATOM     13  C   LIG    1       11.564   0.892  -3.065  0.00  0.00    +0.100 A 
ATOM     14  C   LIG    1       10.706   1.979  -2.986  0.00  0.00    +0.032 A 
ATOM     15  C   LIG    1        9.874   2.258  -4.069  0.00  0.00    +0.012 A 
BRANCH  13  16
ATOM     16  P   LIG    1       12.633   0.508  -1.704  0.00  0.00    +0.128 P 
ATOM     17  C   LIG    1       13.808   1.858  -1.524  0.00  0.00    +0.087 C 
ATOM     18  C   LIG    1       13.683  -0.871  -2.180  0.00  0.00    +0.087 C 
ATOM     19  O   LIG    1       11.963   0.240  -0.378  0.00  0.00    -0.315 OA
ENDBRANCH  13  16
ENDBRANCH   5  10
BRANCH   9  20
ATOM     20  N   LIG    1        4.185   3.807  -8.881  0.00  0.00    -0.329 N 
ATOM     21  H   LIG    1        3.563   3.941  -8.086  0.00  0.00    +0.145 HD
ATOM     22  H   LIG    1        4.402   4.752  -9.197  0.00  0.00    +0.145 HD
ENDBRANCH   9  20
BRANCH   1  23
ATOM     23  C   LIG    1        6.071   2.254 -10.754  0.00  0.00    +0.160 C 
BRANCH  23  27
ATOM     24  C   LIG    1        3.956   5.542 -12.700  0.00  0.00    +0.162 A 
ATOM     25  C   LIG    1        3.291   4.352 -12.225  0.00  0.00    +0.162 A 
ATOM     26  C   LIG    1        4.023   3.253 -11.723  0.00  0.00    +0.054 A 
ATOM     27  C   LIG    1        5.381   3.331 -11.535  0.00  0.00    -0.024 A 
ATOM     28  C   LIG    1        6.051   4.455 -12.012  0.00  0.00    +0.009 A 
ATOM     29  C   LIG    1        5.357   5.520 -12.645  0.00  0.00    +0.050 A 
BRANCH  25  30
ATOM     30  O   LIG    1        1.939   3.974 -12.057  0.00  0.00    -0.491 OA
ATOM     31  C   LIG    1        1.243   5.145 -12.282  0.00  0.00    +0.277 C 
ENDBRANCH  25  30
BRANCH  24  32
ATOM     32  O   LIG    1        3.387   6.716 -13.272  0.00  0.00    -0.484 OA
BRANCH  32  33
ATOM     33  C   LIG    1        2.051   7.110 -12.940  0.00  0.00    +0.264 C 
BRANCH  33  37
ATOM     34  C   LIG    1       -0.488   9.991 -14.458  0.00  0.00    +0.120 A 
ATOM     35  C   LIG    1        0.394  10.255 -13.371  0.00  0.00    +0.046 A 
ATOM     36  C   LIG    1        1.254   9.319 -12.917  0.00  0.00    +0.010 A 
ATOM     37  C   LIG    1        1.253   8.218 -13.594  0.00  0.00    -0.010 A 
ATOM     38  C   LIG    1        0.379   7.812 -14.666  0.00  0.00    +0.010 A 
ATOM     39  C   LIG    1       -0.449   8.723 -15.087  0.00  0.00    +0.046 A 
BRANCH  34  41
ATOM     40  C   LIG    1       -1.018  12.265 -14.677  0.00  0.00    +0.277 C 
ATOM     41  O   LIG    1       -1.404  10.936 -14.951  0.00  0.00    -0.495 OA
ENDBRANCH  34  41
ENDBRANCH  33  37
ENDBRANCH  32  33
ENDBRANCH  24  32
ENDBRANCH  23  27
ENDBRANCH   1  23
TORSDOF 10
