REMARK  Name = pdb/CHEMBL603469.pdb
REMARK                            x       y       z     vdW  Elec       q    Type
REMARK                         _______ _______ _______ _____ _____    ______ ____
ROOT
ATOM      1  C   LIG    1        2.639  -2.162   1.657  0.00  0.00    +0.070 C 
ATOM      2  C   LIG    1        3.578  -0.961   1.486  0.00  0.00    +0.178 C 
ATOM      3  N   LIG    1        4.382  -0.726   2.694  0.00  0.00    -0.307 N 
ATOM      4  C   LIG    1        4.625   0.416   3.402  0.00  0.00    +0.077 A 
ATOM      5  C   LIG    1        4.353   1.719   3.002  0.00  0.00    +0.077 A 
ATOM      6  C   LIG    1        4.715   2.723   3.908  0.00  0.00    +0.022 A 
ATOM      7  C   LIG    1        5.332   2.648   5.173  0.00  0.00    +0.052 A 
ATOM      8  C   LIG    1        5.653   1.326   5.559  0.00  0.00    -0.008 A 
ATOM      9  C   LIG    1        6.330   1.289   6.853  0.00  0.00    +0.141 C 
ATOM     10  N   LIG    1        6.341   2.712   7.150  0.00  0.00    -0.307 N 
ATOM     11  H   LIG    1        6.731   3.116   7.989  0.00  0.00    +0.149 HD
ATOM     12  C   LIG    1        5.770   3.550   6.192  0.00  0.00    +0.245 C 
ATOM     13  O   LIG    1        5.730   4.764   6.336  0.00  0.00    -0.270 OA
ATOM     14  C   LIG    1        4.363   3.890   3.180  0.00  0.00    +0.008 A 
ATOM     15  C   LIG    1        4.434   5.281   3.425  0.00  0.00    +0.010 A 
ATOM     16  C   LIG    1        4.004   6.202   2.464  0.00  0.00    +0.001 A 
ATOM     17  C   LIG    1        3.501   5.773   1.246  0.00  0.00    +0.002 A 
ATOM     18  C   LIG    1        3.409   4.413   0.946  0.00  0.00    +0.026 A 
ATOM     19  C   LIG    1        3.833   3.466   1.898  0.00  0.00    +0.052 A 
ATOM     20  N   LIG    1        3.835   2.070   1.803  0.00  0.00    -0.311 N 
ATOM     21  C   LIG    1        3.450   1.211   0.718  0.00  0.00    +0.226 C 
ATOM     22  C   LIG    1        4.649   0.585   0.007  0.00  0.00    +0.096 C 
ATOM     23  C   LIG    1        5.278   0.334   4.635  0.00  0.00    +0.015 A 
ATOM     24  C   LIG    1        5.589  -1.042   4.704  0.00  0.00    +0.008 A 
ATOM     25  C   LIG    1        6.276  -1.858   5.634  0.00  0.00    +0.010 A 
ATOM     26  C   LIG    1        6.495  -3.212   5.375  0.00  0.00    +0.001 A 
ATOM     27  C   LIG    1        6.055  -3.781   4.191  0.00  0.00    +0.002 A 
ATOM     28  C   LIG    1        5.362  -3.023   3.244  0.00  0.00    +0.026 A 
ATOM     29  C   LIG    1        5.092  -1.661   3.490  0.00  0.00    +0.053 A 
ATOM     30  C   LIG    1        4.432  -0.915   0.186  0.00  0.00    +0.141 C 
ATOM     31  O   LIG    1        2.682   0.161   1.309  0.00  0.00    -0.328 OA
ENDROOT
BRANCH  30  32
ATOM     32  O   LIG    1        5.684  -1.615   0.243  0.00  0.00    -0.381 OA
ATOM     33  H   LIG    1        6.198  -1.279   1.003  0.00  0.00    +0.210 HD
ENDBRANCH  30  32
BRANCH  30  34
ATOM     34  C   LIG    1        3.694  -1.474  -1.051  0.00  0.00    +0.195 C 
BRANCH  34  35
ATOM     35  O   LIG    1        3.689  -2.901  -1.020  0.00  0.00    -0.392 OA
ATOM     36  H   LIG    1        4.619  -3.154  -0.849  0.00  0.00    +0.210 HD
ENDBRANCH  34  35
ENDBRANCH  30  34
TORSDOF 3
