REMARK  Name = pdb/CHEMBL3956444.pdb
REMARK                            x       y       z     vdW  Elec       q    Type
REMARK                         _______ _______ _______ _____ _____    ______ ____
ROOT
ATOM      1  C   LIG    1        2.278  -1.614   0.362  0.00  0.00    +0.131 C 
ATOM      2  N   LIG    1        2.424  -2.892  -0.028  0.00  0.00    -0.141 NA
ATOM      3  N   LIG    1        3.264  -3.445   0.886  0.00  0.00    -0.201 N 
ATOM      4  C   LIG    1        3.864  -2.470   1.687  0.00  0.00    +0.185 C 
ATOM      5  C   LIG    1        3.159  -1.316   1.427  0.00  0.00    +0.056 C 
ENDROOT
BRANCH   3   6
ATOM      6  C   LIG    1        3.457  -4.851   0.919  0.00  0.00    +0.052 A 
ATOM      7  C   LIG    1        3.283  -5.602  -0.253  0.00  0.00    +0.025 A 
ATOM      8  C   LIG    1        3.454  -6.990  -0.226  0.00  0.00    +0.002 A 
ATOM      9  C   LIG    1        3.768  -7.632   0.968  0.00  0.00    +0.000 A 
ATOM     10  C   LIG    1        3.918  -6.893   2.142  0.00  0.00    +0.002 A 
ATOM     11  C   LIG    1        3.762  -5.506   2.119  0.00  0.00    +0.025 A 
ENDBRANCH   3   6
BRANCH   4  12
ATOM     12  N   LIG    1        4.985  -2.610   2.524  0.00  0.00    -0.282 N 
ATOM     13  H   LIG    1        5.394  -3.531   2.612  0.00  0.00    +0.152 HD
ATOM     14  C   LIG    1        5.635  -1.490   3.150  0.00  0.00    +0.247 C 
ATOM     15  O   LIG    1        5.236  -0.354   2.978  0.00  0.00    -0.270 OA
BRANCH  14  16
ATOM     16  C   LIG    1        6.866  -1.719   3.943  0.00  0.00    +0.056 A 
ATOM     17  C   LIG    1        7.120  -2.854   4.699  0.00  0.00    +0.054 A 
ATOM     18 CL   LIG    1        6.013  -4.170   4.832  0.00  0.00    -0.083 Cl
ATOM     19  C   LIG    1        8.291  -2.931   5.453  0.00  0.00    +0.041 A 
ATOM     20  C   LIG    1        9.196  -1.859   5.506  0.00  0.00    +0.052 A 
ATOM     21 CL   LIG    1       10.556  -2.092   6.551  0.00  0.00    -0.083 Cl
ATOM     22  C   LIG    1        8.947  -0.667   4.801  0.00  0.00    +0.019 A 
ATOM     23  C   LIG    1        7.784  -0.648   3.994  0.00  0.00    +0.026 A 
BRANCH  22  24
ATOM     24  C   LIG    1        9.708   0.596   4.953  0.00  0.00    +0.072 A 
ATOM     25  N   LIG    1        8.919   1.703   5.002  0.00  0.00    -0.255 NA
ATOM     26  C   LIG    1        9.499   2.897   5.258  0.00  0.00    +0.111 A 
ATOM     27  C   LIG    1       10.852   3.059   5.475  0.00  0.00    +0.020 A 
ATOM     28  C   LIG    1       11.661   1.935   5.379  0.00  0.00    +0.004 A 
ATOM     29  C   LIG    1       11.090   0.695   5.092  0.00  0.00    +0.028 A 
ENDBRANCH  22  24
ENDBRANCH  14  16
ENDBRANCH   4  12
BRANCH   1  30
ATOM     30  C   LIG    1        1.356  -0.667  -0.269  0.00  0.00    +0.233 C 
ATOM     31  N   LIG    1        1.001   0.381   0.381  0.00  0.00    -0.243 NA
BRANCH  30  32
ATOM     32  O   LIG    1        0.970  -0.979  -1.524  0.00  0.00    -0.491 OA
ATOM     33  H   LIG    1        0.229  -0.431  -1.824  0.00  0.00    +0.294 HD
ENDBRANCH  30  32
BRANCH  31  34
ATOM     34  C   LIG    1        0.144   1.389  -0.231  0.00  0.00    +0.204 C 
BRANCH  34  35
ATOM     35  C   LIG    1       -1.294   1.051  -0.067  0.00  0.00    +0.101 A 
ATOM     36  N   LIG    1       -1.966   0.309  -1.018  0.00  0.00    -0.219 NA
ATOM     37  C   LIG    1       -3.194   0.251  -0.545  0.00  0.00    +0.307 A 
ATOM     38  O   LIG    1       -3.387   0.884   0.644  0.00  0.00    -0.450 OA
ATOM     39  C   LIG    1       -2.160   1.392   0.946  0.00  0.00    +0.222 A 
ENDBRANCH  34  35
ENDBRANCH  31  34
ENDBRANCH   1  30
TORSDOF 8
