REMARK  Name = pdb/CHEMBL254267.pdb
REMARK                            x       y       z     vdW  Elec       q    Type
REMARK                         _______ _______ _______ _____ _____    ______ ____
ROOT
ATOM      1  S   LIG    1        7.644  -3.265   0.927  0.00  0.00    -0.081 S 
ENDROOT
BRANCH   1   7
ATOM      2  C   LIG    1        5.113  -0.072   1.351  0.00  0.00    +0.041 A 
ATOM      3  C   LIG    1        6.004   0.979   1.631  0.00  0.00    -0.038 A 
ATOM      4  C   LIG    1        5.578   2.344   2.092  0.00  0.00    +0.044 C 
ATOM      5  C   LIG    1        7.387   0.738   1.523  0.00  0.00    +0.005 A 
ATOM      6  C   LIG    1        7.879  -0.541   1.260  0.00  0.00    +0.015 A 
ATOM      7  C   LIG    1        7.000  -1.604   1.071  0.00  0.00    +0.014 A 
ATOM      8  C   LIG    1        5.623  -1.361   1.086  0.00  0.00    +0.028 A 
BRANCH   2  11
ATOM      9  C   LIG    1        3.305   1.944  -0.088  0.00  0.00    +0.133 C 
ATOM     10  N   LIG    1        2.844   0.935   0.852  0.00  0.00    -0.287 N 
ATOM     11  C   LIG    1        3.637  -0.006   1.517  0.00  0.00    +0.247 C 
ATOM     12  O   LIG    1        3.136  -0.862   2.249  0.00  0.00    -0.270 OA
BRANCH  10  13
ATOM     13  C   LIG    1        1.389   0.855   1.076  0.00  0.00    +0.226 C 
BRANCH  13  14
ATOM     14  C   LIG    1        0.808   2.083   1.652  0.00  0.00    +0.082 C 
ATOM     15  N   LIG    1        0.323   3.045   2.087  0.00  0.00    -0.195 NA
ENDBRANCH  13  14
ENDBRANCH  10  13
ENDBRANCH   2  11
ENDBRANCH   1   7
BRANCH   1  16
ATOM     16  C   LIG    1        7.678  -3.342  -0.815  0.00  0.00    +0.071 A 
ATOM     17  S   LIG    1        6.464  -4.114  -1.720  0.00  0.00    -0.045 S 
ATOM     18  C   LIG    1        7.197  -3.548  -3.185  0.00  0.00    +0.164 A 
ATOM     19  N   LIG    1        8.368  -2.968  -3.015  0.00  0.00    -0.232 NA
ATOM     20  C   LIG    1        8.638  -2.840  -1.664  0.00  0.00    +0.135 A 
BRANCH  18  21
ATOM     21  N   LIG    1        6.667  -3.765  -4.412  0.00  0.00    -0.279 N 
ATOM     22  H   LIG    1        7.185  -3.346  -5.174  0.00  0.00    +0.155 HD
BRANCH  21  23
ATOM     23  C   LIG    1        5.283  -3.774  -4.668  0.00  0.00    +0.126 A 
ATOM     24  N   LIG    1        4.441  -3.063  -3.888  0.00  0.00    -0.225 NA
ATOM     25  C   LIG    1        3.117  -3.161  -4.119  0.00  0.00    +0.108 A 
ATOM     26 BR   LIG    1        1.965  -2.161  -2.991  0.00  0.00    -0.029 Br
ATOM     27  C   LIG    1        2.571  -3.949  -5.117  0.00  0.00    +0.035 A 
ATOM     28  C   LIG    1        3.441  -4.655  -5.938  0.00  0.00    +0.006 A 
ATOM     29  C   LIG    1        4.814  -4.554  -5.722  0.00  0.00    +0.044 A 
ENDBRANCH  21  23
ENDBRANCH  18  21
ENDBRANCH   1  16
TORSDOF 7
