REMARK  Name = pdb/CHEMBL3954827.pdb
REMARK                            x       y       z     vdW  Elec       q    Type
REMARK                         _______ _______ _______ _____ _____    ______ ____
ROOT
ATOM      1  C   LIG    1       10.447  -1.660  -1.760  0.00  0.00    +0.323 A 
ATOM      2  N   LIG    1        9.801  -2.047  -2.871  0.00  0.00    -0.201 NA
ATOM      3  C   LIG    1        9.583  -3.373  -2.988  0.00  0.00    +0.145 A 
ATOM      4  C   LIG    1        9.983  -4.324  -2.068  0.00  0.00    +0.105 A 
ATOM      5  C   LIG    1       10.664  -3.817  -0.984  0.00  0.00    +0.145 A 
ATOM      6  N   LIG    1       10.938  -2.509  -0.838  0.00  0.00    -0.201 NA
ENDROOT
BRANCH   4   7
ATOM      7  N   LIG    1        9.655  -5.666  -2.200  0.00  0.00    -0.196 NA
ATOM      8  C   LIG    1       10.314  -6.464  -2.992  0.00  0.00    +0.285 C 
BRANCH   8   9
ATOM      9  N   LIG    1       10.091  -7.776  -3.242  0.00  0.00    -0.269 N 
ATOM     10  H   LIG    1       10.596  -8.087  -4.066  0.00  0.00    +0.157 HD
BRANCH   9  11
ATOM     11  C   LIG    1        8.915  -8.523  -2.956  0.00  0.00    +0.043 A 
ATOM     12  C   LIG    1        8.280  -8.605  -1.681  0.00  0.00    +0.003 A 
ATOM     13  C   LIG    1        7.045  -9.308  -1.643  0.00  0.00    +0.011 A 
ATOM     14  C   LIG    1        6.473  -9.930  -2.757  0.00  0.00    +0.013 A 
ATOM     15  C   LIG    1        7.115  -9.895  -3.988  0.00  0.00    +0.057 A 
ATOM     16  C   LIG    1        8.322  -9.182  -4.076  0.00  0.00    +0.036 A 
BRANCH  12  17
ATOM     17  C   LIG    1        8.846  -8.119  -0.369  0.00  0.00    -0.016 A 
ATOM     18  C   LIG    1       10.228  -8.046  -0.117  0.00  0.00    +0.008 A 
ATOM     19  C   LIG    1       10.743  -7.558   1.095  0.00  0.00    +0.001 A 
ATOM     20  C   LIG    1        9.893  -7.257   2.150  0.00  0.00    +0.000 A 
ATOM     21  C   LIG    1        8.525  -7.406   1.975  0.00  0.00    +0.001 A 
ATOM     22  C   LIG    1        8.013  -7.783   0.725  0.00  0.00    +0.008 A 
ENDBRANCH  12  17
BRANCH  15  23
ATOM     23  C   LIG    1        6.500 -10.612  -5.168  0.00  0.00    +0.417 C 
ATOM     24  F   LIG    1        5.247 -10.161  -5.455  0.00  0.00    -0.166 F 
ATOM     25  F   LIG    1        6.371 -11.952  -4.955  0.00  0.00    -0.166 F 
ATOM     26  F   LIG    1        7.216 -10.486  -6.320  0.00  0.00    -0.166 F 
ENDBRANCH  15  23
ENDBRANCH   9  11
ENDBRANCH   8   9
BRANCH   8  27
ATOM     27  O   LIG    1       11.348  -6.038  -3.744  0.00  0.00    -0.481 OA
ATOM     28  H   LIG    1       11.452  -5.075  -3.728  0.00  0.00    +0.295 HD
ENDBRANCH   8  27
ENDBRANCH   4   7
BRANCH   1  29
ATOM     29  O   LIG    1       10.592  -0.286  -1.610  0.00  0.00    -0.424 OA
BRANCH  29  33
ATOM     30  C   LIG    1       12.376   1.500   1.736  0.00  0.00    -0.013 A 
ATOM     31  C   LIG    1       11.726   0.276   1.886  0.00  0.00    +0.012 A 
ATOM     32  C   LIG    1       11.118  -0.339   0.796  0.00  0.00    +0.047 A 
ATOM     33  C   LIG    1       11.165   0.238  -0.474  0.00  0.00    +0.132 A 
ATOM     34  C   LIG    1       11.790   1.478  -0.626  0.00  0.00    +0.047 A 
ATOM     35  C   LIG    1       12.398   2.101   0.470  0.00  0.00    +0.012 A 
BRANCH  30  39
ATOM     36  C   LIG    1       16.001   4.063   2.172  0.00  0.00    +0.125 A 
ATOM     37  N   LIG    1       14.976   3.298   1.870  0.00  0.00    -0.213 NA
ATOM     38  C   LIG    1       14.146   2.880   2.882  0.00  0.00    +0.165 A 
ATOM     39  C   LIG    1       12.999   2.106   2.894  0.00  0.00    +0.046 A 
ATOM     40  C   LIG    1       12.651   2.001   4.260  0.00  0.00    +0.145 A 
ATOM     41  N   LIG    1       13.484   2.662   5.062  0.00  0.00    -0.173 NA
ATOM     42  N   LIG    1       14.394   3.204   4.216  0.00  0.00    -0.221 N 
ATOM     43  C   LIG    1       15.478   3.997   4.552  0.00  0.00    +0.118 A 
ATOM     44  C   LIG    1       16.295   4.463   3.600  0.00  0.00    +0.063 A 
BRANCH  36  46
ATOM     45  C   LIG    1       16.948   3.717  -0.075  0.00  0.00    +0.130 C 
ATOM     46  N   LIG    1       16.867   4.489   1.164  0.00  0.00    -0.321 N 
ATOM     47  C   LIG    1       17.160   5.910   1.017  0.00  0.00    +0.130 C 
ENDBRANCH  36  46
ENDBRANCH  30  39
ENDBRANCH  29  33
ENDBRANCH   1  29
TORSDOF 10
