REMARK  Name = pdb/CHEMBL3975550.pdb
REMARK                            x       y       z     vdW  Elec       q    Type
REMARK                         _______ _______ _______ _____ _____    ______ ____
ROOT
ATOM      1  C   LIG    1        4.133   1.762  -4.194  0.00  0.00    +0.042 A 
ATOM      2  C   LIG    1        4.655   1.669  -5.485  0.00  0.00    +0.042 A 
ATOM      3  C   LIG    1        5.113   2.762  -6.216  0.00  0.00    +0.086 A 
ATOM      4  C   LIG    1        4.985   4.004  -5.599  0.00  0.00    +0.138 A 
ATOM      5  N   LIG    1        4.478   4.183  -4.348  0.00  0.00    -0.260 NA
ATOM      6  C   LIG    1        4.056   3.071  -3.691  0.00  0.00    +0.122 A 
ENDROOT
BRANCH   1   7
ATOM      7  C   LIG    1        3.545   0.591  -3.522  0.00  0.00    +0.197 C 
ATOM      8  O   LIG    1        2.546   0.799  -2.807  0.00  0.00    -0.287 OA
BRANCH   7  16
ATOM      9  N   LIG    1        5.440  -2.512  -4.323  0.00  0.00    -0.338 N 
ATOM     10  C   LIG    1        4.453  -3.055  -3.513  0.00  0.00    +0.053 A 
ATOM     11  C   LIG    1        4.248  -4.331  -2.974  0.00  0.00    +0.046 A 
ATOM     12  C   LIG    1        3.061  -4.562  -2.303  0.00  0.00    +0.113 A 
ATOM     13  N   LIG    1        2.126  -3.627  -2.083  0.00  0.00    -0.263 NA
ATOM     14  C   LIG    1        2.367  -2.355  -2.497  0.00  0.00    +0.121 A 
ATOM     15  C   LIG    1        3.535  -2.025  -3.215  0.00  0.00    +0.029 A 
ATOM     16  C   LIG    1        4.077  -0.776  -3.694  0.00  0.00    +0.049 A 
ATOM     17  C   LIG    1        5.278  -1.132  -4.301  0.00  0.00    +0.099 A 
BRANCH   9  19
ATOM     18  C   LIG    1        7.838  -3.151  -4.250  0.00  0.00    +0.036 C 
ATOM     19  C   LIG    1        6.546  -3.165  -5.084  0.00  0.00    +0.063 C 
ATOM     20  C   LIG    1        6.827  -2.369  -6.400  0.00  0.00    +0.036 C 
BRANCH  19  21
ATOM     21  C   LIG    1        6.254  -4.605  -5.611  0.00  0.00    +0.183 C 
BRANCH  21  22
ATOM     22  O   LIG    1        6.233  -5.628  -4.633  0.00  0.00    -0.393 OA
ATOM     23  H   LIG    1        5.578  -6.288  -4.928  0.00  0.00    +0.209 HD
ENDBRANCH  21  22
ENDBRANCH  19  21
ENDBRANCH   9  19
ENDBRANCH   7  16
ENDBRANCH   1   7
BRANCH   3  24
ATOM     24  N   LIG    1        5.666   2.684  -7.502  0.00  0.00    -0.216 NA
ATOM     25  C   LIG    1        5.926   1.599  -8.150  0.00  0.00    +0.192 C 
BRANCH  25  26
ATOM     26  O   LIG    1        5.642   0.361  -7.690  0.00  0.00    -0.495 OA
ATOM     27  H   LIG    1        5.891  -0.352  -8.295  0.00  0.00    +0.293 HD
ENDBRANCH  25  26
BRANCH  25  28
ATOM     28  C   LIG    1        6.594   1.550  -9.505  0.00  0.00    +0.130 C 
BRANCH  28  29
ATOM     29  C   LIG    1        7.044   2.857 -10.107  0.00  0.00    -0.038 A 
ATOM     30  C   LIG    1        7.486   3.932  -9.322  0.00  0.00    +0.016 A 
ATOM     31  C   LIG    1        7.837   5.163  -9.887  0.00  0.00    +0.055 A 
ATOM     32  C   LIG    1        7.841   5.283 -11.279  0.00  0.00    +0.012 A 
ATOM     33  C   LIG    1        7.478   4.200 -12.080  0.00  0.00    +0.001 A 
ATOM     34  C   LIG    1        7.073   2.997 -11.499  0.00  0.00    +0.004 A 
BRANCH  31  35
ATOM     35  C   LIG    1        8.173   6.316  -8.976  0.00  0.00    +0.417 C 
ATOM     36  F   LIG    1        9.230   6.044  -8.161  0.00  0.00    -0.166 F 
ATOM     37  F   LIG    1        7.141   6.644  -8.148  0.00  0.00    -0.166 F 
ATOM     38  F   LIG    1        8.496   7.460  -9.640  0.00  0.00    -0.166 F 
ENDBRANCH  31  35
ENDBRANCH  28  29
ENDBRANCH  25  28
ENDBRANCH   3  24
TORSDOF 10
