REMARK  Name = pdb/CHEMBL3954937.pdb
REMARK                            x       y       z     vdW  Elec       q    Type
REMARK                         _______ _______ _______ _____ _____    ______ ____
ROOT
ATOM      1  C   LIG    1       -2.374  -2.724  -1.791  0.00  0.00    +0.149 A 
ATOM      2  N   LIG    1       -3.592  -2.485  -1.293  0.00  0.00    -0.160 NA
ATOM      3  N   LIG    1       -3.996  -3.638  -0.708  0.00  0.00    -0.218 N 
ATOM      4  C   LIG    1       -3.075  -4.675  -0.920  0.00  0.00    +0.129 A 
ATOM      5  C   LIG    1       -2.036  -4.089  -1.625  0.00  0.00    +0.078 A 
ENDROOT
BRANCH   3   6
ATOM      6  C   LIG    1       -5.262  -3.637  -0.051  0.00  0.00    +0.067 A 
ATOM      7  C   LIG    1       -5.564  -4.517   0.990  0.00  0.00    +0.028 A 
ATOM      8  C   LIG    1       -6.816  -4.456   1.612  0.00  0.00    +0.002 A 
ATOM      9  C   LIG    1       -7.769  -3.523   1.205  0.00  0.00    +0.000 A 
ATOM     10  C   LIG    1       -7.473  -2.634   0.178  0.00  0.00    +0.002 A 
ATOM     11  C   LIG    1       -6.222  -2.680  -0.439  0.00  0.00    +0.028 A 
ENDBRANCH   3   6
BRANCH   4  12
ATOM     12  N   LIG    1       -3.168  -6.036  -0.561  0.00  0.00    -0.266 N 
ATOM     13  H   LIG    1       -3.875  -6.307   0.105  0.00  0.00    +0.157 HD
ATOM     14  C   LIG    1       -2.384  -7.087  -1.169  0.00  0.00    +0.251 C 
ATOM     15  O   LIG    1       -1.593  -6.837  -2.084  0.00  0.00    -0.270 OA
BRANCH  14  16
ATOM     16  C   LIG    1       -2.531  -8.482  -0.676  0.00  0.00    +0.056 A 
ATOM     17  C   LIG    1       -3.695  -8.999  -0.109  0.00  0.00    +0.054 A 
ATOM     18 CL   LIG    1       -5.165  -8.105   0.007  0.00  0.00    -0.083 Cl
ATOM     19  C   LIG    1       -3.706 -10.309   0.377  0.00  0.00    +0.041 A 
ATOM     20  C   LIG    1       -2.570 -11.135   0.283  0.00  0.00    +0.052 A 
ATOM     21 CL   LIG    1       -2.720 -12.679   1.056  0.00  0.00    -0.083 Cl
ATOM     22  C   LIG    1       -1.389 -10.683  -0.344  0.00  0.00    +0.022 A 
ATOM     23  C   LIG    1       -1.413  -9.342  -0.806  0.00  0.00    +0.026 A 
BRANCH  22  24
ATOM     24  C   LIG    1       -0.164 -11.520  -0.530  0.00  0.00    +0.107 A 
ATOM     25  C   LIG    1        1.132 -10.989  -0.533  0.00  0.00    +0.149 A 
ATOM     26  F   LIG    1        1.352  -9.677  -0.364  0.00  0.00    -0.203 F 
ATOM     27  C   LIG    1        2.235 -11.816  -0.717  0.00  0.00    +0.042 A 
ATOM     28  C   LIG    1        2.040 -13.177  -0.899  0.00  0.00    +0.023 A 
ATOM     29  C   LIG    1        0.737 -13.643  -0.909  0.00  0.00    +0.111 A 
ATOM     30  N   LIG    1       -0.354 -12.849  -0.743  0.00  0.00    -0.252 NA
ENDBRANCH  22  24
ENDBRANCH  14  16
ENDBRANCH   4  12
BRANCH   1  32
ATOM     31  N   LIG    1       -0.484  -1.950  -3.021  0.00  0.00    -0.247 NA
ATOM     32  C   LIG    1       -1.587  -1.665  -2.435  0.00  0.00    +0.236 C 
BRANCH  32  33
ATOM     33  O   LIG    1       -2.144  -0.436  -2.388  0.00  0.00    -0.491 OA
ATOM     34  H   LIG    1       -1.675   0.211  -2.929  0.00  0.00    +0.294 HD
ENDBRANCH  32  33
BRANCH  31  35
ATOM     35  C   LIG    1        0.345  -0.916  -3.638  0.00  0.00    +0.178 C 
BRANCH  35  38
ATOM     36  C   LIG    1       -1.984  -2.087  -5.541  0.00  0.00    +0.154 C 
ATOM     37  N   LIG    1       -0.783  -1.382  -5.946  0.00  0.00    -0.145 NA
ATOM     38  C   LIG    1        0.114  -0.690  -5.111  0.00  0.00    +0.130 C 
ATOM     39  C   LIG    1        0.794   0.248  -5.809  0.00  0.00    +0.100 C 
ATOM     40  C   LIG    1        0.244   0.126  -7.180  0.00  0.00    +0.309 C 
ATOM     41  N   LIG    1       -0.769  -0.808  -7.206  0.00  0.00    -0.155 N 
ATOM     42  H   LIG    1       -0.733  -1.446  -7.997  0.00  0.00    +0.318 HD
BRANCH  40  43
ATOM     43  N   LIG    1        0.705   0.796  -8.175  0.00  0.00    -0.069 NA
ATOM     44  H   LIG    1        0.166   0.561  -9.013  0.00  0.00    +0.348 HD
ENDBRANCH  40  43
ENDBRANCH  35  38
ENDBRANCH  31  35
ENDBRANCH   1  32
TORSDOF 9
