REMARK  Name = pdb/CHEMBL3918364.pdb
REMARK                            x       y       z     vdW  Elec       q    Type
REMARK                         _______ _______ _______ _____ _____    ______ ____
ROOT
ATOM      1  C   LIG    1        9.653  -1.098  -0.582  0.00  0.00    +0.149 A 
ATOM      2  N   LIG    1       10.905  -1.254  -0.138  0.00  0.00    -0.160 NA
ATOM      3  N   LIG    1       11.382  -0.004   0.076  0.00  0.00    -0.218 N 
ATOM      4  C   LIG    1       10.430   0.970  -0.251  0.00  0.00    +0.129 A 
ATOM      5  C   LIG    1        9.344   0.269  -0.728  0.00  0.00    +0.078 A 
ENDROOT
BRANCH   3   6
ATOM      6  C   LIG    1       12.722   0.135   0.544  0.00  0.00    +0.067 A 
ATOM      7  C   LIG    1       13.151   1.231   1.295  0.00  0.00    +0.028 A 
ATOM      8  C   LIG    1       14.483   1.316   1.718  0.00  0.00    +0.002 A 
ATOM      9  C   LIG    1       15.387   0.300   1.412  0.00  0.00    +0.000 A 
ATOM     10  C   LIG    1       14.963  -0.807   0.684  0.00  0.00    +0.002 A 
ATOM     11  C   LIG    1       13.636  -0.896   0.260  0.00  0.00    +0.028 A 
ENDBRANCH   3   6
BRANCH   4  12
ATOM     12  N   LIG    1       10.546   2.363  -0.204  0.00  0.00    -0.266 N 
ATOM     13  H   LIG    1       11.441   2.738   0.082  0.00  0.00    +0.157 HD
ATOM     14  C   LIG    1        9.495   3.287  -0.551  0.00  0.00    +0.251 C 
ATOM     15  O   LIG    1        8.395   2.874  -0.922  0.00  0.00    -0.270 OA
BRANCH  14  16
ATOM     16  C   LIG    1        9.738   4.745  -0.411  0.00  0.00    +0.056 A 
ATOM     17  C   LIG    1       10.942   5.314   0.019  0.00  0.00    +0.054 A 
ATOM     18 CL   LIG    1       12.405   4.449   0.291  0.00  0.00    -0.083 Cl
ATOM     19  C   LIG    1       11.021   6.683   0.243  0.00  0.00    +0.041 A 
ATOM     20  C   LIG    1        9.928   7.524   0.006  0.00  0.00    +0.052 A 
ATOM     21 CL   LIG    1       10.182   9.175   0.465  0.00  0.00    -0.083 Cl
ATOM     22  C   LIG    1        8.719   7.020  -0.517  0.00  0.00    +0.022 A 
ATOM     23  C   LIG    1        8.659   5.617  -0.704  0.00  0.00    +0.026 A 
BRANCH  22  24
ATOM     24  C   LIG    1        7.567   7.891  -0.877  0.00  0.00    +0.107 A 
ATOM     25  C   LIG    1        6.228   7.509  -0.767  0.00  0.00    +0.149 A 
ATOM     26  F   LIG    1        5.880   6.299  -0.306  0.00  0.00    -0.203 F 
ATOM     27  C   LIG    1        5.218   8.395  -1.132  0.00  0.00    +0.042 A 
ATOM     28  C   LIG    1        5.556   9.663  -1.586  0.00  0.00    +0.023 A 
ATOM     29  C   LIG    1        6.898   9.979  -1.677  0.00  0.00    +0.111 A 
ATOM     30  N   LIG    1        7.893   9.117  -1.365  0.00  0.00    -0.252 NA
ENDBRANCH  22  24
ENDBRANCH  14  16
ENDBRANCH   4  12
BRANCH   1  32
ATOM     31  N   LIG    1        7.614  -2.004  -1.374  0.00  0.00    -0.243 NA
ATOM     32  C   LIG    1        8.776  -2.227  -0.878  0.00  0.00    +0.236 C 
BRANCH  32  33
ATOM     33  O   LIG    1        9.287  -3.439  -0.582  0.00  0.00    -0.491 OA
ATOM     34  H   LIG    1        8.654  -4.157  -0.691  0.00  0.00    +0.294 HD
ENDBRANCH  32  33
BRANCH  31  35
ATOM     35  C   LIG    1        6.742  -3.111  -1.735  0.00  0.00    +0.200 C 
BRANCH  35  40
ATOM     36  C   LIG    1        4.689  -0.179  -5.205  0.00  0.00    +0.086 C 
ATOM     37  C   LIG    1        4.932  -1.393  -4.393  0.00  0.00    +0.104 A 
ATOM     38  N   LIG    1        5.887  -1.444  -3.413  0.00  0.00    -0.344 N 
ATOM     39  H   LIG    1        6.516  -0.702  -3.138  0.00  0.00    +0.167 HD
ATOM     40  C   LIG    1        5.844  -2.688  -2.836  0.00  0.00    +0.057 A 
ATOM     41  C   LIG    1        4.853  -3.351  -3.525  0.00  0.00    +0.135 A 
ATOM     42  N   LIG    1        4.302  -2.545  -4.486  0.00  0.00    -0.241 NA
ENDBRANCH  35  40
ENDBRANCH  31  35
ENDBRANCH   1  32
TORSDOF 8
