REMARK  Name = pdb/CHEMBL3671388.pdb
REMARK                            x       y       z     vdW  Elec       q    Type
REMARK                         _______ _______ _______ _____ _____    ______ ____
ROOT
ATOM      1  C   LIG    1        2.316   5.542   0.824  0.00  0.00    +0.042 A 
ATOM      2  C   LIG    1        2.325   6.798   0.198  0.00  0.00    +0.038 A 
ATOM      3  C   LIG    1        1.149   7.313  -0.365  0.00  0.00    +0.053 A 
ATOM      4  C   LIG    1        0.012   6.509  -0.312  0.00  0.00    +0.134 A 
ATOM      5  N   LIG    1       -0.037   5.311   0.325  0.00  0.00    -0.261 NA
ATOM      6  C   LIG    1        1.104   4.872   0.905  0.00  0.00    +0.122 A 
ENDROOT
BRANCH   3   7
ATOM      7  N   LIG    1        1.174   8.610  -0.937  0.00  0.00    -0.279 N 
ATOM      8  H   LIG    1        2.079   9.080  -0.942  0.00  0.00    +0.155 HD
ATOM      9  C   LIG    1        0.108   9.282  -1.509  0.00  0.00    +0.267 C 
ATOM     10  O   LIG    1       -1.011   8.816  -1.679  0.00  0.00    -0.268 OA
BRANCH   9  11
ATOM     11  C   LIG    1        0.408  10.628  -1.951  0.00  0.00    +0.128 A 
ATOM     12  C   LIG    1        1.302  11.630  -1.598  0.00  0.00    +0.032 A 
ATOM     13  C   LIG    1        2.237  11.622  -0.577  0.00  0.00    +0.012 A 
ATOM     14  C   LIG    1        2.915  12.854  -0.465  0.00  0.00    +0.001 A 
ATOM     15  C   LIG    1        2.654  13.984  -1.296  0.00  0.00    +0.002 A 
ATOM     16  C   LIG    1        1.692  13.984  -2.326  0.00  0.00    +0.030 A 
ATOM     17  C   LIG    1        0.996  12.771  -2.460  0.00  0.00    +0.093 A 
ATOM     18  N   LIG    1        0.011  12.444  -3.309  0.00  0.00    -0.173 NA
ATOM     19  N   LIG    1       -0.334  11.196  -2.954  0.00  0.00    -0.271 N 
ATOM     20  H   LIG    1       -1.099  10.748  -3.461  0.00  0.00    +0.189 HD
ENDBRANCH   9  11
ENDBRANCH   3   7
BRANCH   1  21
ATOM     21  C   LIG    1        3.513   4.897   1.432  0.00  0.00    +0.197 C 
ATOM     22  O   LIG    1        3.369   4.233   2.454  0.00  0.00    -0.287 OA
BRANCH  21  30
ATOM     23  N   LIG    1        6.393   5.301  -0.792  0.00  0.00    -0.329 N 
ATOM     24  C   LIG    1        7.063   5.112   0.391  0.00  0.00    +0.145 A 
ATOM     25  N   LIG    1        8.400   5.117   0.538  0.00  0.00    -0.218 NA
ATOM     26  C   LIG    1        8.766   4.880   1.809  0.00  0.00    +0.223 A 
ATOM     27  N   LIG    1        7.967   4.637   2.865  0.00  0.00    -0.243 NA
ATOM     28  C   LIG    1        6.626   4.634   2.660  0.00  0.00    +0.124 A 
ATOM     29  C   LIG    1        6.117   4.899   1.387  0.00  0.00    +0.048 A 
ATOM     30  C   LIG    1        4.820   5.031   0.789  0.00  0.00    +0.051 A 
ATOM     31  C   LIG    1        5.040   5.241  -0.563  0.00  0.00    +0.100 A 
BRANCH  23  33
ATOM     32  C   LIG    1        7.278   4.164  -2.787  0.00  0.00    +0.030 C 
ATOM     33  C   LIG    1        7.033   5.503  -2.092  0.00  0.00    +0.083 C 
ATOM     34  C   LIG    1        6.235   6.448  -2.995  0.00  0.00    +0.030 C 
ENDBRANCH  23  33
ENDBRANCH  21  30
ENDBRANCH   1  21
TORSDOF 5
