REMARK  Name = pdb/CHEMBL3962675.pdb
REMARK                            x       y       z     vdW  Elec       q    Type
REMARK                         _______ _______ _______ _____ _____    ______ ____
ROOT
ATOM      1  C   LIG    1       -0.591  -6.371  -0.996  0.00  0.00    +0.323 A 
ATOM      2  N   LIG    1       -0.938  -5.635  -2.074  0.00  0.00    -0.201 NA
ATOM      3  C   LIG    1       -2.250  -5.650  -2.419  0.00  0.00    +0.145 A 
ATOM      4  C   LIG    1       -3.210  -6.403  -1.783  0.00  0.00    +0.105 A 
ATOM      5  C   LIG    1       -2.712  -7.117  -0.704  0.00  0.00    +0.145 A 
ATOM      6  N   LIG    1       -1.423  -7.135  -0.287  0.00  0.00    -0.201 NA
ENDROOT
BRANCH   4   7
ATOM      7  N   LIG    1       -4.587  -6.347  -2.128  0.00  0.00    -0.196 NA
ATOM      8  C   LIG    1       -5.322  -7.391  -1.996  0.00  0.00    +0.285 C 
BRANCH   8   9
ATOM      9  N   LIG    1       -6.687  -7.409  -2.149  0.00  0.00    -0.269 N 
ATOM     10  H   LIG    1       -7.036  -6.526  -2.509  0.00  0.00    +0.157 HD
BRANCH   9  11
ATOM     11  C   LIG    1       -7.622  -7.975  -1.227  0.00  0.00    +0.043 A 
ATOM     12  C   LIG    1       -9.017  -8.039  -1.508  0.00  0.00    +0.003 A 
ATOM     13  C   LIG    1       -9.826  -8.720  -0.558  0.00  0.00    +0.011 A 
ATOM     14  C   LIG    1       -9.313  -9.314   0.604  0.00  0.00    +0.013 A 
ATOM     15  C   LIG    1       -7.954  -9.243   0.879  0.00  0.00    +0.057 A 
ATOM     16  C   LIG    1       -7.141  -8.549  -0.022  0.00  0.00    +0.036 A 
BRANCH  12  17
ATOM     17  C   LIG    1       -9.696  -7.438  -2.706  0.00  0.00    -0.016 A 
ATOM     18  C   LIG    1      -10.996  -6.890  -2.597  0.00  0.00    +0.008 A 
ATOM     19  C   LIG    1      -11.687  -6.366  -3.698  0.00  0.00    +0.001 A 
ATOM     20  C   LIG    1      -11.083  -6.344  -4.947  0.00  0.00    +0.000 A 
ATOM     21  C   LIG    1       -9.801  -6.863  -5.092  0.00  0.00    +0.001 A 
ATOM     22  C   LIG    1       -9.126  -7.417  -3.991  0.00  0.00    +0.008 A 
ENDBRANCH  12  17
BRANCH  15  23
ATOM     23  C   LIG    1       -7.350  -9.912   2.090  0.00  0.00    +0.417 C 
ATOM     24  F   LIG    1       -7.567 -11.256   2.100  0.00  0.00    -0.166 F 
ATOM     25  F   LIG    1       -7.848  -9.436   3.261  0.00  0.00    -0.166 F 
ATOM     26  F   LIG    1       -5.998  -9.758   2.167  0.00  0.00    -0.166 F 
ENDBRANCH  15  23
ENDBRANCH   9  11
ENDBRANCH   8   9
BRANCH   8  27
ATOM     27  O   LIG    1       -4.793  -8.605  -1.709  0.00  0.00    -0.481 OA
ATOM     28  H   LIG    1       -5.471  -9.292  -1.698  0.00  0.00    +0.295 HD
ENDBRANCH   8  27
ENDBRANCH   4   7
BRANCH   1  29
ATOM     29  O   LIG    1        0.711  -6.321  -0.509  0.00  0.00    -0.424 OA
BRANCH  29  33
ATOM     30  C   LIG    1        2.970  -2.831  -1.193  0.00  0.00    -0.014 A 
ATOM     31  C   LIG    1        1.576  -2.768  -1.011  0.00  0.00    +0.012 A 
ATOM     32  C   LIG    1        0.819  -3.897  -0.713  0.00  0.00    +0.047 A 
ATOM     33  C   LIG    1        1.413  -5.156  -0.698  0.00  0.00    +0.132 A 
ATOM     34  C   LIG    1        2.793  -5.256  -0.841  0.00  0.00    +0.047 A 
ATOM     35  C   LIG    1        3.561  -4.103  -1.067  0.00  0.00    +0.012 A 
BRANCH  30  37
ATOM     36  C   LIG    1        4.923  -1.528  -2.248  0.00  0.00    +0.124 A 
ATOM     37  C   LIG    1        3.743  -1.589  -1.478  0.00  0.00    +0.023 A 
ATOM     38  C   LIG    1        3.277  -0.351  -0.980  0.00  0.00    +0.033 A 
ATOM     39  C   LIG    1        3.944   0.835  -1.255  0.00  0.00    +0.060 A 
ATOM     40 CL   LIG    1        3.335   2.333  -0.683  0.00  0.00    -0.082 Cl
ATOM     41  C   LIG    1        5.098   0.769  -2.004  0.00  0.00    +0.133 A 
ATOM     42  N   LIG    1        5.602  -0.384  -2.497  0.00  0.00    -0.239 NA
BRANCH  36  43
ATOM     43  N   LIG    1        5.512  -2.646  -2.835  0.00  0.00    -0.343 N 
ATOM     44  H   LIG    1        4.849  -3.138  -3.423  0.00  0.00    +0.144 HD
ATOM     45  H   LIG    1        6.312  -2.309  -3.365  0.00  0.00    +0.144 HD
ENDBRANCH  36  43
ENDBRANCH  30  37
ENDBRANCH  29  33
ENDBRANCH   1  29
TORSDOF 10
