REMARK  Name = pdb/CHEMBL3666256.pdb
REMARK                            x       y       z     vdW  Elec       q    Type
REMARK                         _______ _______ _______ _____ _____    ______ ____
ROOT
ATOM      1  C   LIG    1        3.311  -0.474  -5.537  0.00  0.00    +0.042 A 
ATOM      2  C   LIG    1        3.758  -0.818  -6.826  0.00  0.00    +0.038 A 
ATOM      3  C   LIG    1        2.871  -1.394  -7.749  0.00  0.00    +0.052 A 
ATOM      4  C   LIG    1        1.542  -1.535  -7.353  0.00  0.00    +0.134 A 
ATOM      5  N   LIG    1        1.070  -1.175  -6.134  0.00  0.00    -0.261 NA
ATOM      6  C   LIG    1        1.967  -0.683  -5.251  0.00  0.00    +0.122 A 
ENDROOT
BRANCH   3   7
ATOM      7  N   LIG    1        3.378  -1.833  -8.997  0.00  0.00    -0.283 N 
ATOM      8  H   LIG    1        4.384  -1.727  -9.140  0.00  0.00    +0.155 HD
ATOM      9  C   LIG    1        2.741  -2.692  -9.884  0.00  0.00    +0.239 C 
ATOM     10  O   LIG    1        1.577  -3.086  -9.782  0.00  0.00    -0.273 OA
BRANCH   9  11
ATOM     11  C   LIG    1        3.588  -3.131 -11.065  0.00  0.00    +0.239 C 
BRANCH  11  12
ATOM     12  N   LIG    1        4.719  -3.935 -10.641  0.00  0.00    -0.262 N 
ATOM     13  N   LIG    1        5.595  -3.423  -9.751  0.00  0.00    -0.167 NA
ATOM     14  C   LIG    1        6.430  -4.450  -9.479  0.00  0.00    +0.165 A 
ATOM     15  C   LIG    1        6.138  -5.564 -10.311  0.00  0.00    +0.053 A 
ATOM     16  C   LIG    1        5.043  -5.193 -11.054  0.00  0.00    +0.109 A 
BRANCH  14  17
ATOM     17  C   LIG    1        7.498  -4.372  -8.420  0.00  0.00    +0.436 C 
ATOM     18  F   LIG    1        6.976  -4.140  -7.186  0.00  0.00    -0.164 F 
ATOM     19  F   LIG    1        8.398  -3.384  -8.664  0.00  0.00    -0.164 F 
ATOM     20  F   LIG    1        8.207  -5.530  -8.328  0.00  0.00    -0.164 F 
ENDBRANCH  14  17
ENDBRANCH  11  12
ENDBRANCH   9  11
ENDBRANCH   3   7
BRANCH   1  21
ATOM     21  C   LIG    1        4.244   0.011  -4.476  0.00  0.00    +0.197 C 
ATOM     22  O   LIG    1        5.427  -0.356  -4.517  0.00  0.00    -0.287 OA
BRANCH  21  30
ATOM     23  N   LIG    1        2.628   2.653  -2.525  0.00  0.00    -0.329 N 
ATOM     24  C   LIG    1        3.576   2.277  -1.606  0.00  0.00    +0.147 A 
ATOM     25  N   LIG    1        3.807   2.895  -0.435  0.00  0.00    -0.197 NA
ATOM     26  C   LIG    1        4.723   2.276   0.314  0.00  0.00    +0.214 A 
ATOM     27  N   LIG    1        5.337   1.123   0.012  0.00  0.00    -0.222 NA
ATOM     28  C   LIG    1        5.079   0.528  -1.184  0.00  0.00    +0.126 A 
ATOM     29  C   LIG    1        4.214   1.141  -2.091  0.00  0.00    +0.048 A 
ATOM     30  C   LIG    1        3.765   0.936  -3.443  0.00  0.00    +0.051 A 
ATOM     31  C   LIG    1        2.767   1.885  -3.652  0.00  0.00    +0.100 A 
BRANCH  23  33
ATOM     32  C   LIG    1        2.121   5.052  -2.812  0.00  0.00    +0.030 C 
ATOM     33  C   LIG    1        1.626   3.696  -2.316  0.00  0.00    +0.083 C 
ATOM     34  C   LIG    1        0.270   3.360  -2.949  0.00  0.00    +0.030 C 
ENDBRANCH  23  33
BRANCH  26  35
ATOM     35  N   LIG    1        5.107   2.900   1.488  0.00  0.00    -0.327 N 
ATOM     36  H   LIG    1        4.954   3.896   1.412  0.00  0.00    +0.145 HD
ATOM     37  H   LIG    1        6.042   2.601   1.731  0.00  0.00    +0.145 HD
ENDBRANCH  26  35
ENDBRANCH  21  30
ENDBRANCH   1  21
TORSDOF 8
