REMARK  Name = pdb/CHEMBL3957446.pdb
REMARK                            x       y       z     vdW  Elec       q    Type
REMARK                         _______ _______ _______ _____ _____    ______ ____
ROOT
ATOM      1  C   LIG    1        4.393   0.427   4.439  0.00  0.00    +0.042 A 
ATOM      2  C   LIG    1        5.185  -0.251   5.378  0.00  0.00    +0.042 A 
ATOM      3  C   LIG    1        6.174   0.417   6.104  0.00  0.00    +0.086 A 
ATOM      4  C   LIG    1        6.300   1.785   5.863  0.00  0.00    +0.138 A 
ATOM      5  N   LIG    1        5.532   2.494   4.997  0.00  0.00    -0.260 NA
ATOM      6  C   LIG    1        4.586   1.796   4.319  0.00  0.00    +0.122 A 
ENDROOT
BRANCH   1   7
ATOM      7  C   LIG    1        3.365  -0.327   3.669  0.00  0.00    +0.197 C 
ATOM      8  O   LIG    1        2.879  -1.344   4.182  0.00  0.00    -0.287 OA
BRANCH   7  16
ATOM      9  N   LIG    1        3.095   0.990   0.250  0.00  0.00    -0.338 N 
ATOM     10  C   LIG    1        1.863   0.348   0.329  0.00  0.00    +0.053 A 
ATOM     11  C   LIG    1        0.830   0.161  -0.601  0.00  0.00    +0.046 A 
ATOM     12  C   LIG    1       -0.283  -0.536  -0.158  0.00  0.00    +0.113 A 
ATOM     13  N   LIG    1       -0.452  -0.989   1.097  0.00  0.00    -0.263 NA
ATOM     14  C   LIG    1        0.545  -0.804   1.998  0.00  0.00    +0.121 A 
ATOM     15  C   LIG    1        1.745  -0.166   1.633  0.00  0.00    +0.029 A 
ATOM     16  C   LIG    1        2.975   0.093   2.323  0.00  0.00    +0.049 A 
ATOM     17  C   LIG    1        3.792   0.741   1.414  0.00  0.00    +0.099 A 
BRANCH   9  19
ATOM     18  C   LIG    1        4.982   2.470  -0.534  0.00  0.00    +0.036 C 
ATOM     19  C   LIG    1        3.604   1.827  -0.868  0.00  0.00    +0.063 C 
ATOM     20  C   LIG    1        2.643   3.010  -1.122  0.00  0.00    +0.036 C 
BRANCH  19  21
ATOM     21  C   LIG    1        3.784   0.977  -2.152  0.00  0.00    +0.183 C 
BRANCH  21  22
ATOM     22  O   LIG    1        4.242   1.778  -3.242  0.00  0.00    -0.393 OA
ATOM     23  H   LIG    1        4.341   1.193  -4.013  0.00  0.00    +0.209 HD
ENDBRANCH  21  22
ENDBRANCH  19  21
ENDBRANCH   9  19
ENDBRANCH   7  16
ENDBRANCH   1   7
BRANCH   3  24
ATOM     24  N   LIG    1        6.971  -0.159   7.109  0.00  0.00    -0.216 NA
ATOM     25  C   LIG    1        7.378  -1.383   7.064  0.00  0.00    +0.192 C 
BRANCH  25  26
ATOM     26  O   LIG    1        7.098  -2.227   6.051  0.00  0.00    -0.495 OA
ATOM     27  H   LIG    1        7.478  -3.111   6.179  0.00  0.00    +0.293 HD
ENDBRANCH  25  26
BRANCH  25  28
ATOM     28  C   LIG    1        8.219  -1.966   8.174  0.00  0.00    +0.130 C 
BRANCH  28  29
ATOM     29  C   LIG    1        9.515  -2.550   7.669  0.00  0.00    -0.038 A 
ATOM     30  C   LIG    1        9.783  -3.917   7.811  0.00  0.00    +0.004 A 
ATOM     31  C   LIG    1       10.961  -4.460   7.296  0.00  0.00    +0.012 A 
ATOM     32  C   LIG    1       11.897  -3.646   6.639  0.00  0.00    +0.055 A 
ATOM     33  C   LIG    1       11.634  -2.275   6.515  0.00  0.00    +0.012 A 
ATOM     34  C   LIG    1       10.454  -1.732   7.026  0.00  0.00    +0.004 A 
BRANCH  32  35
ATOM     35  C   LIG    1       13.158  -4.257   6.080  0.00  0.00    +0.417 C 
ATOM     36  F   LIG    1       12.898  -5.220   5.152  0.00  0.00    -0.166 F 
ATOM     37  F   LIG    1       13.916  -4.857   7.039  0.00  0.00    -0.166 F 
ATOM     38  F   LIG    1       13.976  -3.358   5.464  0.00  0.00    -0.166 F 
ENDBRANCH  32  35
ENDBRANCH  28  29
ENDBRANCH  25  28
ENDBRANCH   3  24
TORSDOF 10
