REMARK  Name = pdb/CHEMBL3676021.pdb
REMARK                            x       y       z     vdW  Elec       q    Type
REMARK                         _______ _______ _______ _____ _____    ______ ____
ROOT
ATOM      1  C   LIG    1        2.338  -2.068  -0.364  0.00  0.00    +0.126 A 
ATOM      2  N   LIG    1        2.590  -0.876  -0.859  0.00  0.00    -0.212 NA
ATOM      3  C   LIG    1        2.415  -0.685  -2.202  0.00  0.00    +0.170 A 
ATOM      4  C   LIG    1        2.631   0.415  -3.009  0.00  0.00    +0.100 A 
ATOM      5  C   LIG    1        2.341  -0.045  -4.310  0.00  0.00    +0.150 A 
ATOM      6  N   LIG    1        1.928  -1.313  -4.339  0.00  0.00    -0.173 NA
ATOM      7  N   LIG    1        1.959  -1.700  -3.043  0.00  0.00    -0.221 N 
ATOM      8  C   LIG    1        1.598  -2.930  -2.520  0.00  0.00    +0.118 A 
ATOM      9  C   LIG    1        1.734  -3.168  -1.210  0.00  0.00    +0.063 A 
ENDROOT
BRANCH   1  11
ATOM     10  C   LIG    1        3.190  -1.244   1.857  0.00  0.00    +0.110 C 
ATOM     11  N   LIG    1        2.630  -2.308   0.974  0.00  0.00    -0.308 N 
ATOM     12  C   LIG    1        3.010  -3.629   1.466  0.00  0.00    +0.107 C 
ATOM     13  C   LIG    1        4.270  -3.375   2.270  0.00  0.00    +0.021 C 
ATOM     14  C   LIG    1        4.011  -2.021   2.908  0.00  0.00    +0.029 C 
BRANCH  10  16
ATOM     15  C   LIG    1        2.381   0.691   3.338  0.00  0.00    +0.220 A 
ATOM     16  C   LIG    1        2.103  -0.380   2.477  0.00  0.00    +0.037 A 
ATOM     17  C   LIG    1        0.744  -0.612   2.198  0.00  0.00    +0.050 A 
ATOM     18  C   LIG    1       -0.240   0.167   2.781  0.00  0.00    +0.142 A 
ATOM     19  F   LIG    1       -1.530  -0.064   2.512  0.00  0.00    -0.204 F 
ATOM     20  C   LIG    1        0.136   1.170   3.643  0.00  0.00    +0.153 A 
ATOM     21  N   LIG    1        1.425   1.455   3.927  0.00  0.00    -0.218 NA
BRANCH  15  23
ATOM     22  C   LIG    1        3.841   2.156   4.442  0.00  0.00    +0.279 C 
ATOM     23  O   LIG    1        3.700   1.001   3.605  0.00  0.00    -0.479 OA
ENDBRANCH  15  23
ENDBRANCH  10  16
ENDBRANCH   1  11
BRANCH   4  24
ATOM     24  C   LIG    1        3.075   1.744  -2.637  0.00  0.00    +0.249 C 
ATOM     25  N   LIG    1        3.295   1.935  -1.287  0.00  0.00    -0.309 N 
ATOM     26  H   LIG    1        3.076   1.157  -0.666  0.00  0.00    +0.149 HD
ATOM     27  O   LIG    1        3.241   2.624  -3.464  0.00  0.00    -0.270 OA
BRANCH  25  28
ATOM     28  C   LIG    1        3.615   3.243  -0.744  0.00  0.00    +0.138 C 
BRANCH  28  29
ATOM     29  C   LIG    1        4.409   3.131   0.561  0.00  0.00    +0.157 C 
BRANCH  29  30
ATOM     30  O   LIG    1        5.628   2.389   0.360  0.00  0.00    -0.388 OA
ATOM     31  H   LIG    1        5.704   2.210  -0.596  0.00  0.00    +0.210 HD
ENDBRANCH  29  30
BRANCH  29  32
ATOM     32  C   LIG    1        4.802   4.510   1.097  0.00  0.00    +0.188 C 
BRANCH  32  33
ATOM     33  O   LIG    1        5.591   4.356   2.278  0.00  0.00    -0.392 OA
ATOM     34  H   LIG    1        6.218   3.633   2.069  0.00  0.00    +0.210 HD
ENDBRANCH  32  33
ENDBRANCH  29  32
ENDBRANCH  28  29
ENDBRANCH  25  28
ENDBRANCH   4  24
TORSDOF 9
