REMARK  Name = pdb/CHEMBL3678284.pdb
REMARK                            x       y       z     vdW  Elec       q    Type
REMARK                         _______ _______ _______ _____ _____    ______ ____
ROOT
ATOM      1  C   LIG    1        4.688  -1.884   0.057  0.00  0.00    +0.162 A 
ATOM      2  C   LIG    1        5.163  -1.287  -1.137  0.00  0.00    +0.162 A 
ATOM      3  C   LIG    1        6.289  -0.455  -1.050  0.00  0.00    +0.050 A 
ATOM      4  C   LIG    1        7.058  -0.377   0.102  0.00  0.00    +0.009 A 
ATOM      5  C   LIG    1        6.709  -1.112   1.225  0.00  0.00    -0.024 A 
ATOM      6  C   LIG    1        5.492  -1.807   1.209  0.00  0.00    +0.054 A 
ENDROOT
BRANCH   1   8
ATOM      7  C   LIG    1        2.988  -2.974   1.353  0.00  0.00    +0.277 C 
ATOM      8  O   LIG    1        3.462  -2.515   0.075  0.00  0.00    -0.491 OA
ENDBRANCH   1   8
BRANCH   2   9
ATOM      9  O   LIG    1        4.574  -1.578  -2.357  0.00  0.00    -0.484 OA
BRANCH   9  10
ATOM     10  C   LIG    1        5.203  -1.008  -3.531  0.00  0.00    +0.264 C 
BRANCH  10  11
ATOM     11  C   LIG    1        5.113  -1.882  -4.762  0.00  0.00    -0.010 A 
ATOM     12  C   LIG    1        4.014  -1.791  -5.617  0.00  0.00    +0.008 A 
ATOM     13  C   LIG    1        3.862  -2.701  -6.665  0.00  0.00    +0.015 A 
ATOM     14  C   LIG    1        4.813  -3.705  -6.874  0.00  0.00    +0.016 A 
ATOM     15  C   LIG    1        5.982  -3.712  -6.111  0.00  0.00    +0.015 A 
ATOM     16  C   LIG    1        6.138  -2.795  -5.069  0.00  0.00    +0.008 A 
BRANCH  14  17
ATOM     17  S   LIG    1        4.424  -5.078  -7.937  0.00  0.00    -0.016 S 
BRANCH  17  18
ATOM     18  C   LIG    1        5.193  -4.569  -9.469  0.00  0.00    +0.448 C 
ATOM     19  F   LIG    1        4.271  -4.480 -10.458  0.00  0.00    -0.160 F 
ATOM     20  F   LIG    1        6.113  -5.482  -9.865  0.00  0.00    -0.160 F 
ATOM     21  F   LIG    1        5.820  -3.374  -9.396  0.00  0.00    -0.160 F 
ENDBRANCH  17  18
ENDBRANCH  14  17
ENDBRANCH  10  11
ENDBRANCH   9  10
ENDBRANCH   2   9
BRANCH   5  22
ATOM     22  C   LIG    1        7.549  -1.133   2.474  0.00  0.00    +0.161 C 
BRANCH  22  23
ATOM     23  N   LIG    1        8.986  -1.073   2.275  0.00  0.00    -0.293 N 
ATOM     24  C   LIG    1        9.721  -1.809   1.378  0.00  0.00    +0.162 A 
ATOM     25  N   LIG    1        9.268  -2.547   0.346  0.00  0.00    -0.235 NA
ATOM     26  C   LIG    1       10.268  -3.151  -0.342  0.00  0.00    +0.121 A 
ATOM     27  C   LIG    1       11.632  -3.106  -0.037  0.00  0.00    +0.005 A 
ATOM     28  C   LIG    1       12.028  -2.319   1.055  0.00  0.00    +0.041 A 
ATOM     29  C   LIG    1       11.039  -1.635   1.767  0.00  0.00    +0.110 A 
ATOM     30  N   LIG    1       11.120  -0.782   2.840  0.00  0.00    -0.213 NA
ATOM     31  C   LIG    1        9.895  -0.440   3.100  0.00  0.00    +0.195 A 
BRANCH  27  32
ATOM     32  C   LIG    1       12.592  -3.863  -0.822  0.00  0.00    +0.021 A 
ATOM     33  C   LIG    1       13.953  -3.900  -0.595  0.00  0.00    +0.116 A 
ATOM     34  N   LIG    1       14.481  -4.735  -1.535  0.00  0.00    -0.274 N 
ATOM     35  C   LIG    1       15.873  -5.078  -1.689  0.00  0.00    +0.172 C 
ATOM     36  N   LIG    1       13.565  -5.245  -2.375  0.00  0.00    -0.179 NA
ATOM     37  C   LIG    1       12.417  -4.723  -1.935  0.00  0.00    +0.143 A 
ENDBRANCH  27  32
BRANCH  31  38
ATOM     38  N   LIG    1        9.513   0.420   4.073  0.00  0.00    -0.329 N 
ATOM     39  H   LIG    1       10.303   0.874   4.526  0.00  0.00    +0.145 HD
ATOM     40  H   LIG    1        8.783   1.090   3.870  0.00  0.00    +0.145 HD
ENDBRANCH  31  38
ENDBRANCH  22  23
ENDBRANCH   5  22
TORSDOF 10
