REMARK  Name = pdb/CHEMBL3675922.pdb
REMARK                            x       y       z     vdW  Elec       q    Type
REMARK                         _______ _______ _______ _____ _____    ______ ____
ROOT
ATOM      1  C   LIG    1        5.656  -6.468  -3.449  0.00  0.00    +0.100 A 
ATOM      2  C   LIG    1        6.129  -6.414  -4.753  0.00  0.00    +0.170 A 
ATOM      3  N   LIG    1        6.517  -5.371  -5.566  0.00  0.00    -0.212 NA
ATOM      4  C   LIG    1        6.998  -5.659  -6.761  0.00  0.00    +0.126 A 
ATOM      5  C   LIG    1        6.999  -7.078  -7.289  0.00  0.00    +0.063 A 
ATOM      6  C   LIG    1        6.616  -8.050  -6.458  0.00  0.00    +0.118 A 
ATOM      7  N   LIG    1        6.204  -7.744  -5.176  0.00  0.00    -0.221 N 
ATOM      8  N   LIG    1        5.822  -8.617  -4.217  0.00  0.00    -0.173 NA
ATOM      9  C   LIG    1        5.523  -7.845  -3.175  0.00  0.00    +0.150 A 
ENDROOT
BRANCH   4  10
ATOM     10  N   LIG    1        7.514  -4.646  -7.569  0.00  0.00    -0.308 N 
ATOM     11  C   LIG    1        8.588  -4.898  -8.553  0.00  0.00    +0.108 C 
ATOM     12  C   LIG    1        9.520  -3.692  -8.410  0.00  0.00    +0.029 C 
ATOM     13  C   LIG    1        8.581  -2.563  -8.030  0.00  0.00    +0.021 C 
ATOM     14  C   LIG    1        7.567  -3.249  -7.116  0.00  0.00    +0.107 C 
BRANCH  11  15
ATOM     15  C   LIG    1        8.046  -5.076  -9.959  0.00  0.00    +0.011 A 
ATOM     16  C   LIG    1        8.757  -5.878 -10.863  0.00  0.00    +0.129 A 
ATOM     17  F   LIG    1        9.900  -6.460 -10.473  0.00  0.00    -0.205 F 
ATOM     18  C   LIG    1        8.301  -6.111 -12.160  0.00  0.00    +0.041 A 
ATOM     19  C   LIG    1        7.107  -5.533 -12.583  0.00  0.00    +0.041 A 
ATOM     20  C   LIG    1        6.402  -4.715 -11.707  0.00  0.00    +0.124 A 
ATOM     21  F   LIG    1        5.259  -4.148 -12.114  0.00  0.00    -0.205 F 
ATOM     22  C   LIG    1        6.858  -4.479 -10.411  0.00  0.00    +0.046 A 
ENDBRANCH  11  15
ENDBRANCH   4  10
BRANCH   1  25
ATOM     23  N   LIG    1        4.986  -4.209  -3.125  0.00  0.00    -0.308 N 
ATOM     24  H   LIG    1        4.925  -4.215  -4.138  0.00  0.00    +0.149 HD
ATOM     25  C   LIG    1        5.364  -5.390  -2.529  0.00  0.00    +0.249 C 
ATOM     26  O   LIG    1        5.392  -5.552  -1.312  0.00  0.00    -0.270 OA
BRANCH  23  30
ATOM     27  N   LIG    1        2.521  -1.627  -3.852  0.00  0.00    -0.181 NA
ATOM     28  C   LIG    1        2.170  -2.853  -3.093  0.00  0.00    +0.111 C 
ATOM     29  C   LIG    1        3.130  -3.060  -1.924  0.00  0.00    +0.039 C 
ATOM     30  C   LIG    1        4.598  -3.032  -2.357  0.00  0.00    +0.076 C 
ATOM     31  C   LIG    1        4.880  -1.742  -3.122  0.00  0.00    +0.039 C 
ATOM     32  C   LIG    1        3.929  -1.548  -4.298  0.00  0.00    +0.111 C 
BRANCH  27  34
ATOM     33  C   LIG    1        1.078  -2.309  -6.089  0.00  0.00    +0.215 C 
ATOM     34  S   LIG    1        1.346  -0.997  -4.906  0.00  0.00    +0.029 S 
ATOM     35  O   LIG    1        0.125  -0.834  -4.161  0.00  0.00    -0.158 OA
ATOM     36  O   LIG    1        1.942   0.116  -5.624  0.00  0.00    -0.158 OA
ENDBRANCH  27  34
ENDBRANCH  23  30
ENDBRANCH   1  25
TORSDOF 5
