REMARK  Name = pdb/CHEMBL3906654.pdb
REMARK                            x       y       z     vdW  Elec       q    Type
REMARK                         _______ _______ _______ _____ _____    ______ ____
ROOT
ATOM      1  N   LIG    1       -4.437  -7.876  -2.574  0.00  0.00    -0.196 NA
ATOM      2  C   LIG    1       -5.051  -7.317  -3.566  0.00  0.00    +0.285 C 
ENDROOT
BRANCH   1   6
ATOM      3  C   LIG    1       -0.711  -6.768  -1.083  0.00  0.00    +0.323 A 
ATOM      4  N   LIG    1       -0.918  -6.530  -2.385  0.00  0.00    -0.201 NA
ATOM      5  C   LIG    1       -2.133  -6.904  -2.869  0.00  0.00    +0.145 A 
ATOM      6  C   LIG    1       -3.163  -7.461  -2.135  0.00  0.00    +0.105 A 
ATOM      7  C   LIG    1       -2.809  -7.664  -0.811  0.00  0.00    +0.145 A 
ATOM      8  N   LIG    1       -1.609  -7.354  -0.272  0.00  0.00    -0.201 NA
BRANCH   3   9
ATOM      9  O   LIG    1        0.543  -6.396  -0.612  0.00  0.00    -0.424 OA
BRANCH   9  13
ATOM     10  C   LIG    1        1.758  -6.907   3.403  0.00  0.00    -0.014 A 
ATOM     11  C   LIG    1        0.419  -6.611   3.089  0.00  0.00    +0.012 A 
ATOM     12  C   LIG    1       -0.012  -6.427   1.775  0.00  0.00    +0.047 A 
ATOM     13  C   LIG    1        0.871  -6.571   0.712  0.00  0.00    +0.132 A 
ATOM     14  C   LIG    1        2.211  -6.840   0.990  0.00  0.00    +0.047 A 
ATOM     15  C   LIG    1        2.643  -7.022   2.315  0.00  0.00    +0.012 A 
BRANCH  10  17
ATOM     16  C   LIG    1        3.428  -6.709   5.348  0.00  0.00    +0.124 A 
ATOM     17  C   LIG    1        2.171  -7.077   4.823  0.00  0.00    +0.023 A 
ATOM     18  C   LIG    1        1.251  -7.607   5.756  0.00  0.00    +0.033 A 
ATOM     19  C   LIG    1        1.583  -7.737   7.097  0.00  0.00    +0.060 A 
ATOM     20 CL   LIG    1        0.438  -8.335   8.226  0.00  0.00    -0.082 Cl
ATOM     21  C   LIG    1        2.849  -7.363   7.491  0.00  0.00    +0.133 A 
ATOM     22  N   LIG    1        3.778  -6.860   6.646  0.00  0.00    -0.239 NA
BRANCH  16  23
ATOM     23  N   LIG    1        4.435  -6.130   4.578  0.00  0.00    -0.343 N 
ATOM     24  H   LIG    1        4.100  -5.287   4.125  0.00  0.00    +0.144 HD
ATOM     25  H   LIG    1        5.206  -5.934   5.213  0.00  0.00    +0.144 HD
ENDBRANCH  16  23
ENDBRANCH  10  17
ENDBRANCH   9  13
ENDBRANCH   3   9
ENDBRANCH   1   6
BRANCH   2  26
ATOM     26  N   LIG    1       -6.292  -7.590  -4.085  0.00  0.00    -0.267 N 
ATOM     27  H   LIG    1       -6.575  -7.007  -4.847  0.00  0.00    +0.157 HD
BRANCH  26  28
ATOM     28  C   LIG    1       -7.149  -8.691  -3.863  0.00  0.00    +0.061 A 
ATOM     29  C   LIG    1       -8.569  -8.652  -3.995  0.00  0.00    +0.087 A 
ATOM     30  C   LIG    1       -9.331  -9.803  -3.672  0.00  0.00    +0.030 A 
ATOM     31  C   LIG    1       -8.729 -10.982  -3.242  0.00  0.00    +0.014 A 
ATOM     32  C   LIG    1       -7.347 -11.038  -3.082  0.00  0.00    +0.057 A 
ATOM     33  C   LIG    1       -6.583  -9.897  -3.382  0.00  0.00    +0.037 A 
BRANCH  29  34
ATOM     34  N   LIG    1       -9.346  -7.523  -4.431  0.00  0.00    -0.238 N 
ATOM     35  N   LIG    1      -10.671  -7.423  -4.096  0.00  0.00    -0.162 NA
ATOM     36  C   LIG    1      -11.109  -6.268  -4.637  0.00  0.00    +0.166 A 
ATOM     37  C   LIG    1      -10.073  -5.647  -5.369  0.00  0.00    +0.054 A 
ATOM     38  C   LIG    1       -8.994  -6.490  -5.269  0.00  0.00    +0.115 A 
BRANCH  36  39
ATOM     39  C   LIG    1      -12.531  -5.763  -4.509  0.00  0.00    +0.436 C 
ATOM     40  F   LIG    1      -12.883  -5.503  -3.222  0.00  0.00    -0.164 F 
ATOM     41  F   LIG    1      -13.447  -6.634  -5.010  0.00  0.00    -0.164 F 
ATOM     42  F   LIG    1      -12.705  -4.596  -5.194  0.00  0.00    -0.164 F 
ENDBRANCH  36  39
ENDBRANCH  29  34
BRANCH  32  43
ATOM     43  C   LIG    1       -6.702 -12.310  -2.594  0.00  0.00    +0.417 C 
ATOM     44  F   LIG    1       -6.943 -13.362  -3.425  0.00  0.00    -0.166 F 
ATOM     45  F   LIG    1       -7.163 -12.688  -1.370  0.00  0.00    -0.166 F 
ATOM     46  F   LIG    1       -5.348 -12.232  -2.478  0.00  0.00    -0.166 F 
ENDBRANCH  32  43
ENDBRANCH  26  28
ENDBRANCH   2  26
BRANCH   2  47
ATOM     47  O   LIG    1       -4.462  -6.290  -4.208  0.00  0.00    -0.481 OA
ATOM     48  H   LIG    1       -4.875  -6.079  -5.056  0.00  0.00    +0.295 HD
ENDBRANCH   2  47
TORSDOF 11
