REMARK  Name = pdb/CHEMBL3671144.pdb
REMARK                            x       y       z     vdW  Elec       q    Type
REMARK                         _______ _______ _______ _____ _____    ______ ____
ROOT
ATOM      1  C   LIG    1        6.424   1.659  -1.870  0.00  0.00    +0.100 A 
ATOM      2  C   LIG    1        6.442   3.036  -1.692  0.00  0.00    +0.170 A 
ATOM      3  N   LIG    1        5.451   3.984  -1.669  0.00  0.00    -0.212 NA
ATOM      4  C   LIG    1        5.799   5.245  -1.502  0.00  0.00    +0.126 A 
ATOM      5  C   LIG    1        7.244   5.657  -1.318  0.00  0.00    +0.063 A 
ATOM      6  C   LIG    1        8.166   4.690  -1.327  0.00  0.00    +0.118 A 
ATOM      7  N   LIG    1        7.788   3.374  -1.512  0.00  0.00    -0.221 N 
ATOM      8  N   LIG    1        8.600   2.293  -1.525  0.00  0.00    -0.173 NA
ATOM      9  C   LIG    1        7.775   1.273  -1.740  0.00  0.00    +0.150 A 
ENDROOT
BRANCH   4  10
ATOM     10  N   LIG    1        4.820   6.229  -1.456  0.00  0.00    -0.308 N 
ATOM     11  C   LIG    1        3.372   5.936  -1.449  0.00  0.00    +0.108 C 
ATOM     12  C   LIG    1        2.767   7.172  -2.143  0.00  0.00    +0.029 C 
ATOM     13  C   LIG    1        3.707   8.299  -1.756  0.00  0.00    +0.021 C 
ATOM     14  C   LIG    1        5.070   7.629  -1.793  0.00  0.00    +0.107 C 
BRANCH  11  15
ATOM     15  C   LIG    1        2.832   5.729  -0.040  0.00  0.00    +0.011 A 
ATOM     16  C   LIG    1        1.461   5.500   0.164  0.00  0.00    +0.129 A 
ATOM     17  F   LIG    1        0.624   5.476  -0.884  0.00  0.00    -0.205 F 
ATOM     18  C   LIG    1        0.926   5.296   1.439  0.00  0.00    +0.041 A 
ATOM     19  C   LIG    1        1.768   5.299   2.548  0.00  0.00    +0.041 A 
ATOM     20  C   LIG    1        3.128   5.508   2.364  0.00  0.00    +0.124 A 
ATOM     21  F   LIG    1        3.946   5.508   3.424  0.00  0.00    -0.205 F 
ATOM     22  C   LIG    1        3.659   5.721   1.095  0.00  0.00    +0.046 A 
ENDBRANCH  11  15
ENDBRANCH   4  10
BRANCH   1  25
ATOM     23  N   LIG    1        4.089   1.173  -1.664  0.00  0.00    -0.303 N 
ATOM     24  H   LIG    1        4.026   2.094  -1.234  0.00  0.00    +0.150 HD
ATOM     25  C   LIG    1        5.320   0.759  -2.111  0.00  0.00    +0.250 C 
ATOM     26  O   LIG    1        5.508  -0.359  -2.607  0.00  0.00    -0.270 OA
BRANCH  23  27
ATOM     27  C   LIG    1        2.900   0.341  -1.728  0.00  0.00    +0.058 C 
ATOM     28  C   LIG    1        1.544   1.017  -1.767  0.00  0.00    +0.030 C 
ATOM     29  C   LIG    1        2.095   0.397  -3.012  0.00  0.00    +0.030 C 
BRANCH  27  30
ATOM     30  C   LIG    1        2.964  -1.016  -1.024  0.00  0.00    +0.181 C 
BRANCH  30  31
ATOM     31  O   LIG    1        3.736  -0.928   0.170  0.00  0.00    -0.393 OA
ATOM     32  H   LIG    1        4.655  -0.826  -0.131  0.00  0.00    +0.209 HD
ENDBRANCH  30  31
ENDBRANCH  27  30
ENDBRANCH  23  27
ENDBRANCH   1  25
TORSDOF 6
