REMARK  Name = pdb/CHEMBL3676053.pdb
REMARK                            x       y       z     vdW  Elec       q    Type
REMARK                         _______ _______ _______ _____ _____    ______ ____
ROOT
ATOM      1  C   LIG    1        1.260  -1.342   2.676  0.00  0.00    +0.126 A 
ATOM      2  N   LIG    1        1.556  -0.188   2.107  0.00  0.00    -0.212 NA
ATOM      3  C   LIG    1        1.140   0.968   2.724  0.00  0.00    +0.170 A 
ATOM      4  C   LIG    1        1.238   2.309   2.389  0.00  0.00    +0.100 A 
ATOM      5  C   LIG    1        0.584   2.984   3.444  0.00  0.00    +0.150 A 
ATOM      6  N   LIG    1        0.106   2.168   4.379  0.00  0.00    -0.173 NA
ATOM      7  N   LIG    1        0.437   0.936   3.935  0.00  0.00    -0.221 N 
ATOM      8  C   LIG    1        0.142  -0.265   4.552  0.00  0.00    +0.118 A 
ATOM      9  C   LIG    1        0.523  -1.417   3.995  0.00  0.00    +0.063 A 
ENDROOT
BRANCH   1  11
ATOM     10  C   LIG    1        2.353  -2.545   0.770  0.00  0.00    +0.107 C 
ATOM     11  N   LIG    1        1.637  -2.532   2.059  0.00  0.00    -0.308 N 
ATOM     12  C   LIG    1        0.875  -3.779   2.209  0.00  0.00    +0.107 C 
ATOM     13  C   LIG    1        0.894  -4.417   0.826  0.00  0.00    +0.021 C 
ATOM     14  C   LIG    1        2.249  -4.001   0.295  0.00  0.00    +0.029 C 
BRANCH  10  17
ATOM     15  C   LIG    1        3.767  -1.416  -1.595  0.00  0.00    +0.066 C 
ATOM     16  C   LIG    1        4.450  -1.552  -0.263  0.00  0.00    +0.043 A 
ATOM     17  C   LIG    1        3.797  -2.103   0.853  0.00  0.00    -0.003 A 
ATOM     18  C   LIG    1        4.557  -2.269   2.024  0.00  0.00    +0.047 A 
ATOM     19  C   LIG    1        5.879  -1.855   2.056  0.00  0.00    +0.142 A 
ATOM     20  F   LIG    1        6.614  -2.011   3.164  0.00  0.00    -0.204 F 
ATOM     21  C   LIG    1        6.427  -1.292   0.923  0.00  0.00    +0.149 A 
ATOM     22  N   LIG    1        5.747  -1.145  -0.237  0.00  0.00    -0.257 NA
ENDBRANCH  10  17
ENDBRANCH   1  11
BRANCH   4  23
ATOM     23  C   LIG    1        1.829   2.977   1.254  0.00  0.00    +0.249 C 
ATOM     24  N   LIG    1        2.521   2.211   0.340  0.00  0.00    -0.308 N 
ATOM     25  H   LIG    1        2.569   1.212   0.518  0.00  0.00    +0.149 HD
ATOM     26  O   LIG    1        1.723   4.200   1.127  0.00  0.00    -0.270 OA
BRANCH  24  27
ATOM     27  C   LIG    1        3.194   2.862  -0.802  0.00  0.00    +0.073 C 
ATOM     28  C   LIG    1        4.305   2.057  -1.506  0.00  0.00    +0.022 C 
ATOM     29  C   LIG    1        5.111   3.369  -1.600  0.00  0.00    +0.004 C 
ATOM     30  C   LIG    1        4.305   3.865  -0.390  0.00  0.00    +0.022 C 
ENDBRANCH  24  27
ENDBRANCH   4  23
TORSDOF 4
