REMARK  Name = pdb/CHEMBL3671406.pdb
REMARK                            x       y       z     vdW  Elec       q    Type
REMARK                         _______ _______ _______ _____ _____    ______ ____
ROOT
ATOM      1  C   LIG    1        2.803  -4.680   3.710  0.00  0.00    +0.042 A 
ATOM      2  C   LIG    1        2.149  -4.131   4.828  0.00  0.00    +0.038 A 
ATOM      3  C   LIG    1        1.825  -4.924   5.941  0.00  0.00    +0.052 A 
ATOM      4  C   LIG    1        2.217  -6.259   5.899  0.00  0.00    +0.134 A 
ATOM      5  N   LIG    1        2.862  -6.825   4.846  0.00  0.00    -0.261 NA
ATOM      6  C   LIG    1        3.117  -6.034   3.771  0.00  0.00    +0.122 A 
ENDROOT
BRANCH   3   7
ATOM      7  N   LIG    1        1.107  -4.325   7.007  0.00  0.00    -0.284 N 
ATOM      8  H   LIG    1        0.835  -3.354   6.887  0.00  0.00    +0.155 HD
ATOM      9  C   LIG    1        0.632  -4.967   8.142  0.00  0.00    +0.223 C 
ATOM     10  O   LIG    1        0.763  -6.163   8.394  0.00  0.00    -0.275 OA
BRANCH   9  11
ATOM     11  C   LIG    1       -0.088  -4.059   9.123  0.00  0.00    +0.151 C 
BRANCH  11  12
ATOM     12  C   LIG    1       -1.564  -3.984   8.841  0.00  0.00    +0.050 A 
ATOM     13  N   LIG    1       -1.971  -3.030   7.965  0.00  0.00    -0.258 NA
ATOM     14  C   LIG    1       -3.297  -2.981   7.671  0.00  0.00    +0.129 A 
ATOM     15  C   LIG    1       -4.245  -3.843   8.203  0.00  0.00    +0.070 A 
ATOM     16  C   LIG    1       -3.810  -4.803   9.114  0.00  0.00    +0.022 A 
ATOM     17  C   LIG    1       -2.455  -4.876   9.440  0.00  0.00    +0.025 A 
BRANCH  15  18
ATOM     18  C   LIG    1       -5.609  -3.757   7.808  0.00  0.00    +0.101 C 
ATOM     19  N   LIG    1       -6.727  -3.690   7.475  0.00  0.00    -0.191 NA
ENDBRANCH  15  18
ENDBRANCH  11  12
ENDBRANCH   9  11
ENDBRANCH   3   7
BRANCH   1  20
ATOM     20  C   LIG    1        3.061  -3.905   2.447  0.00  0.00    +0.197 C 
ATOM     21  O   LIG    1        3.030  -4.506   1.377  0.00  0.00    -0.287 OA
BRANCH  20  29
ATOM     22  N   LIG    1        3.737  -0.406   3.359  0.00  0.00    -0.326 N 
ATOM     23  C   LIG    1        3.234  -0.206   2.092  0.00  0.00    +0.147 A 
ATOM     24  N   LIG    1        3.010   0.991   1.523  0.00  0.00    -0.197 NA
ATOM     25  C   LIG    1        2.613   0.913   0.252  0.00  0.00    +0.214 A 
ATOM     26  N   LIG    1        2.423  -0.215  -0.445  0.00  0.00    -0.222 NA
ATOM     27  C   LIG    1        2.638  -1.411   0.164  0.00  0.00    +0.126 A 
ATOM     28  C   LIG    1        3.032  -1.450   1.501  0.00  0.00    +0.048 A 
ATOM     29  C   LIG    1        3.276  -2.450   2.503  0.00  0.00    +0.051 A 
ATOM     30  C   LIG    1        3.839  -1.765   3.567  0.00  0.00    +0.100 A 
BRANCH  22  32
ATOM     31  C   LIG    1        5.246   1.542   3.694  0.00  0.00    +0.034 C 
ATOM     32  C   LIG    1        4.147   0.652   4.310  0.00  0.00    +0.039 C 
ATOM     33  C   LIG    1        2.950   1.538   4.714  0.00  0.00    +0.034 C 
ATOM     34  C   LIG    1        4.714   0.042   5.615  0.00  0.00    +0.034 C 
ENDBRANCH  22  32
BRANCH  25  35
ATOM     35  N   LIG    1        2.334   2.106  -0.390  0.00  0.00    -0.327 N 
ATOM     36  H   LIG    1        2.092   2.816   0.286  0.00  0.00    +0.145 HD
ATOM     37  H   LIG    1        1.680   1.941  -1.142  0.00  0.00    +0.145 HD
ENDBRANCH  25  35
ENDBRANCH  20  29
ENDBRANCH   1  20
TORSDOF 8
