REMARK  Name = pdb/CHEMBL3906307.pdb
REMARK                            x       y       z     vdW  Elec       q    Type
REMARK                         _______ _______ _______ _____ _____    ______ ____
ROOT
ATOM      1  C   LIG    1        7.070   5.888  -0.046  0.00  0.00    +0.149 A 
ATOM      2  N   LIG    1        6.714   6.764  -1.005  0.00  0.00    -0.160 NA
ATOM      3  N   LIG    1        5.945   7.690  -0.373  0.00  0.00    -0.218 N 
ATOM      4  C   LIG    1        5.603   7.280   0.919  0.00  0.00    +0.129 A 
ATOM      5  C   LIG    1        6.367   6.159   1.153  0.00  0.00    +0.078 A 
ENDROOT
BRANCH   3   6
ATOM      6  C   LIG    1        5.607   8.906  -1.033  0.00  0.00    +0.067 A 
ATOM      7  C   LIG    1        5.477   8.935  -2.431  0.00  0.00    +0.028 A 
ATOM      8  C   LIG    1        5.199  10.140  -3.086  0.00  0.00    +0.002 A 
ATOM      9  C   LIG    1        5.085  11.323  -2.357  0.00  0.00    +0.000 A 
ATOM     10  C   LIG    1        5.228  11.302  -0.971  0.00  0.00    +0.002 A 
ATOM     11  C   LIG    1        5.482  10.099  -0.306  0.00  0.00    +0.028 A 
ENDBRANCH   3   6
BRANCH   4  12
ATOM     12  N   LIG    1        4.663   7.853   1.791  0.00  0.00    -0.266 N 
ATOM     13  H   LIG    1        4.241   8.731   1.513  0.00  0.00    +0.157 HD
ATOM     14  C   LIG    1        4.145   7.167   2.951  0.00  0.00    +0.251 C 
ATOM     15  O   LIG    1        4.503   6.017   3.204  0.00  0.00    -0.270 OA
BRANCH  14  16
ATOM     16  C   LIG    1        3.185   7.896   3.812  0.00  0.00    +0.056 A 
ATOM     17  C   LIG    1        2.213   7.229   4.564  0.00  0.00    +0.054 A 
ATOM     18 CL   LIG    1        1.870   5.543   4.420  0.00  0.00    -0.083 Cl
ATOM     19  C   LIG    1        1.402   7.948   5.439  0.00  0.00    +0.041 A 
ATOM     20  C   LIG    1        1.480   9.344   5.522  0.00  0.00    +0.052 A 
ATOM     21 CL   LIG    1        0.324  10.045   6.600  0.00  0.00    -0.083 Cl
ATOM     22  C   LIG    1        2.391  10.066   4.723  0.00  0.00    +0.022 A 
ATOM     23  C   LIG    1        3.274   9.298   3.915  0.00  0.00    +0.026 A 
BRANCH  22  24
ATOM     24  C   LIG    1        2.463  11.547   4.616  0.00  0.00    +0.107 A 
ATOM     25  C   LIG    1        2.287  12.437   5.675  0.00  0.00    +0.149 A 
ATOM     26  F   LIG    1        2.084  12.024   6.930  0.00  0.00    -0.203 F 
ATOM     27  C   LIG    1        2.411  13.804   5.470  0.00  0.00    +0.042 A 
ATOM     28  C   LIG    1        2.752  14.275   4.213  0.00  0.00    +0.023 A 
ATOM     29  C   LIG    1        2.921  13.348   3.198  0.00  0.00    +0.111 A 
ATOM     30  N   LIG    1        2.784  12.007   3.365  0.00  0.00    -0.252 NA
ENDBRANCH  22  24
ENDBRANCH  14  16
ENDBRANCH   4  12
BRANCH   1  32
ATOM     31  N   LIG    1        8.312   4.015   0.732  0.00  0.00    -0.244 NA
ATOM     32  C   LIG    1        8.048   4.807  -0.242  0.00  0.00    +0.236 C 
BRANCH  32  33
ATOM     33  O   LIG    1        8.621   4.755  -1.461  0.00  0.00    -0.491 OA
ATOM     34  H   LIG    1        9.183   3.979  -1.568  0.00  0.00    +0.294 HD
ENDBRANCH  32  33
BRANCH  31  35
ATOM     35  C   LIG    1        9.316   2.961   0.639  0.00  0.00    +0.183 C 
BRANCH  35  40
ATOM     36  C   LIG    1        6.307  -0.915  -0.491  0.00  0.00    +0.172 C 
ATOM     37  N   LIG    1        7.438  -0.034  -0.329  0.00  0.00    -0.274 N 
ATOM     38  N   LIG    1        8.614  -0.356  -0.895  0.00  0.00    -0.180 NA
ATOM     39  C   LIG    1        9.402   0.678  -0.598  0.00  0.00    +0.139 A 
ATOM     40  C   LIG    1        8.737   1.681   0.149  0.00  0.00    +0.011 A 
ATOM     41  C   LIG    1        7.470   1.159   0.335  0.00  0.00    +0.113 A 
ENDBRANCH  35  40
ENDBRANCH  31  35
ENDBRANCH   1  32
TORSDOF 8
