REMARK  Name = pdb/CHEMBL3582440.pdb
REMARK                            x       y       z     vdW  Elec       q    Type
REMARK                         _______ _______ _______ _____ _____    ______ ____
ROOT
ATOM      1  C   LIG    1        4.797  -3.761  -5.109  0.00  0.00    +0.111 A 
ATOM      2  N   LIG    1        5.017  -5.129  -5.031  0.00  0.00    -0.209 N 
ATOM      3  N   LIG    1        5.373  -5.845  -3.917  0.00  0.00    -0.149 NA
ATOM      4  C   LIG    1        5.467  -7.145  -4.083  0.00  0.00    +0.143 A 
ATOM      5  C   LIG    1        5.253  -7.787  -5.425  0.00  0.00    +0.049 A 
ATOM      6  C   LIG    1        4.915  -7.031  -6.467  0.00  0.00    +0.051 A 
ATOM      7  C   LIG    1        4.764  -5.643  -6.293  0.00  0.00    +0.155 A 
ATOM      8  N   LIG    1        4.412  -4.714  -7.151  0.00  0.00    -0.234 NA
ATOM      9  C   LIG    1        4.415  -3.553  -6.424  0.00  0.00    +0.143 A 
ENDROOT
BRANCH   1  12
ATOM     10  C   LIG    1        4.231  -0.681  -3.288  0.00  0.00    +0.122 A 
ATOM     11  N   LIG    1        4.133  -1.690  -4.185  0.00  0.00    -0.230 NA
ATOM     12  C   LIG    1        4.929  -2.783  -4.034  0.00  0.00    +0.093 A 
ATOM     13  C   LIG    1        5.838  -2.908  -2.996  0.00  0.00    +0.030 A 
ATOM     14  C   LIG    1        5.938  -1.872  -2.076  0.00  0.00    +0.005 A 
ATOM     15  C   LIG    1        5.132  -0.747  -2.227  0.00  0.00    +0.044 A 
BRANCH  10  19
ATOM     16  C   LIG    1        2.006   2.594  -4.795  0.00  0.00    +0.118 C 
ATOM     17  C   LIG    1        3.358   2.837  -4.133  0.00  0.00    +0.050 C 
ATOM     18  C   LIG    1        4.190   1.554  -4.062  0.00  0.00    +0.109 C 
ATOM     19  N   LIG    1        3.419   0.483  -3.399  0.00  0.00    -0.315 N 
ATOM     20  C   LIG    1        2.151   0.181  -4.084  0.00  0.00    +0.109 C 
ATOM     21  C   LIG    1        1.276   1.436  -4.120  0.00  0.00    +0.050 C 
BRANCH  16  22
ATOM     22  O   LIG    1        2.204   2.327  -6.182  0.00  0.00    -0.392 OA
ATOM     23  H   LIG    1        1.332   2.169  -6.584  0.00  0.00    +0.210 HD
ENDBRANCH  16  22
ENDBRANCH  10  19
ENDBRANCH   1  12
BRANCH   4  24
ATOM     24  N   LIG    1        5.775  -7.936  -2.985  0.00  0.00    -0.307 N 
ATOM     25  C   LIG    1        5.433  -9.361  -2.867  0.00  0.00    +0.105 C 
ATOM     26  C   LIG    1        5.183  -9.566  -1.367  0.00  0.00    +0.029 C 
ATOM     27  C   LIG    1        6.090  -8.543  -0.707  0.00  0.00    +0.021 C 
ATOM     28  C   LIG    1        6.024  -7.355  -1.661  0.00  0.00    +0.107 C 
BRANCH  25  29
ATOM     29  C   LIG    1        6.528 -10.266  -3.410  0.00  0.00    -0.024 A 
ATOM     30  C   LIG    1        7.878  -9.884  -3.429  0.00  0.00    +0.043 A 
ATOM     31  C   LIG    1        8.846 -10.740  -3.945  0.00  0.00    +0.124 A 
ATOM     32  F   LIG    1       10.128 -10.355  -3.953  0.00  0.00    -0.205 F 
ATOM     33  C   LIG    1        8.503 -11.986  -4.454  0.00  0.00    +0.038 A 
ATOM     34  C   LIG    1        7.170 -12.386  -4.440  0.00  0.00    +0.003 A 
ATOM     35  C   LIG    1        6.190 -11.536  -3.916  0.00  0.00    +0.005 A 
ENDBRANCH  25  29
ENDBRANCH   4  24
TORSDOF 5
