REMARK  Name = pdb/CHEMBL3930935.pdb
REMARK                            x       y       z     vdW  Elec       q    Type
REMARK                         _______ _______ _______ _____ _____    ______ ____
ROOT
ATOM      1  N   LIG    1        6.185   1.837   4.542  0.00  0.00    -0.266 N 
ATOM      2  H   LIG    1        6.399   2.327   5.401  0.00  0.00    +0.157 HD
ATOM      3  C   LIG    1        6.355   2.529   3.289  0.00  0.00    +0.251 C 
ATOM      4  O   LIG    1        6.204   1.949   2.233  0.00  0.00    -0.270 OA
ENDROOT
BRANCH   3   5
ATOM      5  C   LIG    1        6.735   3.976   3.315  0.00  0.00    +0.056 A 
ATOM      6  C   LIG    1        6.916   4.732   4.467  0.00  0.00    +0.054 A 
ATOM      7 CL   LIG    1        6.779   4.142   6.080  0.00  0.00    -0.083 Cl
ATOM      8  C   LIG    1        7.221   6.087   4.368  0.00  0.00    +0.041 A 
ATOM      9  C   LIG    1        7.344   6.721   3.127  0.00  0.00    +0.052 A 
ATOM     10 CL   LIG    1        7.545   8.435   3.232  0.00  0.00    -0.083 Cl
ATOM     11  C   LIG    1        7.214   5.999   1.926  0.00  0.00    +0.022 A 
ATOM     12  C   LIG    1        6.893   4.618   2.060  0.00  0.00    +0.026 A 
BRANCH  11  13
ATOM     13  C   LIG    1        7.339   6.581   0.561  0.00  0.00    +0.107 A 
ATOM     14  C   LIG    1        8.233   7.593   0.200  0.00  0.00    +0.149 A 
ATOM     15  F   LIG    1        9.145   8.075   1.054  0.00  0.00    -0.203 F 
ATOM     16  C   LIG    1        8.237   8.097  -1.096  0.00  0.00    +0.042 A 
ATOM     17  C   LIG    1        7.392   7.538  -2.043  0.00  0.00    +0.023 A 
ATOM     18  C   LIG    1        6.571   6.499  -1.643  0.00  0.00    +0.111 A 
ATOM     19  N   LIG    1        6.518   6.019  -0.374  0.00  0.00    -0.252 NA
ENDBRANCH  11  13
ENDBRANCH   3   5
BRANCH   1  23
ATOM     20  C   LIG    1        5.453  -1.659   4.220  0.00  0.00    +0.149 A 
ATOM     21  N   LIG    1        5.634  -1.598   5.548  0.00  0.00    -0.160 NA
ATOM     22  N   LIG    1        5.745  -0.276   5.830  0.00  0.00    -0.218 N 
ATOM     23  C   LIG    1        5.833   0.490   4.662  0.00  0.00    +0.129 A 
ATOM     24  C   LIG    1        5.583  -0.383   3.631  0.00  0.00    +0.078 A 
BRANCH  22  25
ATOM     25  C   LIG    1        5.818   0.146   7.188  0.00  0.00    +0.067 A 
ATOM     26  C   LIG    1        5.383   1.415   7.586  0.00  0.00    +0.028 A 
ATOM     27  C   LIG    1        5.510   1.814   8.921  0.00  0.00    +0.002 A 
ATOM     28  C   LIG    1        6.043   0.941   9.868  0.00  0.00    +0.000 A 
ATOM     29  C   LIG    1        6.433  -0.341   9.487  0.00  0.00    +0.002 A 
ATOM     30  C   LIG    1        6.310  -0.745   8.155  0.00  0.00    +0.028 A 
ENDBRANCH  22  25
BRANCH  20  32
ATOM     31  N   LIG    1        4.579  -2.857   2.381  0.00  0.00    -0.249 NA
ATOM     32  C   LIG    1        5.192  -2.901   3.505  0.00  0.00    +0.236 C 
BRANCH  31  34
ATOM     33  C   LIG    1        2.989  -4.672   2.044  0.00  0.00    +0.029 C 
ATOM     34  C   LIG    1        4.306  -4.057   1.607  0.00  0.00    +0.142 C 
ENDBRANCH  31  34
BRANCH  32  35
ATOM     35  O   LIG    1        5.645  -4.019   4.107  0.00  0.00    -0.491 OA
ATOM     36  H   LIG    1        5.408  -4.813   3.616  0.00  0.00    +0.294 HD
ENDBRANCH  32  35
ENDBRANCH  20  32
ENDBRANCH   1  23
TORSDOF 7
