REMARK  Name = pdb/CHEMBL3675997.pdb
REMARK                            x       y       z     vdW  Elec       q    Type
REMARK                         _______ _______ _______ _____ _____    ______ ____
ROOT
ATOM      1  C   LIG    1        3.871  -1.037  -4.136  0.00  0.00    +0.100 A 
ATOM      2  C   LIG    1        3.968   0.005  -5.049  0.00  0.00    +0.170 A 
ATOM      3  N   LIG    1        4.029   1.374  -4.910  0.00  0.00    -0.212 NA
ATOM      4  C   LIG    1        4.120   2.106  -6.005  0.00  0.00    +0.126 A 
ATOM      5  C   LIG    1        4.072   1.487  -7.382  0.00  0.00    +0.063 A 
ATOM      6  C   LIG    1        4.035   0.156  -7.461  0.00  0.00    +0.118 A 
ATOM      7  N   LIG    1        4.008  -0.605  -6.309  0.00  0.00    -0.221 N 
ATOM      8  N   LIG    1        4.013  -1.952  -6.234  0.00  0.00    -0.173 NA
ATOM      9  C   LIG    1        3.936  -2.203  -4.930  0.00  0.00    +0.150 A 
ENDROOT
BRANCH   4  10
ATOM     10  N   LIG    1        4.262   3.487  -5.905  0.00  0.00    -0.308 N 
ATOM     11  C   LIG    1        5.007   4.280  -6.899  0.00  0.00    +0.107 C 
ATOM     12  C   LIG    1        5.656   5.408  -6.084  0.00  0.00    +0.029 C 
ATOM     13  C   LIG    1        4.709   5.591  -4.913  0.00  0.00    +0.021 C 
ATOM     14  C   LIG    1        4.305   4.156  -4.603  0.00  0.00    +0.107 C 
BRANCH  11  15
ATOM     15  C   LIG    1        4.122   4.806  -8.006  0.00  0.00    -0.006 A 
ATOM     16  C   LIG    1        4.656   5.047  -9.280  0.00  0.00    +0.046 A 
ATOM     17  C   LIG    1        3.839   5.548 -10.285  0.00  0.00    +0.142 A 
ATOM     18  F   LIG    1        4.339   5.785 -11.504  0.00  0.00    -0.204 F 
ATOM     19  C   LIG    1        2.510   5.798 -10.005  0.00  0.00    +0.149 A 
ATOM     20  N   LIG    1        1.951   5.576  -8.794  0.00  0.00    -0.260 NA
ATOM     21  C   LIG    1        2.766   5.085  -7.828  0.00  0.00    +0.116 A 
ENDBRANCH  11  15
ENDBRANCH   4  10
BRANCH   1  24
ATOM     22  N   LIG    1        3.717   0.220  -2.102  0.00  0.00    -0.308 N 
ATOM     23  H   LIG    1        3.695   1.020  -2.724  0.00  0.00    +0.149 HD
ATOM     24  C   LIG    1        3.764  -1.018  -2.690  0.00  0.00    +0.249 C 
ATOM     25  O   LIG    1        3.731  -2.067  -2.041  0.00  0.00    -0.270 OA
BRANCH  22  27
ATOM     26  C   LIG    1        2.354   0.390  -0.047  0.00  0.00    +0.028 C 
ATOM     27  C   LIG    1        3.755   0.393  -0.661  0.00  0.00    +0.073 C 
BRANCH  27  28
ATOM     28  C   LIG    1        4.526   1.628  -0.251  0.00  0.00    +0.009 C 
ATOM     29  C   LIG    1        4.841   2.806  -1.142  0.00  0.00    +0.005 C 
ATOM     30  C   LIG    1        5.926   1.831  -0.783  0.00  0.00    +0.005 C 
ENDBRANCH  27  28
ENDBRANCH  22  27
ENDBRANCH   1  24
TORSDOF 5
