REMARK  Name = pdb/CHEMBL3916880.pdb
REMARK                            x       y       z     vdW  Elec       q    Type
REMARK                         _______ _______ _______ _____ _____    ______ ____
ROOT
ATOM      1  C   LIG    1        8.498   0.502  -4.028  0.00  0.00    +0.100 A 
ATOM      2  C   LIG    1        9.708   1.169  -3.983  0.00  0.00    +0.170 A 
ATOM      3  N   LIG    1       10.002   2.516  -3.986  0.00  0.00    -0.212 NA
ATOM      4  C   LIG    1       11.264   2.879  -3.893  0.00  0.00    +0.126 A 
ATOM      5  C   LIG    1       12.373   1.849  -3.816  0.00  0.00    +0.063 A 
ATOM      6  C   LIG    1       12.028   0.553  -3.836  0.00  0.00    +0.118 A 
ATOM      7  N   LIG    1       10.697   0.191  -3.917  0.00  0.00    -0.221 N 
ATOM      8  N   LIG    1       10.175  -1.058  -3.936  0.00  0.00    -0.173 NA
ATOM      9  C   LIG    1        8.854  -0.861  -4.000  0.00  0.00    +0.150 A 
ENDROOT
BRANCH   4  10
ATOM     10  N   LIG    1       11.587   4.235  -3.872  0.00  0.00    -0.308 N 
ATOM     11  C   LIG    1       12.799   4.769  -3.219  0.00  0.00    +0.108 C 
ATOM     12  C   LIG    1       12.305   6.068  -2.561  0.00  0.00    +0.029 C 
ATOM     13  C   LIG    1       11.243   6.568  -3.520  0.00  0.00    +0.021 C 
ATOM     14  C   LIG    1       10.556   5.281  -3.960  0.00  0.00    +0.107 C 
BRANCH  11  15
ATOM     15  C   LIG    1       13.946   5.006  -4.187  0.00  0.00    +0.011 A 
ATOM     16  C   LIG    1       15.134   5.578  -3.702  0.00  0.00    +0.129 A 
ATOM     17  F   LIG    1       15.244   5.874  -2.399  0.00  0.00    -0.205 F 
ATOM     18  C   LIG    1       16.214   5.862  -4.535  0.00  0.00    +0.041 A 
ATOM     19  C   LIG    1       16.132   5.560  -5.890  0.00  0.00    +0.041 A 
ATOM     20  C   LIG    1       14.978   4.963  -6.384  0.00  0.00    +0.124 A 
ATOM     21  F   LIG    1       14.900   4.668  -7.688  0.00  0.00    -0.205 F 
ATOM     22  C   LIG    1       13.895   4.678  -5.552  0.00  0.00    +0.046 A 
ENDBRANCH  11  15
ENDBRANCH   4  10
BRANCH   1  24
ATOM     23  N   LIG    1        6.133   0.404  -4.217  0.00  0.00    -0.247 NA
ATOM     24  C   LIG    1        7.188   1.116  -4.098  0.00  0.00    +0.221 C 
BRANCH  23  29
ATOM     25  C   LIG    1        2.191  -0.907  -6.579  0.00  0.00    +0.041 C 
ATOM     26  C   LIG    1        3.639  -1.009  -6.087  0.00  0.00    +0.063 C 
ATOM     27  C   LIG    1        3.689  -1.165  -4.553  0.00  0.00    +0.036 C 
ATOM     28  C   LIG    1        3.730   0.154  -3.783  0.00  0.00    +0.029 C 
ATOM     29  C   LIG    1        4.827   1.088  -4.308  0.00  0.00    +0.109 C 
ATOM     30  C   LIG    1        4.474   1.414  -5.763  0.00  0.00    +0.029 C 
ATOM     31  C   LIG    1        4.479   0.162  -6.640  0.00  0.00    +0.036 C 
BRANCH  26  32
ATOM     32  O   LIG    1        4.154  -2.221  -6.661  0.00  0.00    -0.389 OA
ATOM     33  H   LIG    1        5.070  -2.317  -6.343  0.00  0.00    +0.210 HD
ENDBRANCH  26  32
ENDBRANCH  23  29
BRANCH  24  34
ATOM     34  O   LIG    1        7.177   2.470  -4.039  0.00  0.00    -0.492 OA
ATOM     35  H   LIG    1        8.088   2.816  -3.995  0.00  0.00    +0.294 HD
ENDBRANCH  24  34
ENDBRANCH   1  24
TORSDOF 6
