REMARK  Name = pdb/CHEMBL3676077.pdb
REMARK                            x       y       z     vdW  Elec       q    Type
REMARK                         _______ _______ _______ _____ _____    ______ ____
ROOT
ATOM      1  N   LIG    1       -0.077   4.654   0.956  0.00  0.00    -0.308 N 
ATOM      2  C   LIG    1       -0.283   6.090   0.625  0.00  0.00    +0.109 C 
ATOM      3  C   LIG    1       -1.819   6.262   0.577  0.00  0.00    +0.029 C 
ATOM      4  C   LIG    1       -2.387   4.853   0.578  0.00  0.00    +0.021 C 
ATOM      5  C   LIG    1       -1.353   4.062   1.350  0.00  0.00    +0.107 C 
ENDROOT
BRANCH   1   9
ATOM      6  C   LIG    1        4.675   4.928   1.897  0.00  0.00    +0.100 A 
ATOM      7  C   LIG    1        3.400   4.404   1.820  0.00  0.00    +0.170 A 
ATOM      8  N   LIG    1        2.201   4.934   1.427  0.00  0.00    -0.212 NA
ATOM      9  C   LIG    1        1.143   4.152   1.406  0.00  0.00    +0.126 A 
ATOM     10  C   LIG    1        1.228   2.705   1.861  0.00  0.00    +0.063 A 
ATOM     11  C   LIG    1        2.421   2.241   2.247  0.00  0.00    +0.118 A 
ATOM     12  N   LIG    1        3.529   3.065   2.212  0.00  0.00    -0.221 N 
ATOM     13  N   LIG    1        4.804   2.733   2.521  0.00  0.00    -0.173 NA
ATOM     14  C   LIG    1        5.488   3.848   2.292  0.00  0.00    +0.150 A 
BRANCH   6  18
ATOM     15  N   LIG    1        4.162   7.248   1.804  0.00  0.00    -0.325 N 
ATOM     16  H   LIG    1        3.214   6.997   2.008  0.00  0.00    +0.145 HD
ATOM     17  H   LIG    1        4.423   8.197   1.602  0.00  0.00    +0.145 HD
ATOM     18  C   LIG    1        5.116   6.280   1.620  0.00  0.00    +0.247 C 
ATOM     19  O   LIG    1        6.254   6.564   1.309  0.00  0.00    -0.270 OA
ENDBRANCH   6  18
ENDBRANCH   1   9
BRANCH   2  20
ATOM     20  C   LIG    1        0.363   6.548  -0.675  0.00  0.00    +0.017 A 
ATOM     21  C   LIG    1        0.782   7.895  -0.852  0.00  0.00    +0.126 A 
ATOM     22  C   LIG    1        1.383   8.280  -2.062  0.00  0.00    +0.049 A 
ATOM     23  C   LIG    1        1.546   7.355  -3.099  0.00  0.00    +0.042 A 
ATOM     24  C   LIG    1        1.112   6.049  -2.932  0.00  0.00    +0.124 A 
ATOM     25  F   LIG    1        1.251   5.172  -3.935  0.00  0.00    -0.205 F 
ATOM     26  C   LIG    1        0.528   5.641  -1.740  0.00  0.00    +0.047 A 
BRANCH  21  27
ATOM     27  O   LIG    1        0.490   8.786   0.161  0.00  0.00    -0.489 OA
BRANCH  27  28
ATOM     28  C   LIG    1        1.372   9.918   0.322  0.00  0.00    +0.262 C 
BRANCH  28  29
ATOM     29  C   LIG    1        0.874  10.787   1.493  0.00  0.00    +0.177 C 
BRANCH  29  30
ATOM     30  O   LIG    1        0.862  10.030   2.716  0.00  0.00    -0.386 OA
ATOM     31  H   LIG    1        0.177   9.346   2.600  0.00  0.00    +0.210 HD
ENDBRANCH  29  30
BRANCH  29  32
ATOM     32  C   LIG    1        1.757  12.017   1.733  0.00  0.00    +0.190 C 
BRANCH  32  33
ATOM     33  O   LIG    1        1.240  12.764   2.839  0.00  0.00    -0.392 OA
ATOM     34  H   LIG    1        1.048  12.099   3.531  0.00  0.00    +0.210 HD
ENDBRANCH  32  33
ENDBRANCH  29  32
ENDBRANCH  28  29
ENDBRANCH  27  28
ENDBRANCH  21  27
ENDBRANCH   2  20
TORSDOF 9
