REMARK  Name = pdb/CHEMBL3984502.pdb
REMARK                            x       y       z     vdW  Elec       q    Type
REMARK                         _______ _______ _______ _____ _____    ______ ____
ROOT
ATOM      1  C   LIG    1       -0.490  -7.188  -1.912  0.00  0.00    +0.323 A 
ATOM      2  N   LIG    1       -0.884  -8.338  -2.471  0.00  0.00    -0.201 NA
ATOM      3  C   LIG    1       -2.076  -8.820  -2.043  0.00  0.00    +0.145 A 
ATOM      4  C   LIG    1       -2.885  -8.249  -1.080  0.00  0.00    +0.105 A 
ATOM      5  C   LIG    1       -2.391  -7.026  -0.635  0.00  0.00    +0.145 A 
ATOM      6  N   LIG    1       -1.227  -6.468  -1.043  0.00  0.00    -0.201 NA
ENDROOT
BRANCH   4   7
ATOM      7  N   LIG    1       -4.115  -8.748  -0.590  0.00  0.00    -0.196 NA
ATOM      8  C   LIG    1       -4.297 -10.022  -0.434  0.00  0.00    +0.285 C 
BRANCH   8   9
ATOM      9  N   LIG    1       -5.459 -10.645  -0.048  0.00  0.00    -0.267 N 
ATOM     10  H   LIG    1       -6.307 -10.085  -0.119  0.00  0.00    +0.157 HD
BRANCH   9  11
ATOM     11  C   LIG    1       -5.594 -11.818   0.749  0.00  0.00    +0.061 A 
ATOM     12  C   LIG    1       -6.630 -12.772   0.587  0.00  0.00    +0.088 A 
ATOM     13  C   LIG    1       -6.582 -13.985   1.311  0.00  0.00    +0.030 A 
ATOM     14  C   LIG    1       -5.543 -14.266   2.190  0.00  0.00    +0.014 A 
ATOM     15  C   LIG    1       -4.528 -13.334   2.388  0.00  0.00    +0.057 A 
ATOM     16  C   LIG    1       -4.582 -12.114   1.692  0.00  0.00    +0.037 A 
BRANCH  12  17
ATOM     17  N   LIG    1       -7.734 -12.588  -0.296  0.00  0.00    -0.218 N 
ATOM     18  N   LIG    1       -7.923 -11.460  -1.020  0.00  0.00    -0.061 NA
ATOM     19  N   LIG    1       -9.051 -11.582  -1.711  0.00  0.00    -0.138 NA
ATOM     20  C   LIG    1       -9.594 -12.795  -1.424  0.00  0.00    +0.156 A 
ATOM     21  C   LIG    1       -8.784 -13.453  -0.537  0.00  0.00    +0.136 A 
ENDBRANCH  12  17
BRANCH  15  22
ATOM     22  C   LIG    1       -3.365 -13.680   3.285  0.00  0.00    +0.417 C 
ATOM     23  F   LIG    1       -2.715 -14.797   2.855  0.00  0.00    -0.166 F 
ATOM     24  F   LIG    1       -3.747 -13.938   4.565  0.00  0.00    -0.166 F 
ATOM     25  F   LIG    1       -2.423 -12.703   3.356  0.00  0.00    -0.166 F 
ENDBRANCH  15  22
ENDBRANCH   9  11
ENDBRANCH   8   9
BRANCH   8  26
ATOM     26  O   LIG    1       -3.319 -10.901  -0.726  0.00  0.00    -0.481 OA
ATOM     27  H   LIG    1       -3.708 -11.787  -0.859  0.00  0.00    +0.295 HD
ENDBRANCH   8  26
ENDBRANCH   4   7
BRANCH   1  28
ATOM     28  O   LIG    1        0.786  -6.761  -2.260  0.00  0.00    -0.424 OA
BRANCH  28  32
ATOM     29  C   LIG    1        3.031  -4.393   0.425  0.00  0.00    -0.014 A 
ATOM     30  C   LIG    1        2.123  -5.353   0.900  0.00  0.00    +0.012 A 
ATOM     31  C   LIG    1        1.400  -6.182   0.038  0.00  0.00    +0.047 A 
ATOM     32  C   LIG    1        1.499  -6.025  -1.342  0.00  0.00    +0.132 A 
ATOM     33  C   LIG    1        2.410  -5.103  -1.849  0.00  0.00    +0.047 A 
ATOM     34  C   LIG    1        3.165  -4.301  -0.977  0.00  0.00    +0.012 A 
BRANCH  29  36
ATOM     35  C   LIG    1        4.210  -3.867   2.653  0.00  0.00    +0.124 A 
ATOM     36  C   LIG    1        3.788  -3.501   1.351  0.00  0.00    +0.024 A 
ATOM     37  C   LIG    1        4.113  -2.187   0.957  0.00  0.00    +0.051 A 
ATOM     38  C   LIG    1        4.810  -1.344   1.810  0.00  0.00    +0.142 A 
ATOM     39  F   LIG    1        5.135  -0.105   1.419  0.00  0.00    -0.204 F 
ATOM     40  C   LIG    1        5.160  -1.801   3.059  0.00  0.00    +0.151 A 
ATOM     41  N   LIG    1        4.868  -3.042   3.500  0.00  0.00    -0.237 NA
BRANCH  35  42
ATOM     42  N   LIG    1        3.999  -5.131   3.199  0.00  0.00    -0.343 N 
ATOM     43  H   LIG    1        4.403  -5.849   2.608  0.00  0.00    +0.144 HD
ATOM     44  H   LIG    1        4.423  -5.121   4.124  0.00  0.00    +0.144 HD
ENDBRANCH  35  42
ENDBRANCH  29  36
ENDBRANCH  28  32
ENDBRANCH   1  28
TORSDOF 10
