REMARK  Name = pdb/CHEMBL3676035.pdb
REMARK                            x       y       z     vdW  Elec       q    Type
REMARK                         _______ _______ _______ _____ _____    ______ ____
ROOT
ATOM      1  C   LIG    1        7.585  -1.646  -2.169  0.00  0.00    +0.100 A 
ATOM      2  C   LIG    1        8.308  -2.667  -1.585  0.00  0.00    +0.170 A 
ATOM      3  N   LIG    1        7.947  -3.918  -1.151  0.00  0.00    -0.212 NA
ATOM      4  C   LIG    1        8.892  -4.706  -0.684  0.00  0.00    +0.126 A 
ATOM      5  C   LIG    1       10.351  -4.311  -0.732  0.00  0.00    +0.063 A 
ATOM      6  C   LIG    1       10.636  -3.056  -1.092  0.00  0.00    +0.118 A 
ATOM      7  N   LIG    1        9.622  -2.204  -1.490  0.00  0.00    -0.221 N 
ATOM      8  N   LIG    1        9.733  -0.907  -1.854  0.00  0.00    -0.173 NA
ATOM      9  C   LIG    1        8.508  -0.582  -2.269  0.00  0.00    +0.150 A 
ENDROOT
BRANCH   4  10
ATOM     10  N   LIG    1        8.549  -5.924  -0.111  0.00  0.00    -0.308 N 
ATOM     11  C   LIG    1        7.136  -6.314   0.096  0.00  0.00    +0.108 C 
ATOM     12  C   LIG    1        7.124  -6.731   1.575  0.00  0.00    +0.029 C 
ATOM     13  C   LIG    1        8.469  -7.413   1.757  0.00  0.00    +0.021 C 
ATOM     14  C   LIG    1        9.400  -6.548   0.917  0.00  0.00    +0.107 C 
BRANCH  11  15
ATOM     15  C   LIG    1        6.732  -7.429  -0.859  0.00  0.00    +0.011 A 
ATOM     16  C   LIG    1        5.390  -7.600  -1.228  0.00  0.00    +0.129 A 
ATOM     17  F   LIG    1        4.451  -6.769  -0.752  0.00  0.00    -0.205 F 
ATOM     18  C   LIG    1        4.991  -8.621  -2.098  0.00  0.00    +0.041 A 
ATOM     19  C   LIG    1        5.939  -9.502  -2.616  0.00  0.00    +0.041 A 
ATOM     20  C   LIG    1        7.270  -9.347  -2.259  0.00  0.00    +0.124 A 
ATOM     21  F   LIG    1        8.192 -10.187  -2.746  0.00  0.00    -0.205 F 
ATOM     22  C   LIG    1        7.667  -8.330  -1.398  0.00  0.00    +0.046 A 
ENDBRANCH  11  15
ENDBRANCH   4  10
BRANCH   1  25
ATOM     23  N   LIG    1        5.495  -2.795  -2.377  0.00  0.00    -0.309 N 
ATOM     24  H   LIG    1        6.004  -3.576  -1.968  0.00  0.00    +0.149 HD
ATOM     25  C   LIG    1        6.192  -1.621  -2.575  0.00  0.00    +0.249 C 
ATOM     26  O   LIG    1        5.671  -0.615  -3.023  0.00  0.00    -0.270 OA
BRANCH  23  27
ATOM     27  C   LIG    1        4.076  -2.945  -2.686  0.00  0.00    +0.135 C 
BRANCH  27  29
ATOM     28  C   LIG    1        1.691  -2.714  -1.820  0.00  0.00    +0.039 C 
ATOM     29  C   LIG    1        3.171  -2.540  -1.504  0.00  0.00    +0.128 C 
BRANCH  29  30
ATOM     30  O   LIG    1        3.351  -1.172  -1.140  0.00  0.00    -0.391 OA
ATOM     31  H   LIG    1        4.294  -0.958  -1.258  0.00  0.00    +0.210 HD
ENDBRANCH  29  30
ENDBRANCH  27  29
ENDBRANCH  23  27
ENDBRANCH   1  25
TORSDOF 6
