REMARK  Name = pdb/CHEMBL3966169.pdb
REMARK                            x       y       z     vdW  Elec       q    Type
REMARK                         _______ _______ _______ _____ _____    ______ ____
ROOT
ATOM      1  C   LIG    1        3.676   0.259   1.343  0.00  0.00    +0.149 A 
ATOM      2  N   LIG    1        3.963  -0.096   2.606  0.00  0.00    -0.160 NA
ATOM      3  N   LIG    1        4.370   1.047   3.214  0.00  0.00    -0.218 N 
ATOM      4  C   LIG    1        4.124   2.167   2.423  0.00  0.00    +0.129 A 
ATOM      5  C   LIG    1        3.773   1.663   1.191  0.00  0.00    +0.078 A 
ENDROOT
BRANCH   3   6
ATOM      6  C   LIG    1        4.971   1.002   4.503  0.00  0.00    +0.067 A 
ATOM      7  C   LIG    1        4.699  -0.083   5.350  0.00  0.00    +0.028 A 
ATOM      8  C   LIG    1        5.274  -0.141   6.620  0.00  0.00    +0.002 A 
ATOM      9  C   LIG    1        6.150   0.859   7.038  0.00  0.00    +0.000 A 
ATOM     10  C   LIG    1        6.456   1.920   6.186  0.00  0.00    +0.002 A 
ATOM     11  C   LIG    1        5.868   1.997   4.921  0.00  0.00    +0.028 A 
ENDBRANCH   3   6
BRANCH   4  12
ATOM     12  N   LIG    1        4.145   3.519   2.820  0.00  0.00    -0.266 N 
ATOM     13  H   LIG    1        4.127   3.706   3.816  0.00  0.00    +0.157 HD
ATOM     14  C   LIG    1        4.140   4.599   1.867  0.00  0.00    +0.251 C 
ATOM     15  O   LIG    1        4.224   4.352   0.676  0.00  0.00    -0.270 OA
BRANCH  14  16
ATOM     16  C   LIG    1        4.162   5.999   2.360  0.00  0.00    +0.056 A 
ATOM     17  C   LIG    1        3.628   7.025   1.573  0.00  0.00    +0.054 A 
ATOM     18 CL   LIG    1        2.610   6.747   0.204  0.00  0.00    -0.083 Cl
ATOM     19  C   LIG    1        3.852   8.356   1.921  0.00  0.00    +0.041 A 
ATOM     20  C   LIG    1        4.561   8.692   3.083  0.00  0.00    +0.052 A 
ATOM     21 CL   LIG    1        4.660  10.389   3.406  0.00  0.00    -0.083 Cl
ATOM     22  C   LIG    1        5.071   7.691   3.937  0.00  0.00    +0.022 A 
ATOM     23  C   LIG    1        4.852   6.339   3.541  0.00  0.00    +0.026 A 
BRANCH  22  24
ATOM     24  C   LIG    1        5.770   7.940   5.226  0.00  0.00    +0.107 A 
ATOM     25  C   LIG    1        6.709   8.950   5.462  0.00  0.00    +0.149 A 
ATOM     26  F   LIG    1        7.152   9.749   4.483  0.00  0.00    -0.203 F 
ATOM     27  C   LIG    1        7.259   9.109   6.732  0.00  0.00    +0.042 A 
ATOM     28  C   LIG    1        6.909   8.223   7.740  0.00  0.00    +0.023 A 
ATOM     29  C   LIG    1        6.018   7.210   7.431  0.00  0.00    +0.111 A 
ATOM     30  N   LIG    1        5.446   7.048   6.211  0.00  0.00    -0.252 NA
ENDBRANCH  22  24
ENDBRANCH  14  16
ENDBRANCH   4  12
BRANCH   1  31
ATOM     31  C   LIG    1        3.260  -0.692   0.306  0.00  0.00    +0.236 C 
ATOM     32  N   LIG    1        3.278  -0.337  -0.921  0.00  0.00    -0.243 NA
BRANCH  31  33
ATOM     33  O   LIG    1        2.862  -1.905   0.757  0.00  0.00    -0.491 OA
ATOM     34  H   LIG    1        2.537  -2.481   0.056  0.00  0.00    +0.294 HD
ENDBRANCH  31  33
BRANCH  32  35
ATOM     35  C   LIG    1        2.849  -1.251  -1.966  0.00  0.00    +0.201 C 
BRANCH  35  36
ATOM     36  C   LIG    1        2.953  -0.568  -3.272  0.00  0.00    +0.077 A 
ATOM     37  N   LIG    1        4.117  -0.038  -3.753  0.00  0.00    -0.260 N 
ATOM     38  H   LIG    1        5.032   0.002  -3.324  0.00  0.00    +0.190 HD
ATOM     39  N   LIG    1        3.945   0.499  -4.973  0.00  0.00    -0.068 NA
ATOM     40  N   LIG    1        2.672   0.343  -5.301  0.00  0.00    -0.138 NA
ATOM     41  C   LIG    1        2.047  -0.305  -4.273  0.00  0.00    +0.161 A 
ENDBRANCH  35  36
ENDBRANCH  32  35
ENDBRANCH   1  31
TORSDOF 8
