REMARK  Name = pdb/CHEMBL1794058.pdb
REMARK                            x       y       z     vdW  Elec       q    Type
REMARK                         _______ _______ _______ _____ _____    ______ ____
ROOT
ATOM      1  N   LIG    1        8.537   2.231  -0.895  0.00  0.00    -0.363 N 
ATOM      2  H   LIG    1        9.118   1.400  -1.014  0.00  0.00    +0.165 HD
ATOM      3  C   LIG    1        9.207   3.427  -0.965  0.00  0.00    +0.078 C 
ENDROOT
BRANCH   3   4
ATOM      4  C   LIG    1       10.506   3.681  -1.152  0.00  0.00    +0.129 C 
ATOM      5  C   LIG    1       11.111   5.012  -1.194  0.00  0.00    -0.004 A 
ATOM      6  C   LIG    1       10.588   6.290  -1.100  0.00  0.00    +0.007 A 
ATOM      7  C   LIG    1       11.474   7.367  -1.184  0.00  0.00    +0.000 A 
ATOM      8  C   LIG    1       12.854   7.152  -1.353  0.00  0.00    +0.002 A 
ATOM      9  C   LIG    1       13.374   5.856  -1.447  0.00  0.00    +0.023 A 
ATOM     10  C   LIG    1       12.481   4.806  -1.369  0.00  0.00    +0.038 A 
ATOM     11  N   LIG    1       12.762   3.442  -1.453  0.00  0.00    -0.284 N 
ATOM     12  H   LIG    1       13.675   3.037  -1.592  0.00  0.00    +0.155 HD
ATOM     13  C   LIG    1       11.604   2.679  -1.339  0.00  0.00    +0.235 C 
ATOM     14  O   LIG    1       11.500   1.467  -1.383  0.00  0.00    -0.274 OA
ENDBRANCH   3   4
BRANCH   1  18
ATOM     15  C   LIG    1        4.403   1.528  -0.336  0.00  0.00    +0.048 A 
ATOM     16  C   LIG    1        5.280   0.467  -0.534  0.00  0.00    +0.026 A 
ATOM     17  C   LIG    1        6.650   0.717  -0.708  0.00  0.00    +0.027 A 
ATOM     18  C   LIG    1        7.157   2.025  -0.711  0.00  0.00    +0.039 A 
ATOM     19  C   LIG    1        6.242   3.074  -0.532  0.00  0.00    +0.027 A 
ATOM     20  C   LIG    1        4.877   2.834  -0.352  0.00  0.00    +0.026 A 
BRANCH  15  21
ATOM     21  N   LIG    1        3.006   1.286  -0.163  0.00  0.00    -0.221 N 
ATOM     22  H   LIG    1        2.568   1.921   0.509  0.00  0.00    +0.173 HD
BRANCH  21  24
ATOM     23  C   LIG    1        1.403  -0.353  -1.528  0.00  0.00    +0.218 C 
ATOM     24  S   LIG    1        2.053   1.301  -1.569  0.00  0.00    +0.040 S 
ATOM     25  O   LIG    1        0.961   2.210  -1.280  0.00  0.00    -0.155 OA
ATOM     26  O   LIG    1        2.873   1.445  -2.749  0.00  0.00    -0.155 OA
ENDBRANCH  21  24
ENDBRANCH  15  21
ENDBRANCH   1  18
TORSDOF 4
