REMARK  Name = pdb/CHEMBL3673488.pdb
REMARK                            x       y       z     vdW  Elec       q    Type
REMARK                         _______ _______ _______ _____ _____    ______ ____
ROOT
ATOM      1  C   LIG    1        2.684  -7.070 -11.831  0.00  0.00    +0.161 C 
ENDROOT
BRANCH   1   2
ATOM      2  N   LIG    1        2.018  -8.182 -12.499  0.00  0.00    -0.293 N 
ATOM      3  C   LIG    1        1.608  -8.115 -13.818  0.00  0.00    +0.162 A 
ATOM      4  N   LIG    1        1.550  -7.009 -14.610  0.00  0.00    -0.235 NA
ATOM      5  C   LIG    1        1.218  -7.324 -15.893  0.00  0.00    +0.123 A 
ATOM      6  C   LIG    1        0.932  -8.586 -16.441  0.00  0.00    +0.021 A 
ATOM      7  C   LIG    1        0.976  -9.656 -15.527  0.00  0.00    +0.043 A 
ATOM      8  C   LIG    1        1.330  -9.410 -14.194  0.00  0.00    +0.110 A 
ATOM      9  N   LIG    1        1.498 -10.255 -13.118  0.00  0.00    -0.213 NA
ATOM     10  C   LIG    1        1.900  -9.512 -12.156  0.00  0.00    +0.195 A 
BRANCH   6  11
ATOM     11  C   LIG    1        0.620  -8.797 -17.880  0.00  0.00    +0.072 A 
ATOM     12  N   LIG    1        0.309 -10.071 -18.238  0.00  0.00    -0.255 NA
ATOM     13  C   LIG    1       -0.008 -10.324 -19.528  0.00  0.00    +0.111 A 
ATOM     14  C   LIG    1       -0.034  -9.362 -20.520  0.00  0.00    +0.020 A 
ATOM     15  C   LIG    1        0.295  -8.065 -20.165  0.00  0.00    +0.004 A 
ATOM     16  C   LIG    1        0.629  -7.779 -18.840  0.00  0.00    +0.028 A 
ENDBRANCH   6  11
BRANCH  10  17
ATOM     17  N   LIG    1        2.192  -9.960 -10.893  0.00  0.00    -0.329 N 
ATOM     18  H   LIG    1        1.855 -10.896 -10.710  0.00  0.00    +0.145 HD
ATOM     19  H   LIG    1        2.095  -9.358 -10.095  0.00  0.00    +0.145 HD
ENDBRANCH  10  17
ENDBRANCH   1   2
BRANCH   1  23
ATOM     20  C   LIG    1        2.632  -6.751  -7.446  0.00  0.00    +0.162 A 
ATOM     21  C   LIG    1        3.802  -7.100  -8.156  0.00  0.00    +0.162 A 
ATOM     22  C   LIG    1        3.765  -7.371  -9.548  0.00  0.00    +0.054 A 
ATOM     23  C   LIG    1        2.652  -7.022 -10.314  0.00  0.00    -0.024 A 
ATOM     24  C   LIG    1        1.559  -6.490  -9.632  0.00  0.00    +0.009 A 
ATOM     25  C   LIG    1        1.531  -6.406  -8.227  0.00  0.00    +0.050 A 
BRANCH  21  26
ATOM     26  O   LIG    1        5.096  -7.097  -7.692  0.00  0.00    -0.491 OA
ATOM     27  C   LIG    1        5.412  -6.187  -6.644  0.00  0.00    +0.277 C 
ENDBRANCH  21  26
BRANCH  20  28
ATOM     28  O   LIG    1        2.586  -6.800  -6.061  0.00  0.00    -0.484 OA
BRANCH  28  29
ATOM     29  C   LIG    1        1.542  -6.073  -5.360  0.00  0.00    +0.266 C 
BRANCH  29  33
ATOM     30  C   LIG    1        1.350  -7.550  -1.360  0.00  0.00    +0.214 A 
ATOM     31  N   LIG    1        0.757  -8.263  -2.338  0.00  0.00    -0.221 NA
ATOM     32  C   LIG    1        0.791  -7.729  -3.585  0.00  0.00    +0.121 A 
ATOM     33  C   LIG    1        1.376  -6.507  -3.910  0.00  0.00    +0.008 A 
ATOM     34  C   LIG    1        1.812  -5.725  -2.833  0.00  0.00    +0.013 A 
ATOM     35  C   LIG    1        1.837  -6.267  -1.545  0.00  0.00    +0.067 A 
BRANCH  30  37
ATOM     36  C   LIG    1        0.903  -9.353   0.068  0.00  0.00    +0.279 C 
ATOM     37  O   LIG    1        1.617  -8.140  -0.138  0.00  0.00    -0.480 OA
ENDBRANCH  30  37
ENDBRANCH  29  33
ENDBRANCH  28  29
ENDBRANCH  20  28
ENDBRANCH   1  23
TORSDOF 9
