REMARK  Name = pdb/CHEMBL3955841.pdb
REMARK                            x       y       z     vdW  Elec       q    Type
REMARK                         _______ _______ _______ _____ _____    ______ ____
ROOT
ATOM      1  C   LIG    1        1.941  -2.650  -0.056  0.00  0.00    +0.105 A 
ATOM      2  C   LIG    1        1.337  -2.663  -1.311  0.00  0.00    +0.145 A 
ATOM      3  N   LIG    1        0.585  -3.684  -1.812  0.00  0.00    -0.201 NA
ATOM      4  C   LIG    1        0.432  -4.744  -0.999  0.00  0.00    +0.323 A 
ATOM      5  N   LIG    1        0.968  -4.846   0.228  0.00  0.00    -0.201 NA
ATOM      6  C   LIG    1        1.736  -3.824   0.640  0.00  0.00    +0.145 A 
ENDROOT
BRANCH   1   8
ATOM      7  C   LIG    1        2.836  -1.241   1.636  0.00  0.00    +0.285 C 
ATOM      8  N   LIG    1        2.722  -1.566   0.375  0.00  0.00    -0.196 NA
BRANCH   7   9
ATOM      9  O   LIG    1        2.168  -1.929   2.579  0.00  0.00    -0.481 OA
ATOM     10  H   LIG    1        2.294  -1.538   3.461  0.00  0.00    +0.295 HD
ENDBRANCH   7   9
BRANCH   7  11
ATOM     11  N   LIG    1        3.560  -0.244   2.197  0.00  0.00    -0.267 N 
ATOM     12  H   LIG    1        3.651  -0.233   3.217  0.00  0.00    +0.157 HD
BRANCH  11  13
ATOM     13  C   LIG    1        4.443   0.700   1.628  0.00  0.00    +0.061 A 
ATOM     14  C   LIG    1        5.021   1.721   2.427  0.00  0.00    +0.087 A 
ATOM     15  C   LIG    1        5.857   2.689   1.851  0.00  0.00    +0.030 A 
ATOM     16  C   LIG    1        6.116   2.667   0.479  0.00  0.00    +0.014 A 
ATOM     17  C   LIG    1        5.521   1.700  -0.339  0.00  0.00    +0.057 A 
ATOM     18  C   LIG    1        4.687   0.736   0.247  0.00  0.00    +0.037 A 
BRANCH  14  19
ATOM     19  N   LIG    1        4.759   1.790   3.830  0.00  0.00    -0.238 N 
ATOM     20  N   LIG    1        4.363   0.687   4.540  0.00  0.00    -0.175 NA
ATOM     21  C   LIG    1        4.231   1.129   5.793  0.00  0.00    +0.135 A 
ATOM     22  C   LIG    1        4.436   2.511   5.903  0.00  0.00    +0.041 A 
ATOM     23  C   LIG    1        4.793   2.909   4.637  0.00  0.00    +0.114 A 
ENDBRANCH  14  19
BRANCH  17  24
ATOM     24  C   LIG    1        5.768   1.692  -1.828  0.00  0.00    +0.417 C 
ATOM     25  F   LIG    1        7.085   1.524  -2.131  0.00  0.00    -0.166 F 
ATOM     26  F   LIG    1        5.393   2.859  -2.419  0.00  0.00    -0.166 F 
ATOM     27  F   LIG    1        5.103   0.707  -2.493  0.00  0.00    -0.166 F 
ENDBRANCH  17  24
ENDBRANCH  11  13
ENDBRANCH   7  11
ENDBRANCH   1   8
BRANCH   4  28
ATOM     28  O   LIG    1       -0.349  -5.805  -1.458  0.00  0.00    -0.424 OA
BRANCH  28  29
ATOM     29  C   LIG    1       -0.026  -7.066  -0.985  0.00  0.00    +0.132 A 
ATOM     30  C   LIG    1       -1.044  -8.006  -0.813  0.00  0.00    +0.047 A 
ATOM     31  C   LIG    1       -0.733  -9.314  -0.398  0.00  0.00    +0.013 A 
ATOM     32  C   LIG    1        0.594  -9.700  -0.150  0.00  0.00    +0.001 A 
ATOM     33  C   LIG    1        1.599  -8.756  -0.365  0.00  0.00    +0.013 A 
ATOM     34  C   LIG    1        1.295  -7.457  -0.759  0.00  0.00    +0.047 A 
BRANCH  32  35
ATOM     35  C   LIG    1        0.921 -11.068   0.268  0.00  0.00    +0.073 A 
ATOM     36  N   LIG    1        1.979 -11.464   1.086  0.00  0.00    -0.299 N 
ATOM     37  C   LIG    1        2.942 -10.720   1.781  0.00  0.00    +0.093 A 
ATOM     38  C   LIG    1        3.923 -11.349   2.449  0.00  0.00    +0.018 A 
ATOM     39  C   LIG    1        3.941 -12.799   2.471  0.00  0.00    +0.005 A 
ATOM     40  C   LIG    1        2.988 -13.518   1.848  0.00  0.00    +0.047 A 
ATOM     41  C   LIG    1        1.954 -12.860   1.124  0.00  0.00    +0.138 A 
ATOM     42  N   LIG    1        0.930 -13.350   0.463  0.00  0.00    -0.235 NA
ATOM     43  C   LIG    1        0.291 -12.260  -0.061  0.00  0.00    +0.139 A 
ENDBRANCH  32  35
ENDBRANCH  28  29
ENDBRANCH   4  28
TORSDOF 9
