REMARK  Name = pdb/CHEMBL3977762.pdb
REMARK                            x       y       z     vdW  Elec       q    Type
REMARK                         _______ _______ _______ _____ _____    ______ ____
ROOT
ATOM      1  C   LIG    1        4.022   4.587  -4.906  0.00  0.00    +0.163 A 
ATOM      2  N   LIG    1        2.915   4.105  -5.608  0.00  0.00    -0.196 N 
ATOM      3  N   LIG    1        1.829   4.830  -6.082  0.00  0.00    -0.148 NA
ATOM      4  C   LIG    1        0.970   4.130  -6.777  0.00  0.00    +0.143 A 
ATOM      5  C   LIG    1        1.161   2.673  -7.072  0.00  0.00    +0.049 A 
ATOM      6  C   LIG    1        2.224   2.036  -6.579  0.00  0.00    +0.051 A 
ATOM      7  C   LIG    1        3.133   2.743  -5.777  0.00  0.00    +0.156 A 
ATOM      8  N   LIG    1        4.212   2.317  -5.160  0.00  0.00    -0.233 NA
ATOM      9  C   LIG    1        4.774   3.448  -4.644  0.00  0.00    +0.158 A 
ENDROOT
BRANCH   4  10
ATOM     10  N   LIG    1       -0.163   4.705  -7.340  0.00  0.00    -0.307 N 
ATOM     11  C   LIG    1       -1.435   4.738  -6.588  0.00  0.00    +0.108 C 
ATOM     12  C   LIG    1       -2.016   6.149  -6.818  0.00  0.00    +0.029 C 
ATOM     13  C   LIG    1       -0.895   6.947  -7.460  0.00  0.00    +0.021 C 
ATOM     14  C   LIG    1       -0.060   5.902  -8.169  0.00  0.00    +0.107 C 
BRANCH  11  15
ATOM     15  C   LIG    1       -2.400   3.685  -7.107  0.00  0.00    +0.011 A 
ATOM     16  C   LIG    1       -3.445   3.234  -6.292  0.00  0.00    +0.129 A 
ATOM     17  F   LIG    1       -3.567   3.707  -5.044  0.00  0.00    -0.205 F 
ATOM     18  C   LIG    1       -4.387   2.311  -6.752  0.00  0.00    +0.041 A 
ATOM     19  C   LIG    1       -4.303   1.828  -8.057  0.00  0.00    +0.041 A 
ATOM     20  C   LIG    1       -3.279   2.274  -8.881  0.00  0.00    +0.124 A 
ATOM     21  F   LIG    1       -3.199   1.826 -10.140  0.00  0.00    -0.205 F 
ATOM     22  C   LIG    1       -2.338   3.191  -8.422  0.00  0.00    +0.046 A 
ENDBRANCH  11  15
ENDBRANCH   4  10
BRANCH   1  23
ATOM     23  N   LIG    1        4.274   5.913  -4.736  0.00  0.00    -0.177 NA
BRANCH  23  24
ATOM     24  C   LIG    1        5.044   6.308  -3.780  0.00  0.00    +0.275 C 
BRANCH  24  31
ATOM     25  C   LIG    1        5.262   7.571   1.145  0.00  0.00    +0.404 C 
ATOM     26  N   LIG    1        5.411   6.756  -0.004  0.00  0.00    -0.260 N 
ATOM     27  C   LIG    1        4.163   6.123  -0.580  0.00  0.00    +0.048 C 
ATOM     28  C   LIG    1        3.241   7.223  -1.159  0.00  0.00    +0.033 C 
ATOM     29  C   LIG    1        3.350   5.333   0.479  0.00  0.00    +0.033 C 
ATOM     30  C   LIG    1        4.519   5.103  -1.703  0.00  0.00    +0.114 C 
ATOM     31  N   LIG    1        5.505   5.665  -2.649  0.00  0.00    -0.249 NA
ATOM     32  C   LIG    1        6.766   5.946  -1.962  0.00  0.00    +0.108 C 
ATOM     33  C   LIG    1        6.563   6.991  -0.858  0.00  0.00    +0.127 C 
ATOM     34  O   LIG    1        4.460   7.366   2.028  0.00  0.00    -0.226 OA
BRANCH  25  35
ATOM     35  O   LIG    1        6.089   8.659   1.113  0.00  0.00    -0.445 OA
BRANCH  35  37
ATOM     36  C   LIG    1        6.524   9.286   3.426  0.00  0.00    +0.055 C 
ATOM     37  C   LIG    1        5.938   9.719   2.081  0.00  0.00    +0.107 C 
ATOM     38  C   LIG    1        6.728  10.935   1.565  0.00  0.00    +0.055 C 
ATOM     39  C   LIG    1        4.468  10.162   2.193  0.00  0.00    +0.055 C 
ENDBRANCH  35  37
ENDBRANCH  25  35
ENDBRANCH  24  31
BRANCH  24  40
ATOM     40  O   LIG    1        5.462   7.580  -3.908  0.00  0.00    -0.353 OA
ATOM     41  H   LIG    1        6.058   7.852  -3.210  0.00  0.00    +0.214 HD
ENDBRANCH  24  40
ENDBRANCH  23  24
ENDBRANCH   1  23
TORSDOF 8
