REMARK  Name = pdb/CHEMBL3671404.pdb
REMARK                            x       y       z     vdW  Elec       q    Type
REMARK                         _______ _______ _______ _____ _____    ______ ____
ROOT
ATOM      1  C   LIG    1        4.679   4.136  -4.065  0.00  0.00    +0.042 A 
ATOM      2  C   LIG    1        4.624   4.445  -5.434  0.00  0.00    +0.038 A 
ATOM      3  C   LIG    1        4.741   5.782  -5.846  0.00  0.00    +0.052 A 
ATOM      4  C   LIG    1        4.870   6.753  -4.856  0.00  0.00    +0.134 A 
ATOM      5  N   LIG    1        4.920   6.490  -3.533  0.00  0.00    -0.261 NA
ATOM      6  C   LIG    1        4.821   5.194  -3.175  0.00  0.00    +0.122 A 
ENDROOT
BRANCH   3   7
ATOM      7  N   LIG    1        4.732   6.088  -7.222  0.00  0.00    -0.284 N 
ATOM      8  H   LIG    1        4.586   5.311  -7.868  0.00  0.00    +0.155 HD
ATOM      9  C   LIG    1        4.943   7.345  -7.773  0.00  0.00    +0.225 C 
ATOM     10  O   LIG    1        5.152   8.379  -7.139  0.00  0.00    -0.275 OA
BRANCH   9  11
ATOM     11  C   LIG    1        4.977   7.413  -9.284  0.00  0.00    +0.170 C 
BRANCH  11  12
ATOM     12  C   LIG    1        4.107   6.377  -9.882  0.00  0.00    +0.117 A 
ATOM     13  N   LIG    1        2.772   6.579 -10.123  0.00  0.00    -0.341 N 
ATOM     14  H   LIG    1        2.250   7.424  -9.936  0.00  0.00    +0.167 HD
ATOM     15  C   LIG    1        2.262   5.424 -10.653  0.00  0.00    +0.066 A 
ATOM     16  C   LIG    1        0.990   5.093 -11.116  0.00  0.00    +0.028 A 
ATOM     17  C   LIG    1        0.823   3.793 -11.603  0.00  0.00    +0.002 A 
ATOM     18  C   LIG    1        1.879   2.877 -11.612  0.00  0.00    +0.002 A 
ATOM     19  C   LIG    1        3.146   3.235 -11.134  0.00  0.00    +0.030 A 
ATOM     20  C   LIG    1        3.331   4.537 -10.652  0.00  0.00    +0.089 A 
ATOM     21  N   LIG    1        4.455   5.132 -10.136  0.00  0.00    -0.232 NA
ENDBRANCH  11  12
ENDBRANCH   9  11
ENDBRANCH   3   7
BRANCH   1  22
ATOM     22  C   LIG    1        4.531   2.738  -3.560  0.00  0.00    +0.197 C 
ATOM     23  O   LIG    1        3.848   1.940  -4.218  0.00  0.00    -0.287 OA
BRANCH  22  31
ATOM     24  N   LIG    1        6.684   2.307  -0.614  0.00  0.00    -0.326 N 
ATOM     25  C   LIG    1        5.770   1.307  -0.362  0.00  0.00    +0.147 A 
ATOM     26  N   LIG    1        5.807   0.456   0.676  0.00  0.00    -0.197 NA
ATOM     27  C   LIG    1        4.788  -0.398   0.720  0.00  0.00    +0.214 A 
ATOM     28  N   LIG    1        3.757  -0.427  -0.132  0.00  0.00    -0.222 NA
ATOM     29  C   LIG    1        3.731   0.456  -1.164  0.00  0.00    +0.126 A 
ATOM     30  C   LIG    1        4.792   1.343  -1.351  0.00  0.00    +0.048 A 
ATOM     31  C   LIG    1        5.183   2.338  -2.312  0.00  0.00    +0.051 A 
ATOM     32  C   LIG    1        6.384   2.855  -1.842  0.00  0.00    +0.100 A 
BRANCH  24  34
ATOM     33  C   LIG    1        7.111   3.855   1.252  0.00  0.00    +0.034 C 
ATOM     34  C   LIG    1        7.730   2.800   0.312  0.00  0.00    +0.039 C 
ATOM     35  C   LIG    1        8.354   1.669   1.159  0.00  0.00    +0.034 C 
ATOM     36  C   LIG    1        8.901   3.472  -0.443  0.00  0.00    +0.034 C 
ENDBRANCH  24  34
BRANCH  27  37
ATOM     37  N   LIG    1        4.829  -1.375   1.700  0.00  0.00    -0.327 N 
ATOM     38  H   LIG    1        5.788  -1.550   1.968  0.00  0.00    +0.145 HD
ATOM     39  H   LIG    1        4.292  -2.172   1.388  0.00  0.00    +0.145 HD
ENDBRANCH  27  37
ENDBRANCH  22  31
ENDBRANCH   1  22
TORSDOF 7
