REMARK  Name = pdb/CHEMBL3671318.pdb
REMARK                            x       y       z     vdW  Elec       q    Type
REMARK                         _______ _______ _______ _____ _____    ______ ____
ROOT
ATOM      1  C   LIG    1        6.501  -2.426  -1.839  0.00  0.00    +0.045 A 
ATOM      2  C   LIG    1        7.166  -1.153  -2.071  0.00  0.00    +0.041 A 
ATOM      3  C   LIG    1        6.477  -0.050  -2.372  0.00  0.00    +0.088 A 
ATOM      4  N   LIG    1        5.116  -0.091  -2.429  0.00  0.00    -0.328 N 
ATOM      5  H   LIG    1        4.585   0.744  -2.646  0.00  0.00    +0.168 HD
ATOM      6  C   LIG    1        4.378  -1.215  -2.168  0.00  0.00    +0.261 A 
ATOM      7  O   LIG    1        3.148  -1.175  -2.193  0.00  0.00    -0.267 OA
ATOM      8  C   LIG    1        5.141  -2.482  -1.863  0.00  0.00    +0.102 A 
ENDROOT
BRANCH   8   9
ATOM      9  C   LIG    1        4.431  -3.704  -1.627  0.00  0.00    +0.146 A 
ATOM     10  N   LIG    1        3.053  -3.704  -1.702  0.00  0.00    -0.338 N 
ATOM     11  H   LIG    1        2.489  -2.891  -1.927  0.00  0.00    +0.167 HD
ATOM     12  C   LIG    1        2.580  -4.947  -1.379  0.00  0.00    +0.067 A 
ATOM     13  C   LIG    1        1.281  -5.447  -1.263  0.00  0.00    +0.041 A 
ATOM     14  C   LIG    1        1.234  -6.790  -0.905  0.00  0.00    +0.044 A 
ATOM     15  C   LIG    1        0.015  -7.605  -0.677  0.00  0.00    +0.247 C 
ATOM     16  O   LIG    1       -1.108  -7.231  -0.830  0.00  0.00    -0.270 OA
ATOM     17  N   LIG    1        0.475  -8.844  -0.251  0.00  0.00    -0.292 N 
ATOM     18  C   LIG    1        1.929  -8.950  -0.261  0.00  0.00    +0.144 C 
ATOM     19  C   LIG    1        2.350  -7.574  -0.656  0.00  0.00    -0.016 A 
ATOM     20  C   LIG    1        3.635  -7.048  -0.777  0.00  0.00    +0.035 A 
ATOM     21  C   LIG    1        3.735  -5.695  -1.152  0.00  0.00    +0.090 A 
ATOM     22  N   LIG    1        4.860  -4.921  -1.322  0.00  0.00    -0.227 NA
BRANCH  17  23
ATOM     23  C   LIG    1       -0.393  -9.912   0.233  0.00  0.00    +0.124 C 
BRANCH  23  24
ATOM     24  C   LIG    1       -0.612  -9.871   1.769  0.00  0.00    +0.102 C 
BRANCH  24  25
ATOM     25  N   LIG    1       -1.522 -10.919   2.292  0.00  0.00    -0.307 NA
ATOM     26  C   LIG    1       -1.745 -10.759   3.736  0.00  0.00    +0.104 C 
ATOM     27  C   LIG    1       -1.003 -12.266   2.055  0.00  0.00    +0.104 C 
ENDBRANCH  24  25
ENDBRANCH  23  24
ENDBRANCH  17  23
ENDBRANCH   8   9
BRANCH   1  28
ATOM     28  N   LIG    1        7.363  -3.479  -1.513  0.00  0.00    -0.340 N 
ATOM     29  H   LIG    1        6.805  -4.105  -0.919  0.00  0.00    +0.146 HD
BRANCH  28  31
ATOM     30  C   LIG    1        9.303  -3.791  -3.035  0.00  0.00    +0.028 C 
ATOM     31  C   LIG    1        7.962  -4.348  -2.559  0.00  0.00    +0.072 C 
BRANCH  31  32
ATOM     32  C   LIG    1        8.140  -5.802  -2.036  0.00  0.00    +0.060 C 
BRANCH  32  33
ATOM     33  C   LIG    1        9.090  -5.947  -0.864  0.00  0.00    -0.008 A 
ATOM     34  C   LIG    1       10.281  -6.669  -0.994  0.00  0.00    +0.127 A 
ATOM     35  F   LIG    1       10.571  -7.287  -2.148  0.00  0.00    -0.205 F 
ATOM     36  C   LIG    1       11.198  -6.753   0.055  0.00  0.00    +0.041 A 
ATOM     37  C   LIG    1       10.936  -6.105   1.261  0.00  0.00    +0.041 A 
ATOM     38  C   LIG    1        9.752  -5.398   1.406  0.00  0.00    +0.124 A 
ATOM     39  F   LIG    1        9.491  -4.760   2.554  0.00  0.00    -0.205 F 
ATOM     40  C   LIG    1        8.830  -5.333   0.371  0.00  0.00    +0.044 A 
ENDBRANCH  32  33
ENDBRANCH  31  32
ENDBRANCH  28  31
ENDBRANCH   1  28
TORSDOF 8
