REMARK  Name = pdb/CHEMBL3671435.pdb
REMARK                            x       y       z     vdW  Elec       q    Type
REMARK                         _______ _______ _______ _____ _____    ______ ____
ROOT
ATOM      1  C   LIG    1        3.063  -5.345  -2.539  0.00  0.00    +0.042 A 
ATOM      2  C   LIG    1        3.133  -6.063  -3.748  0.00  0.00    +0.038 A 
ATOM      3  C   LIG    1        2.507  -7.320  -3.851  0.00  0.00    +0.052 A 
ATOM      4  C   LIG    1        1.913  -7.828  -2.700  0.00  0.00    +0.134 A 
ATOM      5  N   LIG    1        1.858  -7.178  -1.514  0.00  0.00    -0.261 NA
ATOM      6  C   LIG    1        2.427  -5.955  -1.465  0.00  0.00    +0.122 A 
ENDROOT
BRANCH   3   7
ATOM      7  N   LIG    1        2.470  -7.996  -5.092  0.00  0.00    -0.284 N 
ATOM      8  H   LIG    1        2.941  -7.558  -5.889  0.00  0.00    +0.155 HD
ATOM      9  C   LIG    1        1.903  -9.237  -5.346  0.00  0.00    +0.223 C 
ATOM     10  O   LIG    1        1.324  -9.929  -4.507  0.00  0.00    -0.275 OA
BRANCH   9  11
ATOM     11  C   LIG    1        1.916  -9.731  -6.787  0.00  0.00    +0.151 C 
BRANCH  11  12
ATOM     12  C   LIG    1        3.098  -9.323  -7.620  0.00  0.00    +0.050 A 
ATOM     13  N   LIG    1        3.645  -8.109  -7.362  0.00  0.00    -0.259 NA
ATOM     14  C   LIG    1        4.725  -7.732  -8.069  0.00  0.00    +0.123 A 
ATOM     15  C   LIG    1        5.279  -8.499  -9.076  0.00  0.00    +0.073 A 
ATOM     16  C   LIG    1        4.671  -9.721  -9.377  0.00  0.00    +0.015 A 
ATOM     17  C   LIG    1        3.564 -10.142  -8.644  0.00  0.00    +0.024 A 
BRANCH  15  18
ATOM     18  C   LIG    1        6.490  -7.978  -9.776  0.00  0.00    +0.419 C 
ATOM     19  F   LIG    1        7.528  -7.771  -8.921  0.00  0.00    -0.166 F 
ATOM     20  F   LIG    1        6.260  -6.783 -10.384  0.00  0.00    -0.166 F 
ATOM     21  F   LIG    1        6.958  -8.810 -10.744  0.00  0.00    -0.166 F 
ENDBRANCH  15  18
ENDBRANCH  11  12
ENDBRANCH   9  11
ENDBRANCH   3   7
BRANCH   1  22
ATOM     22  C   LIG    1        3.640  -3.983  -2.311  0.00  0.00    +0.197 C 
ATOM     23  O   LIG    1        4.069  -3.704  -1.182  0.00  0.00    -0.287 OA
BRANCH  22  31
ATOM     24  N   LIG    1        3.231  -2.004  -5.368  0.00  0.00    -0.323 N 
ATOM     25  C   LIG    1        4.334  -1.370  -4.840  0.00  0.00    +0.147 A 
ATOM     26  N   LIG    1        5.051  -0.399  -5.430  0.00  0.00    -0.197 NA
ATOM     27  C   LIG    1        6.051   0.068  -4.682  0.00  0.00    +0.214 A 
ATOM     28  N   LIG    1        6.318  -0.281  -3.418  0.00  0.00    -0.222 NA
ATOM     29  C   LIG    1        5.586  -1.272  -2.847  0.00  0.00    +0.126 A 
ATOM     30  C   LIG    1        4.573  -1.898  -3.575  0.00  0.00    +0.048 A 
ATOM     31  C   LIG    1        3.686  -3.007  -3.393  0.00  0.00    +0.051 A 
ATOM     32  C   LIG    1        2.798  -2.948  -4.455  0.00  0.00    +0.100 A 
BRANCH  24  34
ATOM     33  C   LIG    1        3.141  -0.592  -7.477  0.00  0.00    +0.036 C 
ATOM     34  C   LIG    1        2.559  -1.769  -6.665  0.00  0.00    +0.064 C 
ATOM     35  C   LIG    1        1.069  -1.433  -6.407  0.00  0.00    +0.036 C 
BRANCH  34  36
ATOM     36  C   LIG    1        2.622  -3.061  -7.532  0.00  0.00    +0.183 C 
BRANCH  36  37
ATOM     37  O   LIG    1        3.943  -3.432  -7.920  0.00  0.00    -0.393 OA
ATOM     38  H   LIG    1        4.263  -2.781  -8.570  0.00  0.00    +0.209 HD
ENDBRANCH  36  37
ENDBRANCH  34  36
ENDBRANCH  24  34
BRANCH  27  39
ATOM     39  N   LIG    1        6.860   1.030  -5.258  0.00  0.00    -0.327 N 
ATOM     40  H   LIG    1        6.356   1.513  -5.987  0.00  0.00    +0.145 HD
ATOM     41  H   LIG    1        7.290   1.592  -4.537  0.00  0.00    +0.145 HD
ENDBRANCH  27  39
ENDBRANCH  22  31
ENDBRANCH   1  22
TORSDOF 10
