REMARK  Name = pdb/CHEMBL1983268.pdb
REMARK                            x       y       z     vdW  Elec       q    Type
REMARK                         _______ _______ _______ _____ _____    ______ ____
ROOT
ATOM      1  C   LIG    1        3.453   1.188  -7.084  0.00  0.00    +0.248 C 
ATOM      2  N   LIG    1        2.919   1.963  -8.102  0.00  0.00    -0.284 N 
ATOM      3  H   LIG    1        1.994   2.373  -8.037  0.00  0.00    +0.151 HD
ATOM      4  O   LIG    1        4.670   0.784  -7.063  0.00  0.00    -0.270 OA
ENDROOT
BRANCH   2   5
ATOM      5  C   LIG    1        3.742   2.465  -9.100  0.00  0.00    +0.191 C 
ATOM      6  C   LIG    1        4.757   1.732  -9.805  0.00  0.00    +0.020 A 
ATOM      7  C   LIG    1        5.190   0.393  -9.897  0.00  0.00    +0.013 A 
ATOM      8  C   LIG    1        6.302   0.008 -10.657  0.00  0.00    -0.043 A 
ATOM      9  C   LIG    1        6.952   1.009 -11.382  0.00  0.00    +0.006 A 
ATOM     10  C   LIG    1        6.560   2.365 -11.310  0.00  0.00    +0.025 A 
ATOM     11  C   LIG    1        5.438   2.689 -10.534  0.00  0.00    +0.050 A 
ATOM     12  N   LIG    1        4.795   3.867 -10.257  0.00  0.00    -0.260 N 
ATOM     13  H   LIG    1        5.064   4.798 -10.553  0.00  0.00    +0.168 HD
ATOM     14  N   LIG    1        3.675   3.720  -9.506  0.00  0.00    -0.110 NA
BRANCH   8  15
ATOM     15  C   LIG    1        6.696  -1.460 -10.700  0.00  0.00    +0.070 C 
BRANCH  15  16
ATOM     16  C   LIG    1        8.101  -1.845 -10.249  0.00  0.00    -0.038 A 
ATOM     17  C   LIG    1        8.422  -2.095  -8.902  0.00  0.00    +0.042 A 
ATOM     18  C   LIG    1        9.699  -2.560  -8.543  0.00  0.00    +0.126 A 
ATOM     19  F   LIG    1        9.997  -2.752  -7.250  0.00  0.00    -0.205 F 
ATOM     20  C   LIG    1       10.683  -2.783  -9.492  0.00  0.00    +0.076 A 
ATOM     21  C   LIG    1       10.401  -2.452 -10.806  0.00  0.00    +0.126 A 
ATOM     22  F   LIG    1       11.384  -2.519 -11.714  0.00  0.00    -0.205 F 
ATOM     23  C   LIG    1        9.131  -2.001 -11.192  0.00  0.00    +0.042 A 
ENDBRANCH  15  16
ENDBRANCH   8  15
ENDBRANCH   2   5
BRANCH   1  27
ATOM     24  C   LIG    1        1.929   0.619  -3.166  0.00  0.00    +0.032 A 
ATOM     25  C   LIG    1        2.509  -0.475  -3.856  0.00  0.00    +0.046 A 
ATOM     26  C   LIG    1        2.849  -0.434  -5.243  0.00  0.00    +0.041 A 
ATOM     27  C   LIG    1        2.633   0.776  -5.927  0.00  0.00    +0.058 A 
ATOM     28  C   LIG    1        1.845   1.773  -5.337  0.00  0.00    +0.017 A 
ATOM     29  C   LIG    1        1.524   1.687  -3.978  0.00  0.00    +0.024 A 
BRANCH  24  34
ATOM     30  C   LIG    1        3.020   3.040   0.810  0.00  0.00    +0.105 C 
ATOM     31  N   LIG    1        2.297   1.778   1.010  0.00  0.00    -0.302 NA
ATOM     32  C   LIG    1        2.878   0.493   0.546  0.00  0.00    +0.103 C 
ATOM     33  C   LIG    1        2.945   0.187  -0.987  0.00  0.00    +0.120 C 
ATOM     34  N   LIG    1        1.744   0.633  -1.750  0.00  0.00    -0.327 N 
ATOM     35  C   LIG    1        1.088   1.848  -1.193  0.00  0.00    +0.120 C 
ATOM     36  C   LIG    1        0.986   1.874   0.347  0.00  0.00    +0.103 C 
ENDBRANCH  24  34
BRANCH  26  37
ATOM     37  N   LIG    1        3.269  -1.642  -5.841  0.00  0.00    -0.340 N 
ATOM     38  H   LIG    1        4.021  -2.047  -5.280  0.00  0.00    +0.146 HD
BRANCH  37  39
ATOM     39  C   LIG    1        3.492  -1.870  -7.293  0.00  0.00    +0.075 C 
ATOM     40  C   LIG    1        2.439  -1.296  -8.262  0.00  0.00    +0.050 C 
ATOM     41  C   LIG    1        1.118  -2.024  -8.343  0.00  0.00    +0.161 C 
ATOM     42  O   LIG    1        1.260  -3.433  -8.376  0.00  0.00    -0.380 OA
ATOM     43  C   LIG    1        2.119  -3.906  -7.339  0.00  0.00    +0.161 C 
ATOM     44  C   LIG    1        3.519  -3.370  -7.587  0.00  0.00    +0.050 C 
ENDBRANCH  37  39
ENDBRANCH  26  37
ENDBRANCH   1  27
TORSDOF 7
