REMARK  Name = pdb/CHEMBL3925931.pdb
REMARK                            x       y       z     vdW  Elec       q    Type
REMARK                         _______ _______ _______ _____ _____    ______ ____
ROOT
ATOM      1  C   LIG    1        3.707  -0.109  -2.270  0.00  0.00    +0.149 A 
ATOM      2  N   LIG    1        4.894   0.397  -2.632  0.00  0.00    -0.160 NA
ATOM      3  N   LIG    1        4.656   1.690  -2.969  0.00  0.00    -0.218 N 
ATOM      4  C   LIG    1        3.291   2.006  -2.865  0.00  0.00    +0.129 A 
ATOM      5  C   LIG    1        2.691   0.873  -2.366  0.00  0.00    +0.078 A 
ENDROOT
BRANCH   3   6
ATOM      6  C   LIG    1        5.740   2.510  -3.407  0.00  0.00    +0.067 A 
ATOM      7  C   LIG    1        5.688   3.907  -3.325  0.00  0.00    +0.028 A 
ATOM      8  C   LIG    1        6.753   4.684  -3.790  0.00  0.00    +0.002 A 
ATOM      9  C   LIG    1        7.888   4.074  -4.317  0.00  0.00    +0.000 A 
ATOM     10  C   LIG    1        7.964   2.684  -4.376  0.00  0.00    +0.002 A 
ATOM     11  C   LIG    1        6.901   1.902  -3.914  0.00  0.00    +0.028 A 
ENDBRANCH   3   6
BRANCH   4  12
ATOM     12  N   LIG    1        2.659   3.189  -3.265  0.00  0.00    -0.266 N 
ATOM     13  H   LIG    1        3.241   3.882  -3.712  0.00  0.00    +0.157 HD
ATOM     14  C   LIG    1        1.242   3.455  -3.225  0.00  0.00    +0.251 C 
ATOM     15  O   LIG    1        0.456   2.617  -2.845  0.00  0.00    -0.270 OA
BRANCH  14  16
ATOM     16  C   LIG    1        0.802   4.819  -3.671  0.00  0.00    +0.056 A 
ATOM     17  C   LIG    1        1.477   5.579  -4.621  0.00  0.00    +0.054 A 
ATOM     18 CL   LIG    1        2.973   5.115  -5.348  0.00  0.00    -0.083 Cl
ATOM     19  C   LIG    1        0.955   6.801  -5.045  0.00  0.00    +0.041 A 
ATOM     20  C   LIG    1       -0.246   7.303  -4.526  0.00  0.00    +0.052 A 
ATOM     21 CL   LIG    1       -0.705   8.843  -5.169  0.00  0.00    -0.083 Cl
ATOM     22  C   LIG    1       -0.959   6.600  -3.534  0.00  0.00    +0.019 A 
ATOM     23  C   LIG    1       -0.396   5.352  -3.122  0.00  0.00    +0.026 A 
BRANCH  22  24
ATOM     24  C   LIG    1       -2.216   7.075  -2.882  0.00  0.00    +0.073 A 
ATOM     25  N   LIG    1       -2.371   6.668  -1.591  0.00  0.00    -0.252 NA
ATOM     26  C   LIG    1       -3.504   7.037  -0.933  0.00  0.00    +0.149 A 
ATOM     27  C   LIG    1       -4.504   7.804  -1.495  0.00  0.00    +0.141 A 
ATOM     28  F   LIG    1       -5.601   8.126  -0.800  0.00  0.00    -0.204 F 
ATOM     29  C   LIG    1       -4.354   8.222  -2.802  0.00  0.00    +0.042 A 
ATOM     30  C   LIG    1       -3.207   7.842  -3.506  0.00  0.00    +0.031 A 
ENDBRANCH  22  24
ENDBRANCH  14  16
ENDBRANCH   4  12
BRANCH   1  31
ATOM     31  C   LIG    1        3.536  -1.514  -1.890  0.00  0.00    +0.236 C 
ATOM     32  N   LIG    1        2.388  -2.073  -2.042  0.00  0.00    -0.243 NA
BRANCH  31  33
ATOM     33  O   LIG    1        4.639  -2.109  -1.390  0.00  0.00    -0.491 OA
ATOM     34  H   LIG    1        4.521  -3.049  -1.207  0.00  0.00    +0.294 HD
ENDBRANCH  31  33
BRANCH  32  35
ATOM     35  C   LIG    1        2.213  -3.471  -1.674  0.00  0.00    +0.201 C 
BRANCH  35  36
ATOM     36  C   LIG    1        0.827  -3.903  -1.962  0.00  0.00    +0.077 A 
ATOM     37  N   LIG    1       -0.252  -3.063  -1.978  0.00  0.00    -0.260 N 
ATOM     38  H   LIG    1       -0.285  -2.062  -1.832  0.00  0.00    +0.190 HD
ATOM     39  N   LIG    1       -1.391  -3.723  -2.237  0.00  0.00    -0.068 NA
ATOM     40  N   LIG    1       -1.080  -5.001  -2.405  0.00  0.00    -0.138 NA
ATOM     41  C   LIG    1        0.270  -5.132  -2.244  0.00  0.00    +0.161 A 
ENDBRANCH  35  36
ENDBRANCH  32  35
ENDBRANCH   1  31
TORSDOF 8
