REMARK  Name = pdb/CHEMBL3671151.pdb
REMARK                            x       y       z     vdW  Elec       q    Type
REMARK                         _______ _______ _______ _____ _____    ______ ____
ROOT
ATOM      1  C   LIG    1       -0.543  -6.443   1.377  0.00  0.00    +0.100 A 
ATOM      2  C   LIG    1        0.087  -7.647   1.666  0.00  0.00    +0.170 A 
ATOM      3  N   LIG    1        1.353  -7.954   2.128  0.00  0.00    -0.212 NA
ATOM      4  C   LIG    1        1.682  -9.226   2.257  0.00  0.00    +0.126 A 
ATOM      5  C   LIG    1        0.701 -10.330   1.927  0.00  0.00    +0.063 A 
ATOM      6  C   LIG    1       -0.512  -9.980   1.496  0.00  0.00    +0.118 A 
ATOM      7  N   LIG    1       -0.839  -8.646   1.355  0.00  0.00    -0.221 N 
ATOM      8  N   LIG    1       -2.006  -8.148   0.893  0.00  0.00    -0.173 NA
ATOM      9  C   LIG    1       -1.808  -6.831   0.868  0.00  0.00    +0.150 A 
ENDROOT
BRANCH   4  10
ATOM     10  N   LIG    1        2.956  -9.581   2.695  0.00  0.00    -0.308 N 
ATOM     11  C   LIG    1        4.105  -8.665   2.614  0.00  0.00    +0.108 C 
ATOM     12  C   LIG    1        5.271  -9.597   2.246  0.00  0.00    +0.029 C 
ATOM     13  C   LIG    1        4.935 -10.874   2.995  0.00  0.00    +0.021 C 
ATOM     14  C   LIG    1        3.426 -10.967   2.812  0.00  0.00    +0.107 C 
BRANCH  11  15
ATOM     15  C   LIG    1        4.352  -7.931   3.917  0.00  0.00    +0.011 A 
ATOM     16  C   LIG    1        5.019  -6.701   3.869  0.00  0.00    +0.129 A 
ATOM     17  F   LIG    1        5.496  -6.252   2.699  0.00  0.00    -0.205 F 
ATOM     18  C   LIG    1        5.212  -5.925   5.010  0.00  0.00    +0.041 A 
ATOM     19  C   LIG    1        4.775  -6.396   6.244  0.00  0.00    +0.041 A 
ATOM     20  C   LIG    1        4.185  -7.652   6.322  0.00  0.00    +0.124 A 
ATOM     21  F   LIG    1        3.820  -8.135   7.516  0.00  0.00    -0.205 F 
ATOM     22  C   LIG    1        3.966  -8.417   5.178  0.00  0.00    +0.046 A 
ENDBRANCH  11  15
ENDBRANCH   4  10
BRANCH   1  25
ATOM     23  N   LIG    1        1.181  -4.968   2.113  0.00  0.00    -0.311 N 
ATOM     24  H   LIG    1        1.659  -5.834   2.342  0.00  0.00    +0.149 HD
ATOM     25  C   LIG    1       -0.062  -5.078   1.518  0.00  0.00    +0.249 C 
ATOM     26  O   LIG    1       -0.721  -4.118   1.154  0.00  0.00    -0.270 OA
BRANCH  23  27
ATOM     27  C   LIG    1        1.892  -3.709   2.270  0.00  0.00    +0.110 C 
BRANCH  27  28
ATOM     28  C   LIG    1        1.190  -2.714   3.204  0.00  0.00    +0.073 C 
BRANCH  28  31
ATOM     29  C   LIG    1        2.383  -1.548   5.862  0.00  0.00    +0.150 C 
ATOM     30  N   LIG    1        2.458  -0.951   4.552  0.00  0.00    -0.337 N 
ATOM     31  C   LIG    1        1.974  -1.451   3.367  0.00  0.00    +0.039 A 
ATOM     32  C   LIG    1        2.367  -0.520   2.422  0.00  0.00    +0.133 A 
ATOM     33  N   LIG    1        3.049   0.517   2.999  0.00  0.00    -0.244 NA
ATOM     34  C   LIG    1        3.086   0.233   4.279  0.00  0.00    +0.199 A 
ENDBRANCH  28  31
ENDBRANCH  27  28
ENDBRANCH  23  27
ENDBRANCH   1  25
TORSDOF 6
