REMARK  Name = pdb/CHEMBL3675923.pdb
REMARK                            x       y       z     vdW  Elec       q    Type
REMARK                         _______ _______ _______ _____ _____    ______ ____
ROOT
ATOM      1  C   LIG    1        6.972   4.427   4.432  0.00  0.00    +0.100 A 
ATOM      2  C   LIG    1        6.966   5.621   5.129  0.00  0.00    +0.170 A 
ATOM      3  N   LIG    1        6.393   6.837   4.858  0.00  0.00    -0.212 NA
ATOM      4  C   LIG    1        6.548   7.810   5.734  0.00  0.00    +0.126 A 
ATOM      5  C   LIG    1        7.382   7.624   6.982  0.00  0.00    +0.063 A 
ATOM      6  C   LIG    1        7.916   6.416   7.195  0.00  0.00    +0.118 A 
ATOM      7  N   LIG    1        7.710   5.394   6.287  0.00  0.00    -0.221 N 
ATOM      8  N   LIG    1        8.177   4.126   6.356  0.00  0.00    -0.173 NA
ATOM      9  C   LIG    1        7.721   3.549   5.243  0.00  0.00    +0.150 A 
ENDROOT
BRANCH   4  10
ATOM     10  N   LIG    1        5.935   9.030   5.486  0.00  0.00    -0.308 N 
ATOM     11  C   LIG    1        5.646  10.038   6.516  0.00  0.00    +0.108 C 
ATOM     12  C   LIG    1        4.231  10.500   6.142  0.00  0.00    +0.029 C 
ATOM     13  C   LIG    1        4.230  10.462   4.624  0.00  0.00    +0.021 C 
ATOM     14  C   LIG    1        5.097   9.248   4.299  0.00  0.00    +0.107 C 
BRANCH  11  15
ATOM     15  C   LIG    1        6.701  11.133   6.527  0.00  0.00    +0.011 A 
ATOM     16  C   LIG    1        6.987  11.817   7.717  0.00  0.00    +0.129 A 
ATOM     17  F   LIG    1        6.320  11.509   8.838  0.00  0.00    -0.205 F 
ATOM     18  C   LIG    1        7.976  12.804   7.783  0.00  0.00    +0.041 A 
ATOM     19  C   LIG    1        8.705  13.132   6.642  0.00  0.00    +0.041 A 
ATOM     20  C   LIG    1        8.433  12.468   5.454  0.00  0.00    +0.124 A 
ATOM     21  F   LIG    1        9.134  12.767   4.354  0.00  0.00    -0.205 F 
ATOM     22  C   LIG    1        7.448  11.485   5.388  0.00  0.00    +0.046 A 
ENDBRANCH  11  15
ENDBRANCH   4  10
BRANCH   1  25
ATOM     23  N   LIG    1        6.237   5.215   2.309  0.00  0.00    -0.308 N 
ATOM     24  H   LIG    1        6.516   6.120   2.680  0.00  0.00    +0.149 HD
ATOM     25  C   LIG    1        6.352   4.132   3.159  0.00  0.00    +0.249 C 
ATOM     26  O   LIG    1        6.005   2.996   2.857  0.00  0.00    -0.270 OA
BRANCH  23  30
ATOM     27  N   LIG    1        4.394   7.522  -0.022  0.00  0.00    -0.167 NA
ATOM     28  C   LIG    1        5.868   7.464   0.031  0.00  0.00    +0.112 C 
ATOM     29  C   LIG    1        6.318   6.006  -0.035  0.00  0.00    +0.039 C 
ATOM     30  C   LIG    1        5.627   5.103   0.991  0.00  0.00    +0.076 C 
ATOM     31  C   LIG    1        4.112   5.335   1.033  0.00  0.00    +0.039 C 
ATOM     32  C   LIG    1        3.743   6.809   1.092  0.00  0.00    +0.112 C 
BRANCH  27  33
ATOM     33  S   LIG    1        3.684   8.909  -0.619  0.00  0.00    +0.095 S 
ATOM     34  O   LIG    1        4.602   9.670  -1.412  0.00  0.00    -0.141 OA
ATOM     35  O   LIG    1        2.343   8.588  -1.066  0.00  0.00    -0.141 OA
BRANCH  33  36
ATOM     36  N   LIG    1        3.442   9.764   0.799  0.00  0.00    -0.193 NA
ATOM     37  H   LIG    1        3.418  10.755   0.544  0.00  0.00    +0.145 HD
ATOM     38  H   LIG    1        2.530   9.491   1.166  0.00  0.00    +0.145 HD
ENDBRANCH  33  36
ENDBRANCH  27  33
ENDBRANCH  23  30
ENDBRANCH   1  25
TORSDOF 6
