REMARK  Name = pdb/CHEMBL3979634.pdb
REMARK                            x       y       z     vdW  Elec       q    Type
REMARK                         _______ _______ _______ _____ _____    ______ ____
ROOT
ATOM      1  C   LIG    1        2.320  -1.609   0.840  0.00  0.00    +0.149 A 
ATOM      2  N   LIG    1        2.528  -2.924   1.021  0.00  0.00    -0.160 NA
ATOM      3  N   LIG    1        3.598  -3.013   1.851  0.00  0.00    -0.218 N 
ATOM      4  C   LIG    1        4.037  -1.746   2.253  0.00  0.00    +0.129 A 
ATOM      5  C   LIG    1        3.198  -0.845   1.646  0.00  0.00    +0.078 A 
ENDROOT
BRANCH   3   6
ATOM      6  C   LIG    1        4.128  -4.297   2.189  0.00  0.00    +0.067 A 
ATOM      7  C   LIG    1        5.461  -4.472   2.589  0.00  0.00    +0.028 A 
ATOM      8  C   LIG    1        5.947  -5.751   2.885  0.00  0.00    +0.002 A 
ATOM      9  C   LIG    1        5.113  -6.862   2.781  0.00  0.00    +0.000 A 
ATOM     10  C   LIG    1        3.787  -6.699   2.390  0.00  0.00    +0.002 A 
ATOM     11  C   LIG    1        3.296  -5.425   2.085  0.00  0.00    +0.028 A 
ENDBRANCH   3   6
BRANCH   4  12
ATOM     12  N   LIG    1        5.042  -1.458   3.176  0.00  0.00    -0.266 N 
ATOM     13  H   LIG    1        5.318  -2.220   3.781  0.00  0.00    +0.157 HD
ATOM     14  C   LIG    1        5.659  -0.166   3.366  0.00  0.00    +0.251 C 
ATOM     15  O   LIG    1        5.383   0.778   2.666  0.00  0.00    -0.270 OA
BRANCH  14  16
ATOM     16  C   LIG    1        6.712  -0.103   4.434  0.00  0.00    +0.056 A 
ATOM     17  C   LIG    1        6.658  -0.900   5.574  0.00  0.00    +0.054 A 
ATOM     18 CL   LIG    1        5.372  -2.001   5.932  0.00  0.00    -0.083 Cl
ATOM     19  C   LIG    1        7.678  -0.833   6.518  0.00  0.00    +0.041 A 
ATOM     20  C   LIG    1        8.766   0.036   6.355  0.00  0.00    +0.052 A 
ATOM     21 CL   LIG    1       10.006  -0.162   7.547  0.00  0.00    -0.083 Cl
ATOM     22  C   LIG    1        8.840   0.917   5.255  0.00  0.00    +0.022 A 
ATOM     23  C   LIG    1        7.795   0.800   4.287  0.00  0.00    +0.026 A 
BRANCH  22  24
ATOM     24  C   LIG    1        9.929   1.918   5.039  0.00  0.00    +0.107 A 
ATOM     25  C   LIG    1       10.575   2.633   6.055  0.00  0.00    +0.149 A 
ATOM     26  F   LIG    1       10.193   2.550   7.336  0.00  0.00    -0.203 F 
ATOM     27  C   LIG    1       11.608   3.515   5.752  0.00  0.00    +0.042 A 
ATOM     28  C   LIG    1       11.942   3.737   4.426  0.00  0.00    +0.023 A 
ATOM     29  C   LIG    1       11.226   3.052   3.459  0.00  0.00    +0.111 A 
ATOM     30  N   LIG    1       10.247   2.148   3.731  0.00  0.00    -0.252 NA
ENDBRANCH  22  24
ENDBRANCH  14  16
ENDBRANCH   4  12
BRANCH   1  31
ATOM     31  C   LIG    1        1.297  -1.088  -0.068  0.00  0.00    +0.236 C 
ATOM     32  N   LIG    1        1.419   0.107  -0.547  0.00  0.00    -0.241 NA
BRANCH  32  33
ATOM     33  C   LIG    1        0.416   0.604  -1.480  0.00  0.00    +0.160 C 
ATOM     34  C   LIG    1        0.681   0.222  -2.945  0.00  0.00    +0.189 C 
ATOM     35  O   LIG    1        0.602   1.611  -3.355  0.00  0.00    -0.375 OA
ATOM     36  C   LIG    1        0.728   2.027  -1.969  0.00  0.00    +0.189 C 
ENDBRANCH  32  33
BRANCH  31  37
ATOM     37  O   LIG    1        0.274  -1.927  -0.328  0.00  0.00    -0.491 OA
ATOM     38  H   LIG    1       -0.407  -1.530  -0.882  0.00  0.00    +0.294 HD
ENDBRANCH  31  37
ENDBRANCH   1  31
TORSDOF 7
