REMARK  Name = pdb/CHEMBL3913529.pdb
REMARK                            x       y       z     vdW  Elec       q    Type
REMARK                         _______ _______ _______ _____ _____    ______ ____
ROOT
ATOM      1  C   LIG    1        2.119  -1.992  -3.176  0.00  0.00    +0.179 A 
ATOM      2  N   LIG    1        1.637  -2.564  -4.333  0.00  0.00    -0.193 N 
ATOM      3  N   LIG    1        1.584  -3.898  -4.564  0.00  0.00    -0.148 NA
ATOM      4  C   LIG    1        1.029  -4.280  -5.679  0.00  0.00    +0.143 A 
ATOM      5  C   LIG    1        0.491  -3.268  -6.655  0.00  0.00    +0.049 A 
ATOM      6  C   LIG    1        0.563  -1.962  -6.356  0.00  0.00    +0.051 A 
ATOM      7  C   LIG    1        1.153  -1.558  -5.139  0.00  0.00    +0.157 A 
ATOM      8  N   LIG    1        1.348  -0.374  -4.606  0.00  0.00    -0.232 NA
ATOM      9  C   LIG    1        1.968  -0.632  -3.405  0.00  0.00    +0.161 A 
ENDROOT
BRANCH   4  10
ATOM     10  N   LIG    1        0.970  -5.650  -5.912  0.00  0.00    -0.307 N 
ATOM     11  C   LIG    1        1.377  -6.623  -4.857  0.00  0.00    +0.108 C 
ATOM     12  C   LIG    1        0.254  -7.687  -4.866  0.00  0.00    +0.029 C 
ATOM     13  C   LIG    1       -0.791  -7.167  -5.839  0.00  0.00    +0.021 C 
ATOM     14  C   LIG    1        0.008  -6.297  -6.790  0.00  0.00    +0.107 C 
BRANCH  11  15
ATOM     15  C   LIG    1        2.741  -7.240  -5.113  0.00  0.00    +0.011 A 
ATOM     16  C   LIG    1        3.222  -8.224  -4.233  0.00  0.00    +0.129 A 
ATOM     17  F   LIG    1        2.479  -8.596  -3.180  0.00  0.00    -0.205 F 
ATOM     18  C   LIG    1        4.449  -8.856  -4.430  0.00  0.00    +0.041 A 
ATOM     19  C   LIG    1        5.237  -8.501  -5.521  0.00  0.00    +0.041 A 
ATOM     20  C   LIG    1        4.789  -7.509  -6.387  0.00  0.00    +0.124 A 
ATOM     21  F   LIG    1        5.546  -7.165  -7.437  0.00  0.00    -0.205 F 
ATOM     22  C   LIG    1        3.563  -6.875  -6.190  0.00  0.00    +0.046 A 
ENDBRANCH  11  15
ENDBRANCH   4  10
BRANCH   1  24
ATOM     23  C   LIG    1        2.260  -3.786  -1.678  0.00  0.00    +0.285 C 
ATOM     24  N   LIG    1        2.723  -2.691  -2.161  0.00  0.00    -0.178 NA
BRANCH  23  25
ATOM     25  N   LIG    1        2.879  -4.532  -0.698  0.00  0.00    -0.285 N 
ATOM     26  C   LIG    1        4.241  -4.155  -0.319  0.00  0.00    +0.109 C 
ATOM     27  C   LIG    1        4.914  -5.294   0.445  0.00  0.00    +0.019 C 
ATOM     28  C   LIG    1        4.062  -5.754   1.624  0.00  0.00    +0.003 C 
ATOM     29  C   LIG    1        2.661  -6.124   1.156  0.00  0.00    +0.019 C 
ATOM     30  C   LIG    1        2.025  -4.969   0.404  0.00  0.00    +0.109 C 
ENDBRANCH  23  25
BRANCH  23  31
ATOM     31  O   LIG    1        1.094  -4.377  -2.027  0.00  0.00    -0.481 OA
ATOM     32  H   LIG    1        0.686  -3.907  -2.767  0.00  0.00    +0.295 HD
ENDBRANCH  23  31
ENDBRANCH   1  24
TORSDOF 5
