REMARK  Name = pdb/CHEMBL3940800.pdb
REMARK                            x       y       z     vdW  Elec       q    Type
REMARK                         _______ _______ _______ _____ _____    ______ ____
ROOT
ATOM      1  N   LIG    1        4.801   8.189 -11.985  0.00  0.00    -0.196 NA
ATOM      2  C   LIG    1        5.085   9.329 -11.494  0.00  0.00    +0.285 C 
ENDROOT
BRANCH   1   6
ATOM      3  C   LIG    1        4.602   4.627  -9.887  0.00  0.00    +0.323 A 
ATOM      4  N   LIG    1        5.551   5.484  -9.487  0.00  0.00    -0.201 NA
ATOM      5  C   LIG    1        5.642   6.636 -10.207  0.00  0.00    +0.145 A 
ATOM      6  C   LIG    1        4.802   6.992 -11.246  0.00  0.00    +0.105 A 
ATOM      7  C   LIG    1        3.905   6.009 -11.581  0.00  0.00    +0.145 A 
ATOM      8  N   LIG    1        3.821   4.820 -10.961  0.00  0.00    -0.201 NA
BRANCH   3   9
ATOM      9  O   LIG    1        4.436   3.483  -9.106  0.00  0.00    -0.424 OA
BRANCH   9  13
ATOM     10  C   LIG    1        1.298   0.814  -9.817  0.00  0.00    -0.010 A 
ATOM     11  C   LIG    1        1.124   2.145 -10.156  0.00  0.00    +0.012 A 
ATOM     12  C   LIG    1        2.139   3.052  -9.892  0.00  0.00    +0.047 A 
ATOM     13  C   LIG    1        3.363   2.644  -9.345  0.00  0.00    +0.132 A 
ATOM     14  C   LIG    1        3.519   1.306  -8.971  0.00  0.00    +0.047 A 
ATOM     15  C   LIG    1        2.487   0.392  -9.207  0.00  0.00    +0.012 A 
BRANCH  10  19
ATOM     16  N   LIG    1       -1.826  -3.171  -9.572  0.00  0.00    -0.261 NA
ATOM     17  C   LIG    1       -1.274  -2.078  -9.956  0.00  0.00    +0.167 A 
ATOM     18  S   LIG    1       -0.764  -0.742  -8.878  0.00  0.00    -0.050 S 
ATOM     19  C   LIG    1        0.256  -0.129 -10.133  0.00  0.00    +0.039 A 
ATOM     20  C   LIG    1        0.042  -0.737 -11.306  0.00  0.00    +0.100 A 
ATOM     21  N   LIG    1       -0.884  -1.752 -11.243  0.00  0.00    -0.340 N 
ATOM     22  H   LIG    1       -0.891  -2.439 -11.988  0.00  0.00    +0.167 HD
BRANCH  16  23
ATOM     23  C   LIG    1       -2.077  -3.389  -8.151  0.00  0.00    +0.144 C 
BRANCH  23  25
ATOM     24  C   LIG    1       -4.553  -3.581  -8.559  0.00  0.00    +0.005 C 
ATOM     25  C   LIG    1       -3.459  -2.869  -7.779  0.00  0.00    +0.020 C 
ENDBRANCH  23  25
ENDBRANCH  16  23
ENDBRANCH  10  19
ENDBRANCH   9  13
ENDBRANCH   3   9
ENDBRANCH   1   6
BRANCH   2  26
ATOM     26  N   LIG    1        5.017  10.556 -12.115  0.00  0.00    -0.267 N 
ATOM     27  H   LIG    1        5.351  11.382 -11.627  0.00  0.00    +0.157 HD
BRANCH  26  28
ATOM     28  C   LIG    1        4.544  10.864 -13.414  0.00  0.00    +0.061 A 
ATOM     29  C   LIG    1        4.624  12.173 -13.960  0.00  0.00    +0.087 A 
ATOM     30  C   LIG    1        4.185  12.406 -15.283  0.00  0.00    +0.030 A 
ATOM     31  C   LIG    1        3.694  11.371 -16.078  0.00  0.00    +0.014 A 
ATOM     32  C   LIG    1        3.600  10.084 -15.563  0.00  0.00    +0.057 A 
ATOM     33  C   LIG    1        3.986   9.865 -14.235  0.00  0.00    +0.037 A 
BRANCH  29  34
ATOM     34  N   LIG    1        5.144  13.282 -13.217  0.00  0.00    -0.238 N 
ATOM     35  N   LIG    1        5.634  13.135 -11.947  0.00  0.00    -0.162 NA
ATOM     36  C   LIG    1        6.081  14.363 -11.596  0.00  0.00    +0.166 A 
ATOM     37  C   LIG    1        5.831  15.307 -12.617  0.00  0.00    +0.054 A 
ATOM     38  C   LIG    1        5.233  14.597 -13.625  0.00  0.00    +0.115 A 
BRANCH  36  39
ATOM     39  C   LIG    1        6.755  14.651 -10.279  0.00  0.00    +0.436 C 
ATOM     40  F   LIG    1        7.861  13.884 -10.095  0.00  0.00    -0.164 F 
ATOM     41  F   LIG    1        5.932  14.423  -9.223  0.00  0.00    -0.164 F 
ATOM     42  F   LIG    1        7.159  15.947 -10.187  0.00  0.00    -0.164 F 
ENDBRANCH  36  39
ENDBRANCH  29  34
BRANCH  32  43
ATOM     43  C   LIG    1        3.109   8.937 -16.410  0.00  0.00    +0.417 C 
ATOM     44  F   LIG    1        3.761   8.858 -17.603  0.00  0.00    -0.166 F 
ATOM     45  F   LIG    1        1.786   9.042 -16.710  0.00  0.00    -0.166 F 
ATOM     46  F   LIG    1        3.262   7.717 -15.822  0.00  0.00    -0.166 F 
ENDBRANCH  32  43
ENDBRANCH  26  28
ENDBRANCH   2  26
BRANCH   2  47
ATOM     47  O   LIG    1        5.496   9.440 -10.212  0.00  0.00    -0.481 OA
ATOM     48  H   LIG    1        5.643  10.349  -9.938  0.00  0.00    +0.295 HD
ENDBRANCH   2  47
TORSDOF 12
