REMARK  Name = pdb/CHEMBL2037209.pdb
REMARK                            x       y       z     vdW  Elec       q    Type
REMARK                         _______ _______ _______ _____ _____    ______ ____
ROOT
ATOM      1  C   LIG    1        7.577   8.469  -1.073  0.00  0.00    +0.035 A 
ATOM      2  C   LIG    1        7.651   8.353   0.324  0.00  0.00    +0.046 A 
ATOM      3  C   LIG    1        8.684   8.954   1.057  0.00  0.00    +0.033 A 
ATOM      4  C   LIG    1        9.635   9.711   0.365  0.00  0.00    +0.023 A 
ATOM      5  C   LIG    1        9.565   9.846  -1.020  0.00  0.00    +0.004 A 
ATOM      6  C   LIG    1        8.543   9.222  -1.736  0.00  0.00    +0.023 A 
ENDROOT
BRANCH   1   8
ATOM      7  C   LIG    1        6.265   7.741  -3.080  0.00  0.00    +0.248 C 
ATOM      8  N   LIG    1        6.519   7.786  -1.719  0.00  0.00    -0.281 N 
ATOM      9  H   LIG    1        5.917   7.278  -1.090  0.00  0.00    +0.155 HD
ATOM     10  O   LIG    1        6.906   8.335  -3.941  0.00  0.00    -0.270 OA
BRANCH   7  15
ATOM     11  C   LIG    1        3.812   6.077  -5.456  0.00  0.00    +0.049 A 
ATOM     12  C   LIG    1        3.016   5.328  -4.579  0.00  0.00    +0.038 A 
ATOM     13  C   LIG    1        3.258   5.346  -3.193  0.00  0.00    +0.057 A 
ATOM     14  C   LIG    1        4.306   6.133  -2.684  0.00  0.00    +0.025 A 
ATOM     15  C   LIG    1        5.113   6.890  -3.541  0.00  0.00    +0.040 A 
ATOM     16  C   LIG    1        4.855   6.850  -4.927  0.00  0.00    +0.039 A 
BRANCH  11  21
ATOM     17  C   LIG    1        1.979   5.109 -10.025  0.00  0.00    +0.067 C 
ATOM     18  C   LIG    1        2.761   5.605  -8.872  0.00  0.00    +0.056 A 
ATOM     19  N   LIG    1        3.832   6.433  -9.059  0.00  0.00    -0.241 NA
ATOM     20  C   LIG    1        4.295   6.681  -7.854  0.00  0.00    +0.204 A 
ATOM     21  N   LIG    1        3.574   6.045  -6.864  0.00  0.00    -0.306 N 
ATOM     22  C   LIG    1        2.576   5.362  -7.528  0.00  0.00    +0.115 A 
ENDBRANCH  11  21
BRANCH  13  23
ATOM     23  C   LIG    1        2.402   4.510  -2.268  0.00  0.00    +0.418 C 
ATOM     24  F   LIG    1        2.464   3.184  -2.564  0.00  0.00    -0.166 F 
ATOM     25  F   LIG    1        1.087   4.853  -2.326  0.00  0.00    -0.166 F 
ATOM     26  F   LIG    1        2.763   4.620  -0.959  0.00  0.00    -0.166 F 
ENDBRANCH  13  23
ENDBRANCH   7  15
ENDBRANCH   1   8
BRANCH   3  27
ATOM     27  N   LIG    1        8.803   8.809   2.451  0.00  0.00    -0.314 N 
ATOM     28  H   LIG    1        9.469   9.450   2.872  0.00  0.00    +0.152 HD
BRANCH  27  29
ATOM     29  C   LIG    1        8.441   7.747   3.304  0.00  0.00    +0.033 A 
ATOM     30  C   LIG    1        8.163   8.035   4.646  0.00  0.00    +0.047 A 
ATOM     31  C   LIG    1        7.767   6.998   5.468  0.00  0.00    +0.043 A 
ATOM     32  N   LIG    1        7.436   7.097   6.813  0.00  0.00    -0.281 N 
ATOM     33  H   LIG    1        7.444   7.942   7.364  0.00  0.00    +0.155 HD
ATOM     34  C   LIG    1        7.064   5.872   7.337  0.00  0.00    +0.249 C 
ATOM     35  O   LIG    1        6.716   5.668   8.481  0.00  0.00    -0.270 OA
ATOM     36  C   LIG    1        7.187   4.889   6.192  0.00  0.00    +0.048 C 
ATOM     37  C   LIG    1        6.952   3.566   6.154  0.00  0.00    +0.039 C 
ATOM     38  C   LIG    1        7.636   5.679   5.026  0.00  0.00    +0.008 A 
ATOM     39  C   LIG    1        7.908   5.374   3.706  0.00  0.00    +0.012 A 
ATOM     40  C   LIG    1        8.303   6.417   2.850  0.00  0.00    +0.024 A 
BRANCH  37  41
ATOM     41  C   LIG    1        6.503   2.701   7.192  0.00  0.00    +0.040 A 
ATOM     42  N   LIG    1        6.204   3.139   8.461  0.00  0.00    -0.361 N 
ATOM     43  H   LIG    1        6.279   4.097   8.787  0.00  0.00    +0.165 HD
ATOM     44  C   LIG    1        5.785   2.096   9.244  0.00  0.00    +0.083 A 
ATOM     45  C   LIG    1        5.816   0.957   8.479  0.00  0.00    +0.019 A 
ATOM     46  C   LIG    1        6.267   1.335   7.193  0.00  0.00    +0.027 A 
ENDBRANCH  37  41
ENDBRANCH  27  29
ENDBRANCH   3  27
TORSDOF 7
