REMARK  Name = pdb/CHEMBL3950761.pdb
REMARK                            x       y       z     vdW  Elec       q    Type
REMARK                         _______ _______ _______ _____ _____    ______ ____
ROOT
ATOM      1  C   LIG    1       -0.792  -6.730  -0.580  0.00  0.00    +0.221 A 
ATOM      2  N   LIG    1       -1.686  -5.851  -0.079  0.00  0.00    -0.219 NA
ATOM      3  C   LIG    1       -2.946  -5.942  -0.548  0.00  0.00    +0.142 A 
ATOM      4  C   LIG    1       -3.332  -6.765  -1.586  0.00  0.00    +0.087 A 
ATOM      5  C   LIG    1       -2.374  -7.648  -2.096  0.00  0.00    +0.034 A 
ATOM      6  C   LIG    1       -1.081  -7.643  -1.579  0.00  0.00    +0.070 A 
ENDROOT
BRANCH   4   7
ATOM      7  N   LIG    1       -4.636  -6.869  -2.045  0.00  0.00    -0.198 NA
ATOM      8  C   LIG    1       -5.571  -5.999  -2.067  0.00  0.00    +0.285 C 
BRANCH   8   9
ATOM      9  N   LIG    1       -6.888  -6.215  -2.411  0.00  0.00    -0.267 N 
ATOM     10  H   LIG    1       -7.530  -5.448  -2.229  0.00  0.00    +0.157 HD
BRANCH   9  11
ATOM     11  C   LIG    1       -7.444  -7.422  -2.889  0.00  0.00    +0.061 A 
ATOM     12  C   LIG    1       -8.762  -7.570  -3.374  0.00  0.00    +0.088 A 
ATOM     13  C   LIG    1       -9.175  -8.834  -3.874  0.00  0.00    +0.030 A 
ATOM     14  C   LIG    1       -8.314  -9.936  -3.919  0.00  0.00    +0.014 A 
ATOM     15  C   LIG    1       -7.016  -9.811  -3.461  0.00  0.00    +0.057 A 
ATOM     16  C   LIG    1       -6.627  -8.570  -2.966  0.00  0.00    +0.037 A 
BRANCH  12  17
ATOM     17  N   LIG    1       -9.712  -6.507  -3.398  0.00  0.00    -0.218 N 
ATOM     18  N   LIG    1       -9.423  -5.241  -3.000  0.00  0.00    -0.061 NA
ATOM     19  N   LIG    1      -10.499  -4.481  -3.183  0.00  0.00    -0.138 NA
ATOM     20  C   LIG    1      -11.495  -5.266  -3.674  0.00  0.00    +0.156 A 
ATOM     21  C   LIG    1      -11.033  -6.550  -3.806  0.00  0.00    +0.136 A 
ENDBRANCH  12  17
BRANCH  15  22
ATOM     22  C   LIG    1       -6.018 -10.941  -3.462  0.00  0.00    +0.417 C 
ATOM     23  F   LIG    1       -5.781 -11.425  -4.710  0.00  0.00    -0.166 F 
ATOM     24  F   LIG    1       -6.436 -11.997  -2.714  0.00  0.00    -0.166 F 
ATOM     25  F   LIG    1       -4.793 -10.601  -2.964  0.00  0.00    -0.166 F 
ENDBRANCH  15  22
ENDBRANCH   9  11
ENDBRANCH   8   9
BRANCH   8  26
ATOM     26  O   LIG    1       -5.370  -4.700  -1.778  0.00  0.00    -0.481 OA
ATOM     27  H   LIG    1       -4.414  -4.512  -1.808  0.00  0.00    +0.295 HD
ENDBRANCH   8  26
ENDBRANCH   4   7
BRANCH   1  28
ATOM     28  O   LIG    1        0.509  -6.717  -0.103  0.00  0.00    -0.438 OA
BRANCH  28  32
ATOM     29  C   LIG    1        1.346  -5.446   3.825  0.00  0.00    -0.014 A 
ATOM     30  C   LIG    1        2.270  -5.322   2.766  0.00  0.00    +0.012 A 
ATOM     31  C   LIG    1        1.955  -5.723   1.461  0.00  0.00    +0.047 A 
ATOM     32  C   LIG    1        0.717  -6.296   1.189  0.00  0.00    +0.130 A 
ATOM     33  C   LIG    1       -0.194  -6.471   2.228  0.00  0.00    +0.047 A 
ATOM     34  C   LIG    1        0.097  -6.001   3.507  0.00  0.00    +0.012 A 
BRANCH  29  36
ATOM     35  C   LIG    1        1.173  -5.627   6.380  0.00  0.00    +0.124 A 
ATOM     36  C   LIG    1        1.672  -5.008   5.209  0.00  0.00    +0.023 A 
ATOM     37  C   LIG    1        2.533  -3.912   5.414  0.00  0.00    +0.033 A 
ATOM     38  C   LIG    1        2.865  -3.497   6.698  0.00  0.00    +0.060 A 
ATOM     39 CL   LIG    1        3.949  -2.191   6.944  0.00  0.00    -0.082 Cl
ATOM     40  C   LIG    1        2.307  -4.168   7.766  0.00  0.00    +0.133 A 
ATOM     41  N   LIG    1        1.465  -5.216   7.632  0.00  0.00    -0.239 NA
BRANCH  35  42
ATOM     42  N   LIG    1        0.315  -6.724   6.360  0.00  0.00    -0.343 N 
ATOM     43  H   LIG    1        0.700  -7.486   5.812  0.00  0.00    +0.144 HD
ATOM     44  H   LIG    1        0.149  -6.991   7.327  0.00  0.00    +0.144 HD
ENDBRANCH  35  42
ENDBRANCH  29  36
ENDBRANCH  28  32
ENDBRANCH   1  28
TORSDOF 10
