REMARK  Name = pdb/CHEMBL3966864.pdb
REMARK                            x       y       z     vdW  Elec       q    Type
REMARK                         _______ _______ _______ _____ _____    ______ ____
ROOT
ATOM      1  C   LIG    1        2.876  -3.162  -1.783  0.00  0.00    +0.105 A 
ATOM      2  C   LIG    1        3.750  -2.784  -2.782  0.00  0.00    +0.145 A 
ATOM      3  N   LIG    1        4.984  -3.305  -2.964  0.00  0.00    -0.201 NA
ATOM      4  C   LIG    1        5.356  -4.296  -2.136  0.00  0.00    +0.323 A 
ATOM      5  N   LIG    1        4.555  -4.822  -1.199  0.00  0.00    -0.201 NA
ATOM      6  C   LIG    1        3.329  -4.257  -1.073  0.00  0.00    +0.145 A 
ENDROOT
BRANCH   1   8
ATOM      7  C   LIG    1        1.106  -2.260  -0.478  0.00  0.00    +0.285 C 
ATOM      8  N   LIG    1        1.654  -2.486  -1.622  0.00  0.00    -0.196 NA
BRANCH   7   9
ATOM      9  N   LIG    1        1.406  -2.642   0.800  0.00  0.00    -0.268 N 
ATOM     10  H   LIG    1        2.019  -3.440   0.909  0.00  0.00    +0.157 HD
BRANCH   9  12
ATOM     11  C   LIG    1        0.804  -2.912   3.188  0.00  0.00    +0.109 A 
ATOM     12  C   LIG    1        1.002  -2.113   2.041  0.00  0.00    +0.060 A 
ATOM     13  C   LIG    1        0.763  -0.732   2.186  0.00  0.00    +0.037 A 
ATOM     14  C   LIG    1        0.356  -0.165   3.412  0.00  0.00    +0.057 A 
ATOM     15  C   LIG    1        0.196  -0.992   4.528  0.00  0.00    +0.014 A 
ATOM     16  C   LIG    1        0.438  -2.351   4.418  0.00  0.00    +0.029 A 
BRANCH  11  18
ATOM     17  C   LIG    1       -0.581  -5.309   3.672  0.00  0.00    +0.200 C 
ATOM     18  S   LIG    1        1.023  -4.681   3.207  0.00  0.00    -0.004 S 
ATOM     19  O   LIG    1        1.296  -5.107   1.833  0.00  0.00    -0.170 OA
ATOM     20  O   LIG    1        1.951  -4.976   4.253  0.00  0.00    -0.170 OA
ENDBRANCH  11  18
BRANCH  14  21
ATOM     21  C   LIG    1        0.078   1.315   3.519  0.00  0.00    +0.417 C 
ATOM     22  F   LIG    1       -0.884   1.723   2.649  0.00  0.00    -0.166 F 
ATOM     23  F   LIG    1        1.174   2.080   3.264  0.00  0.00    -0.166 F 
ATOM     24  F   LIG    1       -0.358   1.689   4.756  0.00  0.00    -0.166 F 
ENDBRANCH  14  21
ENDBRANCH   9  12
ENDBRANCH   7   9
BRANCH   7  25
ATOM     25  O   LIG    1       -0.026  -1.539  -0.581  0.00  0.00    -0.481 OA
ATOM     26  H   LIG    1       -0.154  -1.367  -1.530  0.00  0.00    +0.295 HD
ENDBRANCH   7  25
ENDBRANCH   1   8
BRANCH   4  27
ATOM     27  O   LIG    1        6.649  -4.817  -2.168  0.00  0.00    -0.424 OA
BRANCH  27  28
ATOM     28  C   LIG    1        7.572  -4.341  -3.071  0.00  0.00    +0.132 A 
ATOM     29  C   LIG    1        7.270  -3.947  -4.368  0.00  0.00    +0.047 A 
ATOM     30  C   LIG    1        8.266  -3.464  -5.218  0.00  0.00    +0.012 A 
ATOM     31  C   LIG    1        9.622  -3.425  -4.849  0.00  0.00    -0.014 A 
ATOM     32  C   LIG    1        9.921  -3.892  -3.555  0.00  0.00    +0.012 A 
ATOM     33  C   LIG    1        8.911  -4.336  -2.676  0.00  0.00    +0.047 A 
BRANCH  31  34
ATOM     34  C   LIG    1       10.644  -2.939  -5.825  0.00  0.00    +0.022 A 
ATOM     35  C   LIG    1       11.839  -2.278  -5.491  0.00  0.00    +0.124 A 
ATOM     36  N   LIG    1       12.739  -1.842  -6.402  0.00  0.00    -0.240 NA
ATOM     37  C   LIG    1       12.463  -2.019  -7.711  0.00  0.00    +0.125 A 
ATOM     38  C   LIG    1       11.320  -2.633  -8.174  0.00  0.00    +0.074 A 
ATOM     39  C   LIG    1       10.423  -3.109  -7.212  0.00  0.00    +0.025 A 
BRANCH  38  40
ATOM     40  C   LIG    1       11.086  -2.759  -9.646  0.00  0.00    +0.419 C 
ATOM     41  F   LIG    1       12.057  -3.481 -10.269  0.00  0.00    -0.166 F 
ATOM     42  F   LIG    1       11.061  -1.550 -10.272  0.00  0.00    -0.166 F 
ATOM     43  F   LIG    1        9.908  -3.364  -9.963  0.00  0.00    -0.166 F 
ENDBRANCH  38  40
BRANCH  35  44
ATOM     44  N   LIG    1       12.207  -1.963  -4.185  0.00  0.00    -0.343 N 
ATOM     45  H   LIG    1       11.505  -1.366  -3.760  0.00  0.00    +0.144 HD
ATOM     46  H   LIG    1       13.099  -1.477  -4.260  0.00  0.00    +0.144 HD
ENDBRANCH  35  44
ENDBRANCH  31  34
ENDBRANCH  27  28
ENDBRANCH   4  27
TORSDOF 11
