REMARK  Name = pdb/CHEMBL3961601.pdb
REMARK                            x       y       z     vdW  Elec       q    Type
REMARK                         _______ _______ _______ _____ _____    ______ ____
ROOT
ATOM      1  C   LIG    1        6.622  -0.507  -0.232  0.00  0.00    +0.131 A 
ATOM      2  C   LIG    1        6.257   0.830  -0.263  0.00  0.00    +0.183 A 
ATOM      3  N   LIG    1        5.060   1.495  -0.365  0.00  0.00    -0.211 NA
ATOM      4  C   LIG    1        5.078   2.809  -0.460  0.00  0.00    +0.126 A 
ATOM      5  C   LIG    1        6.380   3.585  -0.431  0.00  0.00    +0.063 A 
ATOM      6  C   LIG    1        7.508   2.897  -0.341  0.00  0.00    +0.118 A 
ATOM      7  N   LIG    1        7.480   1.515  -0.250  0.00  0.00    -0.220 N 
ATOM      8  N   LIG    1        8.555   0.689  -0.195  0.00  0.00    -0.171 NA
ATOM      9  C   LIG    1        8.022  -0.530  -0.141  0.00  0.00    +0.165 A 
ENDROOT
BRANCH   4  10
ATOM     10  N   LIG    1        3.888   3.520  -0.594  0.00  0.00    -0.308 N 
ATOM     11  C   LIG    1        3.812   4.724  -1.447  0.00  0.00    +0.108 C 
ATOM     12  C   LIG    1        2.514   4.564  -2.260  0.00  0.00    +0.029 C 
ATOM     13  C   LIG    1        2.055   3.137  -1.996  0.00  0.00    +0.021 C 
ATOM     14  C   LIG    1        2.584   2.854  -0.602  0.00  0.00    +0.107 C 
BRANCH  11  15
ATOM     15  C   LIG    1        3.808   6.000  -0.631  0.00  0.00    +0.011 A 
ATOM     16  C   LIG    1        4.282   7.187  -1.204  0.00  0.00    +0.129 A 
ATOM     17  F   LIG    1        4.764   7.173  -2.454  0.00  0.00    -0.205 F 
ATOM     18  C   LIG    1        4.265   8.396  -0.507  0.00  0.00    +0.041 A 
ATOM     19  C   LIG    1        3.754   8.438   0.788  0.00  0.00    +0.041 A 
ATOM     20  C   LIG    1        3.275   7.270   1.368  0.00  0.00    +0.124 A 
ATOM     21  F   LIG    1        2.772   7.307   2.609  0.00  0.00    -0.205 F 
ATOM     22  C   LIG    1        3.302   6.061   0.678  0.00  0.00    +0.046 A 
ENDBRANCH  11  15
ENDBRANCH   4  10
BRANCH   1  24
ATOM     23  C   LIG    1        5.297  -2.003  -1.400  0.00  0.00    +0.239 C 
ATOM     24  N   LIG    1        5.872  -1.677  -0.280  0.00  0.00    -0.206 NA
BRANCH  23  28
ATOM     25  C   LIG    1        2.670  -1.447  -5.471  0.00  0.00    +0.065 C 
ATOM     26  C   LIG    1        3.880  -1.081  -4.659  0.00  0.00    +0.039 A 
ATOM     27  N   LIG    1        4.068  -1.701  -3.463  0.00  0.00    -0.247 NA
ATOM     28  C   LIG    1        5.166  -1.328  -2.733  0.00  0.00    +0.125 A 
ATOM     29  C   LIG    1        6.117  -0.447  -3.221  0.00  0.00    +0.033 A 
ATOM     30  C   LIG    1        5.895   0.188  -4.432  0.00  0.00    +0.004 A 
ATOM     31  C   LIG    1        4.755  -0.120  -5.158  0.00  0.00    +0.023 A 
ENDBRANCH  23  28
BRANCH  23  32
ATOM     32  O   LIG    1        4.728  -3.237  -1.452  0.00  0.00    -0.491 OA
ATOM     33  H   LIG    1        4.361  -3.411  -2.339  0.00  0.00    +0.294 HD
ENDBRANCH  23  32
ENDBRANCH   1  24
TORSDOF 5
