REMARK  Name = pdb/CHEMBL3676079.pdb
REMARK                            x       y       z     vdW  Elec       q    Type
REMARK                         _______ _______ _______ _____ _____    ______ ____
ROOT
ATOM      1  C   LIG    1        4.479   0.673   4.980  0.00  0.00    +0.100 A 
ATOM      2  C   LIG    1        4.573   1.317   6.207  0.00  0.00    +0.170 A 
ATOM      3  N   LIG    1        4.349   2.622   6.595  0.00  0.00    -0.212 NA
ATOM      4  C   LIG    1        4.590   2.953   7.850  0.00  0.00    +0.126 A 
ATOM      5  C   LIG    1        5.016   1.906   8.861  0.00  0.00    +0.063 A 
ATOM      6  C   LIG    1        5.230   0.662   8.430  0.00  0.00    +0.118 A 
ATOM      7  N   LIG    1        5.023   0.346   7.104  0.00  0.00    -0.221 N 
ATOM      8  N   LIG    1        5.219  -0.854   6.517  0.00  0.00    -0.173 NA
ATOM      9  C   LIG    1        4.896  -0.648   5.241  0.00  0.00    +0.150 A 
ENDROOT
BRANCH   4  10
ATOM     10  N   LIG    1        4.479   4.292   8.270  0.00  0.00    -0.303 N 
ATOM     11  C   LIG    1        4.349   5.385   7.263  0.00  0.00    +0.107 C 
ATOM     12  C   LIG    1        5.658   6.169   7.475  0.00  0.00    +0.029 C 
ATOM     13  C   LIG    1        5.791   6.190   8.985  0.00  0.00    +0.027 C 
ATOM     14  C   LIG    1        5.360   4.774   9.377  0.00  0.00    +0.101 C 
BRANCH  11  15
ATOM     15  C   LIG    1        3.078   6.200   7.473  0.00  0.00    -0.006 A 
ATOM     16  C   LIG    1        3.004   7.576   7.196  0.00  0.00    +0.046 A 
ATOM     17  C   LIG    1        1.805   8.261   7.354  0.00  0.00    +0.142 A 
ATOM     18  F   LIG    1        1.743   9.574   7.098  0.00  0.00    -0.204 F 
ATOM     19  C   LIG    1        0.688   7.567   7.767  0.00  0.00    +0.149 A 
ATOM     20  N   LIG    1        0.699   6.240   8.028  0.00  0.00    -0.260 NA
ATOM     21  C   LIG    1        1.883   5.592   7.864  0.00  0.00    +0.116 A 
ENDBRANCH  11  15
BRANCH  14  22
ATOM     22  C   LIG    1        4.680   4.747  10.752  0.00  0.00    +0.178 C 
BRANCH  22  23
ATOM     23  O   LIG    1        5.595   5.202  11.746  0.00  0.00    -0.393 OA
ATOM     24  H   LIG    1        5.106   5.256  12.586  0.00  0.00    +0.209 HD
ENDBRANCH  22  23
ENDBRANCH  14  22
ENDBRANCH   4  10
BRANCH   1  27
ATOM     25  N   LIG    1        3.697   2.532   3.736  0.00  0.00    -0.306 N 
ATOM     26  H   LIG    1        3.786   3.000   4.637  0.00  0.00    +0.150 HD
ATOM     27  C   LIG    1        4.067   1.207   3.691  0.00  0.00    +0.250 C 
ATOM     28  O   LIG    1        4.059   0.521   2.681  0.00  0.00    -0.270 OA
BRANCH  25  30
ATOM     29  C   LIG    1        4.391   4.012   1.867  0.00  0.00    +0.031 C 
ATOM     30  C   LIG    1        3.274   3.322   2.612  0.00  0.00    +0.032 C 
ATOM     31  C   LIG    1        2.051   2.956   1.802  0.00  0.00    +0.027 C 
ATOM     32  C   LIG    1        1.967   4.073   2.792  0.00  0.00    +0.027 C 
ENDBRANCH  25  30
ENDBRANCH   1  27
TORSDOF 6
