REMARK  Name = pdb/CHEMBL254555.pdb
REMARK                            x       y       z     vdW  Elec       q    Type
REMARK                         _______ _______ _______ _____ _____    ______ ____
ROOT
ATOM      1  C   LIG    1        4.509  -1.818   1.723  0.00  0.00    +0.093 C 
ATOM      2  C   LIG    1        3.746  -2.458   0.579  0.00  0.00    -0.004 A 
ATOM      3  C   LIG    1        3.276  -3.732   0.444  0.00  0.00    +0.052 A 
ATOM      4  C   LIG    1        2.757  -4.230  -0.714  0.00  0.00    +0.013 A 
ATOM      5  C   LIG    1        2.582  -3.385  -1.830  0.00  0.00    -0.008 A 
ATOM      6  C   LIG    1        2.980  -2.027  -1.669  0.00  0.00    +0.050 A 
ATOM      7  C   LIG    1        2.638  -1.341  -2.891  0.00  0.00    +0.245 C 
ATOM      8  O   LIG    1        2.720  -0.181  -3.274  0.00  0.00    -0.270 OA
ATOM      9  N   LIG    1        2.094  -2.326  -3.709  0.00  0.00    -0.307 N 
ATOM     10  H   LIG    1        1.760  -2.073  -4.627  0.00  0.00    +0.149 HD
ATOM     11  C   LIG    1        2.016  -3.655  -3.148  0.00  0.00    +0.141 C 
ATOM     12  C   LIG    1        2.567  -5.606  -0.701  0.00  0.00    +0.008 A 
ATOM     13  C   LIG    1        2.225  -6.626  -1.609  0.00  0.00    +0.010 A 
ATOM     14  C   LIG    1        2.255  -7.959  -1.185  0.00  0.00    +0.001 A 
ATOM     15  C   LIG    1        2.572  -8.280   0.132  0.00  0.00    +0.002 A 
ATOM     16  C   LIG    1        2.873  -7.284   1.068  0.00  0.00    +0.026 A 
ATOM     17  C   LIG    1        2.891  -5.954   0.625  0.00  0.00    +0.047 A 
ATOM     18  N   LIG    1        3.230  -4.788   1.314  0.00  0.00    -0.354 N 
ATOM     19  H   LIG    1        3.482  -4.748   2.291  0.00  0.00    +0.166 HD
ATOM     20  C   LIG    1        3.583  -1.570  -0.502  0.00  0.00    +0.001 A 
ATOM     21  C   LIG    1        4.150  -0.300  -0.118  0.00  0.00    -0.013 A 
ATOM     22  C   LIG    1        4.324   0.880  -0.825  0.00  0.00    +0.009 A 
ATOM     23  C   LIG    1        4.925   1.975  -0.198  0.00  0.00    +0.001 A 
ATOM     24  C   LIG    1        5.332   1.900   1.140  0.00  0.00    +0.000 A 
ATOM     25  C   LIG    1        5.184   0.713   1.859  0.00  0.00    +0.005 A 
ATOM     26  C   LIG    1        4.627  -0.384   1.212  0.00  0.00    -0.029 A 
ENDROOT
BRANCH   1  28
ATOM     27  C   LIG    1        6.779  -2.521   0.695  0.00  0.00    +0.053 C 
ATOM     28  C   LIG    1        5.916  -2.461   1.968  0.00  0.00    +0.187 C 
BRANCH  28  29
ATOM     29  O   LIG    1        5.721  -3.801   2.500  0.00  0.00    -0.446 OA
BRANCH  29  30
ATOM     30  C   LIG    1        6.837  -4.512   2.812  0.00  0.00    +0.401 C 
ATOM     31  N   LIG    1        6.481  -5.805   3.053  0.00  0.00    -0.278 N 
ATOM     32  H   LIG    1        5.509  -6.045   2.983  0.00  0.00    +0.152 HD
ATOM     33  O   LIG    1        7.969  -4.081   2.850  0.00  0.00    -0.226 OA
BRANCH  31  34
ATOM     34  C   LIG    1        7.450  -6.820   3.361  0.00  0.00    +0.134 C 
BRANCH  34  35
ATOM     35  C   LIG    1        7.071  -7.391   4.687  0.00  0.00    -0.016 C 
ATOM     36  C   LIG    1        6.248  -8.434   4.857  0.00  0.00    +0.005 C 
ENDBRANCH  34  35
ENDBRANCH  31  34
ENDBRANCH  29  30
ENDBRANCH  28  29
ENDBRANCH   1  28
TORSDOF 5
