REMARK  Name = pdb/CHEMBL3928864.pdb
REMARK                            x       y       z     vdW  Elec       q    Type
REMARK                         _______ _______ _______ _____ _____    ______ ____
ROOT
ATOM      1  C   LIG    1        6.580  -2.336   2.419  0.00  0.00    +0.131 C 
ATOM      2  N   LIG    1        7.472  -3.266   2.042  0.00  0.00    -0.141 NA
ATOM      3  N   LIG    1        8.671  -2.630   2.034  0.00  0.00    -0.201 N 
ATOM      4  C   LIG    1        8.509  -1.244   2.174  0.00  0.00    +0.185 C 
ATOM      5  C   LIG    1        7.206  -1.076   2.556  0.00  0.00    +0.056 C 
ENDROOT
BRANCH   3   6
ATOM      6  C   LIG    1        9.863  -3.384   1.854  0.00  0.00    +0.052 A 
ATOM      7  C   LIG    1       11.090  -2.938   2.358  0.00  0.00    +0.025 A 
ATOM      8  C   LIG    1       12.242  -3.711   2.172  0.00  0.00    +0.002 A 
ATOM      9  C   LIG    1       12.175  -4.921   1.482  0.00  0.00    +0.000 A 
ATOM     10  C   LIG    1       10.952  -5.381   1.001  0.00  0.00    +0.002 A 
ATOM     11  C   LIG    1        9.794  -4.626   1.203  0.00  0.00    +0.025 A 
ENDBRANCH   3   6
BRANCH   4  12
ATOM     12  N   LIG    1        9.444  -0.230   1.890  0.00  0.00    -0.282 N 
ATOM     13  H   LIG    1       10.347  -0.506   1.529  0.00  0.00    +0.152 HD
ATOM     14  C   LIG    1        9.108   1.174   1.972  0.00  0.00    +0.247 C 
ATOM     15  O   LIG    1        8.021   1.545   2.363  0.00  0.00    -0.270 OA
BRANCH  14  16
ATOM     16  C   LIG    1       10.080   2.179   1.484  0.00  0.00    +0.056 A 
ATOM     17  C   LIG    1       11.457   2.036   1.539  0.00  0.00    +0.054 A 
ATOM     18 CL   LIG    1       12.230   0.721   2.339  0.00  0.00    -0.083 Cl
ATOM     19  C   LIG    1       12.269   3.021   0.977  0.00  0.00    +0.041 A 
ATOM     20  C   LIG    1       11.717   4.192   0.424  0.00  0.00    +0.052 A 
ATOM     21 CL   LIG    1       12.854   5.246  -0.351  0.00  0.00    -0.083 Cl
ATOM     22  C   LIG    1       10.330   4.443   0.475  0.00  0.00    +0.022 A 
ATOM     23  C   LIG    1        9.538   3.384   0.979  0.00  0.00    +0.026 A 
BRANCH  22  24
ATOM     24  C   LIG    1        9.690   5.744   0.120  0.00  0.00    +0.107 A 
ATOM     25  C   LIG    1        8.354   5.878  -0.279  0.00  0.00    +0.149 A 
ATOM     26  F   LIG    1        7.563   4.811  -0.467  0.00  0.00    -0.203 F 
ATOM     27  C   LIG    1        7.797   7.139  -0.469  0.00  0.00    +0.042 A 
ATOM     28  C   LIG    1        8.585   8.264  -0.277  0.00  0.00    +0.023 A 
ATOM     29  C   LIG    1        9.899   8.071   0.106  0.00  0.00    +0.111 A 
ATOM     30  N   LIG    1       10.451   6.852   0.323  0.00  0.00    -0.252 NA
ENDBRANCH  22  24
ENDBRANCH  14  16
ENDBRANCH   4  12
BRANCH   1  32
ATOM     31  N   LIG    1        4.370  -1.619   2.888  0.00  0.00    -0.247 NA
ATOM     32  C   LIG    1        5.153  -2.599   2.610  0.00  0.00    +0.233 C 
BRANCH  32  33
ATOM     33  O   LIG    1        4.772  -3.884   2.472  0.00  0.00    -0.491 OA
ATOM     34  H   LIG    1        3.895  -4.020   2.859  0.00  0.00    +0.294 HD
ENDBRANCH  32  33
BRANCH  31  35
ATOM     35  C   LIG    1        2.929  -1.827   3.055  0.00  0.00    +0.176 C 
BRANCH  35  37
ATOM     36  C   LIG    1        1.116  -2.334   4.745  0.00  0.00    +0.039 C 
ATOM     37  C   LIG    1        2.608  -2.137   4.524  0.00  0.00    +0.133 C 
BRANCH  37  38
ATOM     38  O   LIG    1        3.266  -3.354   4.892  0.00  0.00    -0.390 OA
ATOM     39  H   LIG    1        3.150  -3.452   5.855  0.00  0.00    +0.210 HD
ENDBRANCH  37  38
ENDBRANCH  35  37
ENDBRANCH  31  35
ENDBRANCH   1  32
TORSDOF 9
