REMARK  Name = pdb/CHEMBL3671447.pdb
REMARK                            x       y       z     vdW  Elec       q    Type
REMARK                         _______ _______ _______ _____ _____    ______ ____
ROOT
ATOM      1  C   LIG    1        2.929   3.041  -4.269  0.00  0.00    +0.042 A 
ATOM      2  C   LIG    1        3.325   3.991  -5.216  0.00  0.00    +0.038 A 
ATOM      3  C   LIG    1        2.864   5.307  -5.146  0.00  0.00    +0.053 A 
ATOM      4  C   LIG    1        1.985   5.615  -4.112  0.00  0.00    +0.134 A 
ATOM      5  N   LIG    1        1.537   4.704  -3.205  0.00  0.00    -0.261 NA
ATOM      6  C   LIG    1        2.005   3.433  -3.310  0.00  0.00    +0.122 A 
ENDROOT
BRANCH   3   7
ATOM      7  N   LIG    1        3.295   6.203  -6.154  0.00  0.00    -0.280 N 
ATOM      8  H   LIG    1        3.740   5.782  -6.957  0.00  0.00    +0.155 HD
ATOM      9  C   LIG    1        3.272   7.582  -6.084  0.00  0.00    +0.248 C 
ATOM     10  O   LIG    1        2.904   8.233  -5.099  0.00  0.00    -0.270 OA
BRANCH   9  11
ATOM     11  C   LIG    1        3.768   8.328  -7.271  0.00  0.00    +0.040 A 
ATOM     12  C   LIG    1        3.569   7.828  -8.561  0.00  0.00    +0.059 A 
ATOM     13  C   LIG    1        3.890   8.591  -9.687  0.00  0.00    +0.131 A 
ATOM     14  C   LIG    1        4.551   9.814  -9.520  0.00  0.00    +0.046 A 
ATOM     15  C   LIG    1        4.771  10.320  -8.236  0.00  0.00    +0.004 A 
ATOM     16  C   LIG    1        4.366   9.588  -7.117  0.00  0.00    +0.013 A 
BRANCH  13  17
ATOM     17  O   LIG    1        3.599   8.217 -10.967  0.00  0.00    -0.406 OA
BRANCH  17  18
ATOM     18  C   LIG    1        2.459   7.382 -11.198  0.00  0.00    +0.575 C 
ATOM     19  F   LIG    1        2.873   6.166 -11.617  0.00  0.00    -0.133 F 
ATOM     20  F   LIG    1        1.698   7.934 -12.166  0.00  0.00    -0.133 F 
ATOM     21  F   LIG    1        1.663   7.206 -10.119  0.00  0.00    -0.133 F 
ENDBRANCH  17  18
ENDBRANCH  13  17
ENDBRANCH   9  11
ENDBRANCH   3   7
BRANCH   1  22
ATOM     22  C   LIG    1        3.399   1.632  -4.331  0.00  0.00    +0.197 C 
ATOM     23  O   LIG    1        2.659   0.744  -3.925  0.00  0.00    -0.287 OA
BRANCH  22  31
ATOM     24  N   LIG    1        6.851   1.422  -5.579  0.00  0.00    -0.321 N 
ATOM     25  C   LIG    1        6.370   0.225  -6.048  0.00  0.00    +0.145 A 
ATOM     26  N   LIG    1        7.063  -0.692  -6.748  0.00  0.00    -0.218 NA
ATOM     27  C   LIG    1        6.301  -1.747  -7.086  0.00  0.00    +0.223 A 
ATOM     28  N   LIG    1        4.999  -1.948  -6.805  0.00  0.00    -0.243 NA
ATOM     29  C   LIG    1        4.352  -1.005  -6.083  0.00  0.00    +0.124 A 
ATOM     30  C   LIG    1        5.034   0.140  -5.672  0.00  0.00    +0.048 A 
ATOM     31  C   LIG    1        4.703   1.323  -4.934  0.00  0.00    +0.051 A 
ATOM     32  C   LIG    1        5.866   2.080  -4.878  0.00  0.00    +0.100 A 
BRANCH  24  34
ATOM     33  C   LIG    1        9.055   1.258  -4.531  0.00  0.00    +0.039 C 
ATOM     34  C   LIG    1        8.226   1.857  -5.662  0.00  0.00    +0.090 C 
ATOM     35  C   LIG    1        8.860   1.742  -7.055  0.00  0.00    +0.190 C 
ATOM     36  O   LIG    1        9.246   3.146  -7.018  0.00  0.00    -0.375 OA
ATOM     37  C   LIG    1        8.415   3.367  -5.850  0.00  0.00    +0.190 C 
ENDBRANCH  24  34
ENDBRANCH  22  31
ENDBRANCH   1  22
TORSDOF 7
