REMARK  Name = pdb/CHEMBL3923976.pdb
REMARK                            x       y       z     vdW  Elec       q    Type
REMARK                         _______ _______ _______ _____ _____    ______ ____
ROOT
ATOM      1  C   LIG    1        3.862   3.956  -1.320  0.00  0.00    +0.131 A 
ATOM      2  C   LIG    1        2.718   4.168  -0.568  0.00  0.00    +0.183 A 
ATOM      3  N   LIG    1        1.903   3.331   0.145  0.00  0.00    -0.211 NA
ATOM      4  C   LIG    1        0.790   3.822   0.663  0.00  0.00    +0.126 A 
ATOM      5  C   LIG    1        0.439   5.286   0.513  0.00  0.00    +0.063 A 
ATOM      6  C   LIG    1        1.283   6.059  -0.165  0.00  0.00    +0.118 A 
ATOM      7  N   LIG    1        2.438   5.527  -0.722  0.00  0.00    -0.220 N 
ATOM      8  N   LIG    1        3.382   6.180  -1.438  0.00  0.00    -0.171 NA
ATOM      9  C   LIG    1        4.268   5.230  -1.746  0.00  0.00    +0.165 A 
ENDROOT
BRANCH   4  10
ATOM     10  N   LIG    1       -0.066   2.975   1.362  0.00  0.00    -0.308 N 
ATOM     11  C   LIG    1       -1.516   3.208   1.492  0.00  0.00    +0.105 C 
ATOM     12  C   LIG    1       -2.088   1.827   1.125  0.00  0.00    +0.029 C 
ATOM     13  C   LIG    1       -1.112   0.871   1.783  0.00  0.00    +0.021 C 
ATOM     14  C   LIG    1        0.232   1.543   1.523  0.00  0.00    +0.107 C 
BRANCH  11  15
ATOM     15  C   LIG    1       -1.880   3.702   2.891  0.00  0.00    -0.024 A 
ATOM     16  C   LIG    1       -0.994   4.486   3.652  0.00  0.00    +0.043 A 
ATOM     17  C   LIG    1       -1.338   4.914   4.932  0.00  0.00    +0.124 A 
ATOM     18  F   LIG    1       -0.467   5.645   5.639  0.00  0.00    -0.205 F 
ATOM     19  C   LIG    1       -2.563   4.583   5.492  0.00  0.00    +0.038 A 
ATOM     20  C   LIG    1       -3.468   3.836   4.749  0.00  0.00    +0.003 A 
ATOM     21  C   LIG    1       -3.138   3.421   3.455  0.00  0.00    +0.005 A 
ENDBRANCH  11  15
ENDBRANCH   4  10
BRANCH   1  23
ATOM     22  C   LIG    1        3.980   1.671  -1.733  0.00  0.00    +0.241 C 
ATOM     23  N   LIG    1        4.600   2.793  -1.532  0.00  0.00    -0.206 NA
BRANCH  22  28
ATOM     24  C   LIG    1       -1.452   0.252  -2.598  0.00  0.00    +0.067 C 
ATOM     25  C   LIG    1       -0.015   0.607  -2.389  0.00  0.00    +0.056 A 
ATOM     26  N   LIG    1        0.393   1.799  -2.885  0.00  0.00    -0.256 NA
ATOM     27  C   LIG    1        1.694   2.117  -2.670  0.00  0.00    +0.144 A 
ATOM     28  C   LIG    1        2.557   1.303  -1.958  0.00  0.00    +0.143 A 
ATOM     29  N   LIG    1        2.177   0.066  -1.511  0.00  0.00    -0.247 NA
ATOM     30  C   LIG    1        0.868  -0.238  -1.718  0.00  0.00    +0.134 A 
ENDBRANCH  22  28
BRANCH  22  31
ATOM     31  O   LIG    1        4.744   0.545  -1.804  0.00  0.00    -0.491 OA
ATOM     32  H   LIG    1        4.179  -0.253  -1.808  0.00  0.00    +0.294 HD
ENDBRANCH  22  31
ENDBRANCH   1  23
TORSDOF 5
