REMARK  Name = pdb/CHEMBL3895805.pdb
REMARK                            x       y       z     vdW  Elec       q    Type
REMARK                         _______ _______ _______ _____ _____    ______ ____
ROOT
ATOM      1  C   LIG    1        2.805   1.835   2.457  0.00  0.00    +0.105 A 
ATOM      2  C   LIG    1        3.440   3.057   2.352  0.00  0.00    +0.145 A 
ATOM      3  N   LIG    1        2.850   4.262   2.566  0.00  0.00    -0.201 NA
ATOM      4  C   LIG    1        1.560   4.237   2.955  0.00  0.00    +0.323 A 
ATOM      5  N   LIG    1        0.814   3.131   3.049  0.00  0.00    -0.201 NA
ATOM      6  C   LIG    1        1.458   1.961   2.773  0.00  0.00    +0.145 A 
ENDROOT
BRANCH   1   8
ATOM      7  C   LIG    1        3.216  -0.476   2.809  0.00  0.00    +0.285 C 
ATOM      8  N   LIG    1        3.478   0.633   2.163  0.00  0.00    -0.196 NA
BRANCH   7   9
ATOM      9  O   LIG    1        2.304  -0.475   3.795  0.00  0.00    -0.481 OA
ATOM     10  H   LIG    1        2.040  -1.370   4.037  0.00  0.00    +0.295 HD
ENDBRANCH   7   9
BRANCH   7  11
ATOM     11  N   LIG    1        3.714  -1.719   2.607  0.00  0.00    -0.269 N 
ATOM     12  H   LIG    1        3.571  -2.429   3.315  0.00  0.00    +0.157 HD
BRANCH  11  13
ATOM     13  C   LIG    1        4.665  -2.154   1.653  0.00  0.00    +0.043 A 
ATOM     14  C   LIG    1        4.568  -3.462   1.089  0.00  0.00    +0.005 A 
ATOM     15  C   LIG    1        5.591  -3.854   0.196  0.00  0.00    +0.011 A 
ATOM     16  C   LIG    1        6.657  -3.013  -0.128  0.00  0.00    +0.013 A 
ATOM     17  C   LIG    1        6.727  -1.725   0.406  0.00  0.00    +0.057 A 
ATOM     18  C   LIG    1        5.718  -1.299   1.272  0.00  0.00    +0.036 A 
BRANCH  14  19
ATOM     19  C   LIG    1        3.456  -4.416   1.378  0.00  0.00    +0.002 A 
ATOM     20  C   LIG    1        3.653  -5.802   1.390  0.00  0.00    +0.119 A 
ATOM     21  N   LIG    1        2.690  -6.735   1.615  0.00  0.00    -0.263 NA
ATOM     22  C   LIG    1        1.449  -6.285   1.859  0.00  0.00    +0.111 A 
ATOM     23  C   LIG    1        1.126  -4.942   1.889  0.00  0.00    +0.020 A 
ATOM     24  C   LIG    1        2.131  -4.012   1.618  0.00  0.00    +0.011 A 
ENDBRANCH  14  19
BRANCH  17  25
ATOM     25  C   LIG    1        7.886  -0.823   0.066  0.00  0.00    +0.417 C 
ATOM     26  F   LIG    1        7.982  -0.576  -1.269  0.00  0.00    -0.166 F 
ATOM     27  F   LIG    1        9.082  -1.365   0.432  0.00  0.00    -0.166 F 
ATOM     28  F   LIG    1        7.834   0.397   0.671  0.00  0.00    -0.166 F 
ENDBRANCH  17  25
ENDBRANCH  11  13
ENDBRANCH   7  11
ENDBRANCH   1   8
BRANCH   4  29
ATOM     29  O   LIG    1        0.918   5.425   3.317  0.00  0.00    -0.424 OA
BRANCH  29  30
ATOM     30  C   LIG    1        1.699   6.452   3.795  0.00  0.00    +0.132 A 
ATOM     31  C   LIG    1        2.844   6.243   4.560  0.00  0.00    +0.047 A 
ATOM     32  C   LIG    1        3.677   7.309   4.900  0.00  0.00    +0.012 A 
ATOM     33  C   LIG    1        3.362   8.629   4.538  0.00  0.00    -0.016 A 
ATOM     34  C   LIG    1        2.132   8.831   3.878  0.00  0.00    +0.012 A 
ATOM     35  C   LIG    1        1.303   7.757   3.517  0.00  0.00    +0.047 A 
BRANCH  33  36
ATOM     36  C   LIG    1        4.297   9.745   4.829  0.00  0.00    +0.001 A 
ATOM     37  C   LIG    1        3.814  11.046   5.084  0.00  0.00    +0.023 A 
ATOM     38  C   LIG    1        4.855  11.933   5.313  0.00  0.00    +0.039 A 
ATOM     39  C   LIG    1        4.723  13.266   5.593  0.00  0.00    +0.115 A 
ATOM     40  N   LIG    1        6.005  13.718   5.738  0.00  0.00    -0.282 N 
ATOM     41  H   LIG    1        6.312  14.662   5.952  0.00  0.00    +0.188 HD
ATOM     42  N   LIG    1        6.955  12.774   5.578  0.00  0.00    -0.154 NA
ATOM     43  C   LIG    1        6.254  11.666   5.316  0.00  0.00    +0.181 A 
ATOM     44  N   LIG    1        6.738  10.423   5.079  0.00  0.00    -0.234 NA
ATOM     45  C   LIG    1        5.718   9.530   4.843  0.00  0.00    +0.121 A 
ENDBRANCH  33  36
ENDBRANCH  29  30
ENDBRANCH   4  29
TORSDOF 9
