REMARK  Name = pdb/CHEMBL3675910.pdb
REMARK                            x       y       z     vdW  Elec       q    Type
REMARK                         _______ _______ _______ _____ _____    ______ ____
ROOT
ATOM      1  C   LIG    1        6.930  -2.256   2.366  0.00  0.00    +0.101 A 
ATOM      2  C   LIG    1        8.188  -2.625   2.804  0.00  0.00    +0.170 A 
ATOM      3  N   LIG    1        9.275  -1.891   3.176  0.00  0.00    -0.212 NA
ATOM      4  C   LIG    1       10.357  -2.508   3.595  0.00  0.00    +0.126 A 
ATOM      5  C   LIG    1       10.428  -4.015   3.650  0.00  0.00    +0.063 A 
ATOM      6  C   LIG    1        9.332  -4.693   3.283  0.00  0.00    +0.118 A 
ATOM      7  N   LIG    1        8.195  -4.017   2.865  0.00  0.00    -0.221 N 
ATOM      8  N   LIG    1        7.006  -4.547   2.488  0.00  0.00    -0.173 NA
ATOM      9  C   LIG    1        6.246  -3.482   2.225  0.00  0.00    +0.150 A 
ENDROOT
BRANCH   1  14
ATOM     10  C   LIG    1        8.228   2.244  -0.489  0.00  0.00    +0.044 C 
ATOM     11  C   LIG    1        8.277   1.605   0.891  0.00  0.00    +0.095 C 
ATOM     12  C   LIG    1        8.326   0.060   0.872  0.00  0.00    +0.144 C 
ATOM     13  N   LIG    1        7.274   0.089   1.892  0.00  0.00    -0.292 N 
ATOM     14  C   LIG    1        6.383  -0.926   2.179  0.00  0.00    +0.252 C 
ATOM     15  O   LIG    1        5.175  -0.720   2.268  0.00  0.00    -0.270 OA
ATOM     16  C   LIG    1        6.901   1.468   1.587  0.00  0.00    +0.144 C 
BRANCH  11  17
ATOM     17  O   LIG    1        9.328   2.247   1.665  0.00  0.00    -0.386 OA
ATOM     18  H   LIG    1        8.979   3.128   1.884  0.00  0.00    +0.210 HD
ENDBRANCH  11  17
ENDBRANCH   1  14
BRANCH   4  19
ATOM     19  N   LIG    1       11.435  -1.723   3.978  0.00  0.00    -0.308 N 
ATOM     20  C   LIG    1       12.466  -2.144   4.933  0.00  0.00    +0.108 C 
ATOM     21  C   LIG    1       12.836  -0.853   5.679  0.00  0.00    +0.029 C 
ATOM     22  C   LIG    1       12.588   0.239   4.653  0.00  0.00    +0.021 C 
ATOM     23  C   LIG    1       11.338  -0.255   3.938  0.00  0.00    +0.107 C 
BRANCH  20  24
ATOM     24  C   LIG    1       13.659  -2.771   4.243  0.00  0.00    +0.011 A 
ATOM     25  C   LIG    1       14.437  -3.701   4.948  0.00  0.00    +0.129 A 
ATOM     26  F   LIG    1       14.099  -4.031   6.202  0.00  0.00    -0.205 F 
ATOM     27  C   LIG    1       15.559  -4.301   4.379  0.00  0.00    +0.041 A 
ATOM     28  C   LIG    1       15.932  -3.968   3.079  0.00  0.00    +0.041 A 
ATOM     29  C   LIG    1       15.176  -3.042   2.370  0.00  0.00    +0.124 A 
ATOM     30  F   LIG    1       15.538  -2.715   1.123  0.00  0.00    -0.205 F 
ATOM     31  C   LIG    1       14.051  -2.446   2.934  0.00  0.00    +0.046 A 
ENDBRANCH  20  24
ENDBRANCH   4  19
TORSDOF 4
