REMARK  Name = pdb/CHEMBL3298268.pdb
REMARK                            x       y       z     vdW  Elec       q    Type
REMARK                         _______ _______ _______ _____ _____    ______ ____
ROOT
ATOM      1  N   LIG    1        3.432   0.329   4.176  0.00  0.00    -0.269 N 
ATOM      2  H   LIG    1        3.236  -0.532   4.693  0.00  0.00    +0.156 HD
ATOM      3  C   LIG    1        3.594   1.565   4.912  0.00  0.00    +0.240 C 
ATOM      4  O   LIG    1        3.794   2.619   4.306  0.00  0.00    -0.273 OA
ENDROOT
BRANCH   1   8
ATOM      5  C   LIG    1        4.141   0.591   0.651  0.00  0.00    +0.071 A 
ATOM      6  N   LIG    1        3.644  -0.650   0.691  0.00  0.00    -0.169 NA
ATOM      7  N   LIG    1        3.153  -0.808   1.947  0.00  0.00    -0.217 N 
ATOM      8  C   LIG    1        3.534   0.249   2.778  0.00  0.00    +0.129 A 
ATOM      9  C   LIG    1        4.112   1.178   1.938  0.00  0.00    +0.069 A 
BRANCH   7  10
ATOM     10  C   LIG    1        2.352  -1.936   2.243  0.00  0.00    +0.085 A 
ATOM     11  C   LIG    1        1.391  -1.915   3.244  0.00  0.00    +0.138 A 
ATOM     12  N   LIG    1        0.594  -2.970   3.536  0.00  0.00    -0.261 NA
ATOM     13  C   LIG    1        0.750  -4.088   2.792  0.00  0.00    +0.111 A 
ATOM     14  C   LIG    1        1.669  -4.200   1.763  0.00  0.00    +0.022 A 
ATOM     15  C   LIG    1        2.472  -3.100   1.475  0.00  0.00    +0.031 A 
ENDBRANCH   7  10
BRANCH   5  17
ATOM     16  C   LIG    1        6.212   0.778  -0.750  0.00  0.00    +0.017 C 
ATOM     17  C   LIG    1        4.726   1.166  -0.635  0.00  0.00    +0.006 C 
ATOM     18  C   LIG    1        3.979   0.634  -1.877  0.00  0.00    +0.017 C 
ATOM     19  C   LIG    1        4.627   2.708  -0.660  0.00  0.00    +0.017 C 
ENDBRANCH   5  17
ENDBRANCH   1   8
BRANCH   3  20
ATOM     20  C   LIG    1        3.384   1.563   6.394  0.00  0.00    +0.241 C 
BRANCH  20  21
ATOM     21  N   LIG    1        3.767   0.314   6.991  0.00  0.00    -0.242 N 
ATOM     22  N   LIG    1        2.885  -0.695   7.011  0.00  0.00    -0.065 NA
ATOM     23  N   LIG    1        3.467  -1.711   7.631  0.00  0.00    -0.129 NA
ATOM     24  C   LIG    1        4.757  -1.352   7.927  0.00  0.00    +0.114 A 
ATOM     25  C   LIG    1        4.973  -0.060   7.498  0.00  0.00    +0.139 A 
BRANCH  24  26
ATOM     26  C   LIG    1        5.703  -2.226   8.580  0.00  0.00    +0.022 A 
ATOM     27  C   LIG    1        7.069  -2.157   8.339  0.00  0.00    +0.123 A 
ATOM     28  N   LIG    1        7.990  -2.973   8.909  0.00  0.00    -0.237 NA
ATOM     29  C   LIG    1        7.539  -3.918   9.775  0.00  0.00    +0.139 A 
ATOM     30  C   LIG    1        6.188  -4.058  10.082  0.00  0.00    +0.047 A 
ATOM     31  C   LIG    1        5.266  -3.204   9.473  0.00  0.00    +0.015 A 
BRANCH  29  32
ATOM     32  N   LIG    1        8.499  -4.782  10.369  0.00  0.00    -0.290 N 
ATOM     33  C   LIG    1        9.857  -4.747  10.140  0.00  0.00    +0.205 A 
ATOM     34  N   LIG    1       10.505  -5.666  10.823  0.00  0.00    -0.244 NA
ATOM     35  C   LIG    1        9.541  -6.331  11.526  0.00  0.00    +0.130 A 
ATOM     36  C   LIG    1        8.296  -5.808  11.266  0.00  0.00    +0.114 A 
ENDBRANCH  29  32
ENDBRANCH  24  26
ENDBRANCH  20  21
ENDBRANCH   3  20
TORSDOF 7
