REMARK  Name = pdb/CHEMBL3916359.pdb
REMARK                            x       y       z     vdW  Elec       q    Type
REMARK                         _______ _______ _______ _____ _____    ______ ____
ROOT
ATOM      1  C   LIG    1       11.449  -3.212   1.159  0.00  0.00    +0.147 A 
ATOM      2  N   LIG    1       12.320  -2.153   1.005  0.00  0.00    -0.197 N 
ATOM      3  N   LIG    1       11.936  -0.843   1.037  0.00  0.00    -0.148 NA
ATOM      4  C   LIG    1       12.913   0.016   0.865  0.00  0.00    +0.143 A 
ATOM      5  C   LIG    1       14.331  -0.441   0.622  0.00  0.00    +0.049 A 
ATOM      6  C   LIG    1       14.622  -1.748   0.627  0.00  0.00    +0.051 A 
ATOM      7  C   LIG    1       13.580  -2.676   0.818  0.00  0.00    +0.156 A 
ATOM      8  N   LIG    1       13.559  -3.992   0.821  0.00  0.00    -0.233 NA
ATOM      9  C   LIG    1       12.233  -4.337   1.017  0.00  0.00    +0.157 A 
ENDROOT
BRANCH   4  10
ATOM     10  N   LIG    1       12.620   1.374   0.903  0.00  0.00    -0.307 N 
ATOM     11  C   LIG    1       11.244   1.876   1.124  0.00  0.00    +0.108 C 
ATOM     12  C   LIG    1       11.412   3.151   1.973  0.00  0.00    +0.029 C 
ATOM     13  C   LIG    1       12.844   3.094   2.475  0.00  0.00    +0.021 C 
ATOM     14  C   LIG    1       13.575   2.391   1.346  0.00  0.00    +0.107 C 
BRANCH  11  15
ATOM     15  C   LIG    1       10.529   2.193  -0.174  0.00  0.00    +0.011 A 
ATOM     16  C   LIG    1        9.127   2.212  -0.197  0.00  0.00    +0.129 A 
ATOM     17  F   LIG    1        8.442   1.884   0.908  0.00  0.00    -0.205 F 
ATOM     18  C   LIG    1        8.415   2.581  -1.339  0.00  0.00    +0.041 A 
ATOM     19  C   LIG    1        9.104   2.946  -2.493  0.00  0.00    +0.041 A 
ATOM     20  C   LIG    1       10.494   2.933  -2.487  0.00  0.00    +0.124 A 
ATOM     21  F   LIG    1       11.161   3.296  -3.589  0.00  0.00    -0.205 F 
ATOM     22  C   LIG    1       11.206   2.564  -1.348  0.00  0.00    +0.046 A 
ENDBRANCH  11  15
ENDBRANCH   4  10
BRANCH   1  24
ATOM     23  C   LIG    1        9.126  -4.075   1.504  0.00  0.00    +0.249 C 
ATOM     24  N   LIG    1       10.080  -3.025   1.383  0.00  0.00    -0.265 N 
ATOM     25  H   LIG    1        9.802  -2.050   1.395  0.00  0.00    +0.157 HD
ATOM     26  O   LIG    1        9.462  -5.239   1.423  0.00  0.00    -0.270 OA
BRANCH  23  30
ATOM     27  C   LIG    1        4.961  -3.050   1.903  0.00  0.00    +0.048 A 
ATOM     28  C   LIG    1        5.363  -4.194   1.217  0.00  0.00    +0.025 A 
ATOM     29  C   LIG    1        6.720  -4.508   1.104  0.00  0.00    +0.015 A 
ATOM     30  C   LIG    1        7.695  -3.664   1.654  0.00  0.00    +0.037 A 
ATOM     31  C   LIG    1        7.290  -2.501   2.327  0.00  0.00    +0.015 A 
ATOM     32  C   LIG    1        5.921  -2.204   2.461  0.00  0.00    +0.025 A 
BRANCH  27  33
ATOM     33  N   LIG    1        3.570  -2.844   2.147  0.00  0.00    -0.221 N 
ATOM     34  H   LIG    1        3.240  -1.876   2.144  0.00  0.00    +0.173 HD
BRANCH  33  36
ATOM     35  C   LIG    1        2.399  -5.187   2.795  0.00  0.00    +0.218 C 
ATOM     36  S   LIG    1        2.922  -3.640   3.505  0.00  0.00    +0.040 S 
ATOM     37  O   LIG    1        3.977  -3.884   4.463  0.00  0.00    -0.155 OA
ATOM     38  O   LIG    1        1.736  -2.893   3.866  0.00  0.00    -0.155 OA
ENDBRANCH  33  36
ENDBRANCH  27  33
ENDBRANCH  23  30
ENDBRANCH   1  24
TORSDOF 6
