REMARK  Name = pdb/CHEMBL2005886.pdb
REMARK                            x       y       z     vdW  Elec       q    Type
REMARK                         _______ _______ _______ _____ _____    ______ ____
ROOT
ATOM      1  C   LIG    1        3.833   4.742   0.555  0.00  0.00    +0.102 A 
ATOM      2  C   LIG    1        4.033   5.590   1.797  0.00  0.00    +0.261 A 
ATOM      3  O   LIG    1        4.314   5.116   2.890  0.00  0.00    -0.267 OA
ATOM      4  N   LIG    1        3.910   6.936   1.641  0.00  0.00    -0.328 N 
ATOM      5  H   LIG    1        4.031   7.500   2.473  0.00  0.00    +0.168 HD
ATOM      6  C   LIG    1        3.660   7.548   0.439  0.00  0.00    +0.088 A 
ATOM      7  C   LIG    1        3.503   6.813  -0.662  0.00  0.00    +0.041 A 
ATOM      8  C   LIG    1        3.606   5.348  -0.637  0.00  0.00    +0.045 A 
ENDROOT
BRANCH   1  13
ATOM      9  C   LIG    1        2.801  -0.565  -0.964  0.00  0.00    +0.046 C 
ATOM     10  C   LIG    1        3.674  -0.162   0.183  0.00  0.00    -0.021 A 
ATOM     11  C   LIG    1        3.896   1.174   0.535  0.00  0.00    +0.092 A 
ATOM     12  N   LIG    1        3.406   2.335  -0.028  0.00  0.00    -0.227 NA
ATOM     13  C   LIG    1        3.932   3.326   0.678  0.00  0.00    +0.146 A 
ATOM     14  N   LIG    1        4.735   2.814   1.673  0.00  0.00    -0.338 N 
ATOM     15  H   LIG    1        5.232   3.369   2.361  0.00  0.00    +0.167 HD
ATOM     16  C   LIG    1        4.749   1.453   1.588  0.00  0.00    +0.068 A 
ATOM     17  C   LIG    1        5.438   0.486   2.325  0.00  0.00    +0.051 A 
ATOM     18  C   LIG    1        5.303  -0.861   1.953  0.00  0.00    +0.032 A 
ATOM     19  C   LIG    1        4.391  -1.143   0.909  0.00  0.00    +0.028 A 
BRANCH  18  20
ATOM     20  N   LIG    1        6.019  -1.891   2.617  0.00  0.00    -0.325 N 
ATOM     21  C   LIG    1        6.145  -3.154   1.848  0.00  0.00    +0.133 C 
ATOM     22  C   LIG    1        6.861  -4.245   2.646  0.00  0.00    +0.178 C 
ATOM     23  O   LIG    1        8.138  -3.808   3.120  0.00  0.00    -0.377 OA
ATOM     24  C   LIG    1        7.963  -2.675   3.978  0.00  0.00    +0.178 C 
ATOM     25  C   LIG    1        7.315  -1.496   3.235  0.00  0.00    +0.133 C 
ENDBRANCH  18  20
ENDBRANCH   1  13
BRANCH   8  26
ATOM     26  N   LIG    1        3.369   4.725  -1.878  0.00  0.00    -0.340 N 
ATOM     27  H   LIG    1        2.884   3.839  -1.674  0.00  0.00    +0.146 HD
BRANCH  26  28
ATOM     28  C   LIG    1        4.519   4.359  -2.748  0.00  0.00    +0.137 C 
BRANCH  28  29
ATOM     29  C   LIG    1        4.143   4.391  -4.251  0.00  0.00    +0.161 C 
BRANCH  29  30
ATOM     30  C   LIG    1        3.988   5.802  -4.787  0.00  0.00    -0.016 A 
ATOM     31  C   LIG    1        2.779   6.509  -4.701  0.00  0.00    +0.026 A 
ATOM     32  C   LIG    1        2.691   7.816  -5.181  0.00  0.00    +0.041 A 
ATOM     33 CL   LIG    1        1.200   8.669  -5.069  0.00  0.00    -0.084 Cl
ATOM     34  C   LIG    1        3.801   8.441  -5.744  0.00  0.00    +0.020 A 
ATOM     35  C   LIG    1        5.011   7.756  -5.826  0.00  0.00    +0.002 A 
ATOM     36  C   LIG    1        5.104   6.447  -5.350  0.00  0.00    +0.006 A 
ENDBRANCH  29  30
BRANCH  29  37
ATOM     37  O   LIG    1        2.980   3.605  -4.521  0.00  0.00    -0.386 OA
ATOM     38  H   LIG    1        2.296   3.916  -3.902  0.00  0.00    +0.210 HD
ENDBRANCH  29  37
ENDBRANCH  28  29
ENDBRANCH  26  28
ENDBRANCH   8  26
TORSDOF 7
