REMARK  Name = pdb/CHEMBL3894154.pdb
REMARK                            x       y       z     vdW  Elec       q    Type
REMARK                         _______ _______ _______ _____ _____    ______ ____
ROOT
ATOM      1  C   LIG    1        3.611  -2.700   0.809  0.00  0.00    +0.149 A 
ATOM      2  N   LIG    1        4.095  -3.446   1.814  0.00  0.00    -0.160 NA
ATOM      3  N   LIG    1        4.387  -2.567   2.810  0.00  0.00    -0.218 N 
ATOM      4  C   LIG    1        4.199  -1.238   2.387  0.00  0.00    +0.129 A 
ATOM      5  C   LIG    1        3.624  -1.330   1.148  0.00  0.00    +0.078 A 
ENDROOT
BRANCH   3   6
ATOM      6  C   LIG    1        4.865  -3.057   4.060  0.00  0.00    +0.067 A 
ATOM      7  C   LIG    1        4.620  -2.360   5.249  0.00  0.00    +0.028 A 
ATOM      8  C   LIG    1        5.059  -2.880   6.471  0.00  0.00    +0.002 A 
ATOM      9  C   LIG    1        5.752  -4.087   6.517  0.00  0.00    +0.000 A 
ATOM     10  C   LIG    1        6.004  -4.787   5.339  0.00  0.00    +0.002 A 
ATOM     11  C   LIG    1        5.551  -4.284   4.114  0.00  0.00    +0.028 A 
ENDBRANCH   3   6
BRANCH   4  12
ATOM     12  N   LIG    1        4.559  -0.046   3.028  0.00  0.00    -0.266 N 
ATOM     13  H   LIG    1        4.803  -0.074   4.006  0.00  0.00    +0.157 HD
ATOM     14  C   LIG    1        4.780   1.188   2.295  0.00  0.00    +0.251 C 
ATOM     15  O   LIG    1        4.677   1.236   1.089  0.00  0.00    -0.270 OA
BRANCH  14  16
ATOM     16  C   LIG    1        5.095   2.409   3.082  0.00  0.00    +0.056 A 
ATOM     17  C   LIG    1        5.770   2.392   4.296  0.00  0.00    +0.054 A 
ATOM     18 CL   LIG    1        6.462   0.967   4.981  0.00  0.00    -0.083 Cl
ATOM     19  C   LIG    1        5.931   3.577   5.012  0.00  0.00    +0.041 A 
ATOM     20  C   LIG    1        5.415   4.792   4.535  0.00  0.00    +0.052 A 
ATOM     21 CL   LIG    1        5.687   6.145   5.581  0.00  0.00    -0.083 Cl
ATOM     22  C   LIG    1        4.764   4.867   3.286  0.00  0.00    +0.019 A 
ATOM     23  C   LIG    1        4.655   3.648   2.564  0.00  0.00    +0.026 A 
BRANCH  22  24
ATOM     24  C   LIG    1        4.219   6.107   2.669  0.00  0.00    +0.072 A 
ATOM     25  N   LIG    1        4.282   6.136   1.311  0.00  0.00    -0.255 NA
ATOM     26  C   LIG    1        3.848   7.247   0.669  0.00  0.00    +0.111 A 
ATOM     27  C   LIG    1        3.355   8.365   1.314  0.00  0.00    +0.020 A 
ATOM     28  C   LIG    1        3.257   8.321   2.695  0.00  0.00    +0.004 A 
ATOM     29  C   LIG    1        3.660   7.172   3.375  0.00  0.00    +0.028 A 
ENDBRANCH  22  24
ENDBRANCH  14  16
ENDBRANCH   4  12
BRANCH   1  30
ATOM     30  C   LIG    1        3.203  -3.243  -0.484  0.00  0.00    +0.236 C 
ATOM     31  N   LIG    1        2.674  -4.404  -0.587  0.00  0.00    -0.243 NA
BRANCH  30  32
ATOM     32  O   LIG    1        3.443  -2.389  -1.501  0.00  0.00    -0.491 OA
ATOM     33  H   LIG    1        2.971  -2.673  -2.307  0.00  0.00    +0.294 HD
ENDBRANCH  30  32
BRANCH  31  34
ATOM     34  C   LIG    1        2.352  -5.028  -1.872  0.00  0.00    +0.200 C 
BRANCH  34  35
ATOM     35  C   LIG    1        1.335  -4.307  -2.737  0.00  0.00    +0.066 A 
ATOM     36  N   LIG    1        1.642  -3.042  -3.121  0.00  0.00    -0.238 NA
ATOM     37  C   LIG    1        0.706  -2.373  -3.816  0.00  0.00    +0.221 A 
ATOM     38  N   LIG    1       -0.474  -2.863  -4.204  0.00  0.00    -0.244 NA
ATOM     39  C   LIG    1       -0.718  -4.137  -3.849  0.00  0.00    +0.114 A 
ATOM     40  C   LIG    1        0.153  -4.911  -3.112  0.00  0.00    +0.045 A 
ENDBRANCH  34  35
ENDBRANCH  31  34
ENDBRANCH   1  30
TORSDOF 8
