REMARK  Name = pdb/CHEMBL3673462.pdb
REMARK                            x       y       z     vdW  Elec       q    Type
REMARK                         _______ _______ _______ _____ _____    ______ ____
ROOT
ATOM      1  N   LIG    1       10.930   6.544   6.182  0.00  0.00    -0.311 N 
ATOM      2  C   LIG    1       12.132   6.337   5.563  0.00  0.00    +0.161 A 
ATOM      3  N   LIG    1       12.606   6.939   4.466  0.00  0.00    -0.235 NA
ATOM      4  C   LIG    1       13.838   6.469   4.117  0.00  0.00    +0.121 A 
ATOM      5  C   LIG    1       14.574   5.472   4.776  0.00  0.00    +0.005 A 
ATOM      6  C   LIG    1       14.007   4.893   5.918  0.00  0.00    +0.041 A 
ATOM      7  C   LIG    1       12.748   5.345   6.327  0.00  0.00    +0.108 A 
ATOM      8  N   LIG    1       11.961   4.980   7.387  0.00  0.00    -0.234 NA
ATOM      9  C   LIG    1       10.873   5.720   7.273  0.00  0.00    +0.201 A 
ENDROOT
BRANCH   5  10
ATOM     10  C   LIG    1       15.887   5.056   4.306  0.00  0.00    +0.021 A 
ATOM     11  C   LIG    1       16.561   5.583   3.226  0.00  0.00    +0.117 A 
ATOM     12  N   LIG    1       17.776   4.953   3.169  0.00  0.00    -0.268 N 
ATOM     13  N   LIG    1       17.915   4.012   4.117  0.00  0.00    -0.179 NA
ATOM     14  C   LIG    1       16.777   4.077   4.808  0.00  0.00    +0.143 A 
BRANCH  12  15
ATOM     15  C   LIG    1       18.849   5.245   2.220  0.00  0.00    +0.110 C 
ATOM     16  C   LIG    1       19.644   4.004   1.796  0.00  0.00    +0.042 C 
ATOM     17  C   LIG    1       20.676   3.591   2.843  0.00  0.00    +0.083 C 
ATOM     18  N   LIG    1       21.561   4.707   3.182  0.00  0.00    -0.316 NA
ATOM     19  H   LIG    1       22.227   4.385   3.886  0.00  0.00    +0.122 HD
ATOM     20  C   LIG    1       20.804   5.830   3.736  0.00  0.00    +0.083 C 
ATOM     21  C   LIG    1       19.777   6.352   2.736  0.00  0.00    +0.042 C 
ENDBRANCH  12  15
ENDBRANCH   5  10
BRANCH   1  22
ATOM     22  C   LIG    1        9.902   7.470   5.749  0.00  0.00    +0.160 C 
BRANCH  22  26
ATOM     23  C   LIG    1        6.365   5.259   4.578  0.00  0.00    +0.162 A 
ATOM     24  C   LIG    1        7.388   5.531   3.642  0.00  0.00    +0.162 A 
ATOM     25  C   LIG    1        8.507   6.276   4.042  0.00  0.00    +0.054 A 
ATOM     26  C   LIG    1        8.647   6.738   5.351  0.00  0.00    -0.024 A 
ATOM     27  C   LIG    1        7.641   6.459   6.271  0.00  0.00    +0.009 A 
ATOM     28  C   LIG    1        6.519   5.726   5.890  0.00  0.00    +0.050 A 
BRANCH  24  29
ATOM     29  O   LIG    1        7.270   5.068   2.348  0.00  0.00    -0.491 OA
ATOM     30  C   LIG    1        8.518   4.873   1.671  0.00  0.00    +0.277 C 
ENDBRANCH  24  29
BRANCH  23  31
ATOM     31  O   LIG    1        5.270   4.544   4.160  0.00  0.00    -0.484 OA
BRANCH  31  32
ATOM     32  C   LIG    1        4.274   4.178   5.132  0.00  0.00    +0.266 C 
BRANCH  32  36
ATOM     33  C   LIG    1        0.458   3.679   3.346  0.00  0.00    +0.214 A 
ATOM     34  N   LIG    1        1.500   4.022   2.561  0.00  0.00    -0.221 NA
ATOM     35  C   LIG    1        2.700   4.172   3.158  0.00  0.00    +0.121 A 
ATOM     36  C   LIG    1        2.918   3.987   4.514  0.00  0.00    +0.008 A 
ATOM     37  C   LIG    1        1.808   3.651   5.304  0.00  0.00    +0.013 A 
ATOM     38  C   LIG    1        0.559   3.482   4.712  0.00  0.00    +0.067 A 
BRANCH  33  40
ATOM     39  C   LIG    1       -0.886   4.201   1.535  0.00  0.00    +0.279 C 
ATOM     40  O   LIG    1       -0.777   3.482   2.763  0.00  0.00    -0.480 OA
ENDBRANCH  33  40
ENDBRANCH  32  36
ENDBRANCH  31  32
ENDBRANCH  23  31
ENDBRANCH  22  26
ENDBRANCH   1  22
TORSDOF 9
