REMARK  Name = pdb/CHEMBL3894615.pdb
REMARK                            x       y       z     vdW  Elec       q    Type
REMARK                         _______ _______ _______ _____ _____    ______ ____
ROOT
ATOM      1  C   LIG    1        2.950  -4.121  -1.031  0.00  0.00    +0.126 A 
ATOM      2  N   LIG    1        2.215  -3.126  -1.487  0.00  0.00    -0.211 NA
ATOM      3  C   LIG    1        1.116  -3.432  -2.251  0.00  0.00    +0.179 A 
ATOM      4  C   LIG    1        0.111  -2.653  -2.792  0.00  0.00    +0.098 A 
ATOM      5  C   LIG    1       -0.694  -3.557  -3.516  0.00  0.00    +0.160 A 
ATOM      6  N   LIG    1       -0.276  -4.821  -3.418  0.00  0.00    -0.171 NA
ATOM      7  N   LIG    1        0.802  -4.746  -2.603  0.00  0.00    -0.220 N 
ATOM      8  C   LIG    1        1.541  -5.801  -2.098  0.00  0.00    +0.118 A 
ATOM      9  C   LIG    1        2.584  -5.566  -1.297  0.00  0.00    +0.063 A 
ENDROOT
BRANCH   1  11
ATOM     10  C   LIG    1        5.024  -4.798   0.270  0.00  0.00    +0.108 C 
ATOM     11  N   LIG    1        4.086  -3.824  -0.293  0.00  0.00    -0.308 N 
ATOM     12  C   LIG    1        4.595  -2.458  -0.147  0.00  0.00    +0.107 C 
ATOM     13  C   LIG    1        5.880  -2.596   0.668  0.00  0.00    +0.021 C 
ATOM     14  C   LIG    1        6.338  -4.012   0.364  0.00  0.00    +0.029 C 
BRANCH  10  18
ATOM     15  F   LIG    1        2.382  -4.457   4.415  0.00  0.00    -0.205 F 
ATOM     16  C   LIG    1        3.224  -5.157   3.644  0.00  0.00    +0.124 A 
ATOM     17  C   LIG    1        3.654  -4.615   2.436  0.00  0.00    +0.046 A 
ATOM     18  C   LIG    1        4.534  -5.330   1.604  0.00  0.00    +0.011 A 
ATOM     19  C   LIG    1        4.956  -6.593   2.039  0.00  0.00    +0.129 A 
ATOM     20  F   LIG    1        5.786  -7.315   1.273  0.00  0.00    -0.205 F 
ATOM     21  C   LIG    1        4.523  -7.136   3.250  0.00  0.00    +0.041 A 
ATOM     22  C   LIG    1        3.650  -6.411   4.059  0.00  0.00    +0.041 A 
ENDBRANCH  10  18
ENDBRANCH   1  11
BRANCH   4  23
ATOM     23  N   LIG    1       -0.004  -1.283  -2.602  0.00  0.00    -0.276 N 
ATOM     24  H   LIG    1        0.702  -0.840  -2.021  0.00  0.00    +0.155 HD
ATOM     25  C   LIG    1       -1.047  -0.526  -3.105  0.00  0.00    +0.267 C 
ATOM     26  O   LIG    1       -1.974  -0.945  -3.783  0.00  0.00    -0.268 OA
BRANCH  25  27
ATOM     27  C   LIG    1       -1.017   0.925  -2.736  0.00  0.00    +0.127 A 
ATOM     28  N   LIG    1        0.193   1.485  -2.486  0.00  0.00    -0.231 NA
ATOM     29  C   LIG    1        0.177   2.814  -2.245  0.00  0.00    +0.130 A 
ATOM     30 CL   LIG    1        1.725   3.519  -2.019  0.00  0.00    -0.062 Cl
ATOM     31  C   LIG    1       -0.965   3.601  -2.188  0.00  0.00    +0.040 A 
ATOM     32  C   LIG    1       -2.193   2.987  -2.406  0.00  0.00    +0.005 A 
ATOM     33  C   LIG    1       -2.222   1.628  -2.699  0.00  0.00    +0.033 A 
ENDBRANCH  25  27
ENDBRANCH   4  23
TORSDOF 4
