REMARK  Name = pdb/CHEMBL3935148.pdb
REMARK                            x       y       z     vdW  Elec       q    Type
REMARK                         _______ _______ _______ _____ _____    ______ ____
ROOT
ATOM      1  C   LIG    1        2.014  -1.949  -6.145  0.00  0.00    +0.149 A 
ATOM      2  N   LIG    1        2.078  -1.285  -7.310  0.00  0.00    -0.160 NA
ATOM      3  N   LIG    1        2.068  -2.244  -8.272  0.00  0.00    -0.218 N 
ATOM      4  C   LIG    1        2.198  -3.526  -7.719  0.00  0.00    +0.129 A 
ATOM      5  C   LIG    1        2.077  -3.345  -6.361  0.00  0.00    +0.078 A 
ENDROOT
BRANCH   3   6
ATOM      6  C   LIG    1        1.963  -1.864  -9.644  0.00  0.00    +0.067 A 
ATOM      7  C   LIG    1        2.395  -0.587 -10.041  0.00  0.00    +0.028 A 
ATOM      8  C   LIG    1        2.310  -0.196 -11.381  0.00  0.00    +0.002 A 
ATOM      9  C   LIG    1        1.789  -1.069 -12.333  0.00  0.00    +0.000 A 
ATOM     10  C   LIG    1        1.326  -2.324 -11.941  0.00  0.00    +0.002 A 
ATOM     11  C   LIG    1        1.394  -2.716 -10.598  0.00  0.00    +0.028 A 
ENDBRANCH   3   6
BRANCH   4  12
ATOM     12  N   LIG    1        2.469  -4.735  -8.374  0.00  0.00    -0.266 N 
ATOM     13  H   LIG    1        2.606  -4.685  -9.383  0.00  0.00    +0.157 HD
ATOM     14  C   LIG    1        2.653  -6.000  -7.708  0.00  0.00    +0.251 C 
ATOM     15  O   LIG    1        2.591  -6.074  -6.483  0.00  0.00    -0.270 OA
BRANCH  14  16
ATOM     16  C   LIG    1        2.923  -7.226  -8.521  0.00  0.00    +0.056 A 
ATOM     17  C   LIG    1        2.974  -7.280  -9.916  0.00  0.00    +0.054 A 
ATOM     18 CL   LIG    1        2.810  -5.916 -10.954  0.00  0.00    -0.083 Cl
ATOM     19  C   LIG    1        3.185  -8.501 -10.557  0.00  0.00    +0.041 A 
ATOM     20  C   LIG    1        3.361  -9.691  -9.838  0.00  0.00    +0.052 A 
ATOM     21 CL   LIG    1        3.706 -11.074 -10.818  0.00  0.00    -0.083 Cl
ATOM     22  C   LIG    1        3.303  -9.700  -8.433  0.00  0.00    +0.019 A 
ATOM     23  C   LIG    1        3.095  -8.438  -7.811  0.00  0.00    +0.026 A 
BRANCH  22  24
ATOM     24  C   LIG    1        3.423 -10.905  -7.564  0.00  0.00    +0.072 A 
ATOM     25  N   LIG    1        3.905 -10.660  -6.316  0.00  0.00    -0.255 NA
ATOM     26  C   LIG    1        3.959 -11.685  -5.432  0.00  0.00    +0.111 A 
ATOM     27  C   LIG    1        3.559 -12.975  -5.723  0.00  0.00    +0.020 A 
ATOM     28  C   LIG    1        3.080 -13.228  -6.997  0.00  0.00    +0.004 A 
ATOM     29  C   LIG    1        2.998 -12.185  -7.919  0.00  0.00    +0.028 A 
ENDBRANCH  22  24
ENDBRANCH  14  16
ENDBRANCH   4  12
BRANCH   1  31
ATOM     30  N   LIG    1        1.937  -2.025  -3.780  0.00  0.00    -0.246 NA
ATOM     31  C   LIG    1        1.931  -1.298  -4.835  0.00  0.00    +0.236 C 
BRANCH  30  35
ATOM     32  C   LIG    1        0.980  -2.060   0.348  0.00  0.00    +0.115 C 
ATOM     33  C   LIG    1        0.240  -1.051  -0.528  0.00  0.00    +0.033 C 
ATOM     34  C   LIG    1        0.396  -1.380  -2.009  0.00  0.00    +0.029 C 
ATOM     35  C   LIG    1        1.868  -1.498  -2.424  0.00  0.00    +0.109 C 
ATOM     36  C   LIG    1        2.624  -2.479  -1.513  0.00  0.00    +0.029 C 
ATOM     37  C   LIG    1        2.455  -2.139  -0.035  0.00  0.00    +0.033 C 
BRANCH  32  38
ATOM     38  O   LIG    1        0.855  -1.692   1.715  0.00  0.00    -0.392 OA
ATOM     39  H   LIG    1        1.273  -0.824   1.842  0.00  0.00    +0.210 HD
ENDBRANCH  32  38
ENDBRANCH  30  35
BRANCH  31  40
ATOM     40  O   LIG    1        1.848   0.046  -4.847  0.00  0.00    -0.491 OA
ATOM     41  H   LIG    1        1.766   0.409  -3.959  0.00  0.00    +0.294 HD
ENDBRANCH  31  40
ENDBRANCH   1  31
TORSDOF 8
