REMARK  Name = pdb/CHEMBL3933210.pdb
REMARK                            x       y       z     vdW  Elec       q    Type
REMARK                         _______ _______ _______ _____ _____    ______ ____
ROOT
ATOM      1  C   LIG    1        5.346  -0.311  -4.326  0.00  0.00    +0.149 A 
ATOM      2  N   LIG    1        6.659  -0.098  -4.501  0.00  0.00    -0.160 NA
ATOM      3  N   LIG    1        6.810   1.251  -4.593  0.00  0.00    -0.218 N 
ATOM      4  C   LIG    1        5.587   1.919  -4.473  0.00  0.00    +0.129 A 
ATOM      5  C   LIG    1        4.640   0.912  -4.428  0.00  0.00    +0.078 A 
ENDROOT
BRANCH   3   6
ATOM      6  C   LIG    1        8.117   1.787  -4.815  0.00  0.00    +0.067 A 
ATOM      7  C   LIG    1        8.480   3.080  -4.421  0.00  0.00    +0.028 A 
ATOM      8  C   LIG    1        9.755   3.574  -4.725  0.00  0.00    +0.002 A 
ATOM      9  C   LIG    1       10.678   2.780  -5.405  0.00  0.00    +0.000 A 
ATOM     10  C   LIG    1       10.340   1.478  -5.761  0.00  0.00    +0.002 A 
ATOM     11  C   LIG    1        9.071   0.978  -5.459  0.00  0.00    +0.028 A 
ENDBRANCH   3   6
BRANCH   4  12
ATOM     12  N   LIG    1        5.319   3.300  -4.496  0.00  0.00    -0.266 N 
ATOM     13  H   LIG    1        6.070   3.927  -4.730  0.00  0.00    +0.157 HD
ATOM     14  C   LIG    1        4.044   3.879  -4.155  0.00  0.00    +0.251 C 
ATOM     15  O   LIG    1        3.092   3.150  -3.835  0.00  0.00    -0.270 OA
BRANCH  14  16
ATOM     16  C   LIG    1        3.865   5.343  -4.097  0.00  0.00    +0.056 A 
ATOM     17  C   LIG    1        4.650   6.238  -4.824  0.00  0.00    +0.054 A 
ATOM     18 CL   LIG    1        5.843   5.746  -5.966  0.00  0.00    -0.083 Cl
ATOM     19  C   LIG    1        4.458   7.610  -4.648  0.00  0.00    +0.041 A 
ATOM     20  C   LIG    1        3.454   8.103  -3.795  0.00  0.00    +0.052 A 
ATOM     21 CL   LIG    1        3.469   9.817  -3.537  0.00  0.00    -0.083 Cl
ATOM     22  C   LIG    1        2.551   7.236  -3.142  0.00  0.00    +0.022 A 
ATOM     23  C   LIG    1        2.829   5.854  -3.274  0.00  0.00    +0.026 A 
BRANCH  22  24
ATOM     24  C   LIG    1        1.319   7.707  -2.439  0.00  0.00    +0.107 A 
ATOM     25  C   LIG    1        0.722   7.045  -1.362  0.00  0.00    +0.149 A 
ATOM     26  F   LIG    1        1.300   5.977  -0.792  0.00  0.00    -0.203 F 
ATOM     27  C   LIG    1       -0.502   7.486  -0.854  0.00  0.00    +0.042 A 
ATOM     28  C   LIG    1       -1.095   8.619  -1.396  0.00  0.00    +0.023 A 
ATOM     29  C   LIG    1       -0.441   9.249  -2.437  0.00  0.00    +0.111 A 
ATOM     30  N   LIG    1        0.716   8.799  -2.984  0.00  0.00    -0.252 NA
ENDBRANCH  22  24
ENDBRANCH  14  16
ENDBRANCH   4  12
BRANCH   1  32
ATOM     31  N   LIG    1        5.481  -2.688  -3.907  0.00  0.00    -0.240 NA
ATOM     32  C   LIG    1        4.752  -1.633  -4.056  0.00  0.00    +0.236 C 
BRANCH  31  33
ATOM     33  C   LIG    1        4.995  -4.036  -3.722  0.00  0.00    +0.089 C 
ATOM     34  C   LIG    1        6.084  -5.086  -3.887  0.00  0.00    +0.035 C 
ATOM     35  C   LIG    1        5.588  -4.754  -2.520  0.00  0.00    +0.035 C 
BRANCH  33  36
ATOM     36  C   LIG    1        3.606  -4.448  -4.170  0.00  0.00    +0.186 C 
BRANCH  36  37
ATOM     37  O   LIG    1        2.671  -4.098  -3.146  0.00  0.00    -0.393 OA
ATOM     38  H   LIG    1        1.995  -4.805  -3.146  0.00  0.00    +0.209 HD
ENDBRANCH  36  37
ENDBRANCH  33  36
ENDBRANCH  31  33
BRANCH  32  39
ATOM     39  O   LIG    1        3.407  -1.596  -3.914  0.00  0.00    -0.491 OA
ATOM     40  H   LIG    1        3.084  -2.408  -3.477  0.00  0.00    +0.294 HD
ENDBRANCH  32  39
ENDBRANCH   1  32
TORSDOF 9
