REMARK  Name = pdb/CHEMBL3927344.pdb
REMARK                            x       y       z     vdW  Elec       q    Type
REMARK                         _______ _______ _______ _____ _____    ______ ____
ROOT
ATOM      1  C   LIG    1        2.451  -1.475  -0.814  0.00  0.00    +0.149 A 
ATOM      2  N   LIG    1        2.132  -2.746  -0.546  0.00  0.00    -0.160 NA
ATOM      3  N   LIG    1        3.305  -3.426  -0.522  0.00  0.00    -0.218 N 
ATOM      4  C   LIG    1        4.389  -2.588  -0.839  0.00  0.00    +0.129 A 
ATOM      5  C   LIG    1        3.824  -1.360  -1.108  0.00  0.00    +0.078 A 
ENDROOT
BRANCH   3   6
ATOM      6  C   LIG    1        3.268  -4.814  -0.194  0.00  0.00    +0.067 A 
ATOM      7  C   LIG    1        4.359  -5.484   0.368  0.00  0.00    +0.028 A 
ATOM      8  C   LIG    1        4.268  -6.850   0.660  0.00  0.00    +0.002 A 
ATOM      9  C   LIG    1        3.089  -7.552   0.410  0.00  0.00    +0.000 A 
ATOM     10  C   LIG    1        1.988  -6.888  -0.120  0.00  0.00    +0.002 A 
ATOM     11  C   LIG    1        2.071  -5.525  -0.411  0.00  0.00    +0.028 A 
ENDBRANCH   3   6
BRANCH   4  12
ATOM     12  N   LIG    1        5.757  -2.896  -0.900  0.00  0.00    -0.266 N 
ATOM     13  H   LIG    1        6.040  -3.839  -0.689  0.00  0.00    +0.157 HD
ATOM     14  C   LIG    1        6.777  -1.948  -1.289  0.00  0.00    +0.251 C 
ATOM     15  O   LIG    1        6.493  -0.837  -1.674  0.00  0.00    -0.270 OA
BRANCH  14  16
ATOM     16  C   LIG    1        8.204  -2.343  -1.134  0.00  0.00    +0.056 A 
ATOM     17  C   LIG    1        8.670  -3.650  -1.197  0.00  0.00    +0.054 A 
ATOM     18 CL   LIG    1        7.670  -4.994  -1.612  0.00  0.00    -0.083 Cl
ATOM     19  C   LIG    1       10.025  -3.909  -0.981  0.00  0.00    +0.041 A 
ATOM     20  C   LIG    1       10.944  -2.867  -0.760  0.00  0.00    +0.052 A 
ATOM     21 CL   LIG    1       12.590  -3.381  -0.622  0.00  0.00    -0.083 Cl
ATOM     22  C   LIG    1       10.530  -1.521  -0.746  0.00  0.00    +0.022 A 
ATOM     23  C   LIG    1        9.136  -1.300  -0.926  0.00  0.00    +0.026 A 
BRANCH  22  24
ATOM     24  C   LIG    1       11.424  -0.332  -0.656  0.00  0.00    +0.107 A 
ATOM     25  C   LIG    1       12.574  -0.224   0.128  0.00  0.00    +0.149 A 
ATOM     26  F   LIG    1       12.931  -1.173   1.002  0.00  0.00    -0.203 F 
ATOM     27  C   LIG    1       13.363   0.923   0.059  0.00  0.00    +0.042 A 
ATOM     28  C   LIG    1       12.960   1.983  -0.741  0.00  0.00    +0.023 A 
ATOM     29  C   LIG    1       11.778   1.844  -1.444  0.00  0.00    +0.111 A 
ATOM     30  N   LIG    1       11.018   0.721  -1.428  0.00  0.00    -0.252 NA
ENDBRANCH  22  24
ENDBRANCH  14  16
ENDBRANCH   4  12
BRANCH   1  31
ATOM     31  C   LIG    1        1.487  -0.381  -0.730  0.00  0.00    +0.236 C 
ATOM     32  N   LIG    1        1.712   0.717  -1.359  0.00  0.00    -0.243 NA
BRANCH  31  33
ATOM     33  O   LIG    1        0.460  -0.625   0.110  0.00  0.00    -0.491 OA
ATOM     34  H   LIG    1        0.011   0.195   0.390  0.00  0.00    +0.294 HD
ENDBRANCH  31  33
BRANCH  32  35
ATOM     35  C   LIG    1        0.754   1.823  -1.276  0.00  0.00    +0.200 C 
BRANCH  35  36
ATOM     36  C   LIG    1        0.594   2.383   0.120  0.00  0.00    +0.063 A 
ATOM     37  N   LIG    1       -0.314   1.752   0.917  0.00  0.00    -0.258 NA
ATOM     38  C   LIG    1       -0.419   2.176   2.197  0.00  0.00    +0.111 A 
ATOM     39  C   LIG    1        0.354   3.190   2.730  0.00  0.00    +0.020 A 
ATOM     40  C   LIG    1        1.294   3.803   1.908  0.00  0.00    +0.003 A 
ATOM     41  C   LIG    1        1.427   3.390   0.585  0.00  0.00    +0.025 A 
ENDBRANCH  35  36
ENDBRANCH  32  35
ENDBRANCH   1  31
TORSDOF 8
