REMARK  Name = pdb/CHEMBL457614.pdb
REMARK                            x       y       z     vdW  Elec       q    Type
REMARK                         _______ _______ _______ _____ _____    ______ ____
ROOT
ATOM      1  C   LIG    1        8.625   7.153   1.243  0.00  0.00    +0.148 A 
ATOM      2  C   LIG    1        8.496   7.894   2.406  0.00  0.00    +0.099 A 
ATOM      3 CL   LIG    1        9.844   8.460   3.316  0.00  0.00    -0.078 Cl
ATOM      4  C   LIG    1        7.215   8.141   2.829  0.00  0.00    +0.137 A 
ATOM      5  N   LIG    1        6.111   7.670   2.200  0.00  0.00    -0.221 NA
ATOM      6  C   LIG    1        6.315   6.938   1.101  0.00  0.00    +0.217 A 
ATOM      7  N   LIG    1        7.525   6.689   0.596  0.00  0.00    -0.198 NA
ENDROOT
BRANCH   1   8
ATOM      8  N   LIG    1        9.906   6.820   0.758  0.00  0.00    -0.282 N 
ATOM      9  H   LIG    1       10.650   7.385   1.154  0.00  0.00    +0.155 HD
BRANCH   8  14
ATOM     10  C   LIG    1       10.286   3.924  -1.235  0.00  0.00    +0.213 A 
ATOM     11  N   LIG    1       11.533   4.463  -1.102  0.00  0.00    -0.245 N 
ATOM     12  H   LIG    1       12.404   4.101  -1.489  0.00  0.00    +0.192 HD
ATOM     13  N   LIG    1       11.576   5.603  -0.385  0.00  0.00    -0.156 NA
ATOM     14  C   LIG    1       10.296   5.825  -0.067  0.00  0.00    +0.149 A 
ATOM     15  C   LIG    1        9.452   4.856  -0.652  0.00  0.00    +0.112 A 
BRANCH  10  16
ATOM     16  O   LIG    1       10.097   2.741  -1.818  0.00  0.00    -0.474 OA
BRANCH  16  18
ATOM     17  C   LIG    1        8.873   1.445  -3.429  0.00  0.00    +0.051 C 
ATOM     18  C   LIG    1        8.773   2.490  -2.321  0.00  0.00    +0.169 C 
ATOM     19  C   LIG    1        7.812   1.974  -1.248  0.00  0.00    +0.051 C 
ENDBRANCH  16  18
ENDBRANCH  10  16
ENDBRANCH   8  14
ENDBRANCH   1   8
BRANCH   6  20
ATOM     20  N   LIG    1        5.207   6.361   0.529  0.00  0.00    -0.305 N 
ATOM     21  H   LIG    1        4.341   6.707   0.926  0.00  0.00    +0.150 HD
BRANCH  20  22
ATOM     22  C   LIG    1        5.191   6.023  -0.888  0.00  0.00    +0.119 C 
ATOM     23  C   LIG    1        4.867   4.532  -1.043  0.00  0.00    +0.034 C 
BRANCH  22  24
ATOM     24  C   LIG    1        4.148   6.857  -1.636  0.00  0.00    +0.061 A 
ATOM     25  N   LIG    1        2.863   6.403  -1.651  0.00  0.00    -0.255 NA
ATOM     26  C   LIG    1        1.948   7.123  -2.341  0.00  0.00    +0.149 A 
ATOM     27  C   LIG    1        2.246   8.296  -3.003  0.00  0.00    +0.141 A 
ATOM     28  F   LIG    1        1.295   8.968  -3.664  0.00  0.00    -0.204 F 
ATOM     29  C   LIG    1        3.547   8.772  -2.966  0.00  0.00    +0.042 A 
ATOM     30  C   LIG    1        4.517   8.046  -2.272  0.00  0.00    +0.028 A 
ENDBRANCH  22  24
ENDBRANCH  20  22
ENDBRANCH   6  20
TORSDOF 7
