REMARK  Name = pdb/CHEMBL3675937.pdb
REMARK                            x       y       z     vdW  Elec       q    Type
REMARK                         _______ _______ _______ _____ _____    ______ ____
ROOT
ATOM      1  C   LIG    1        0.527   5.299   2.408  0.00  0.00    +0.100 A 
ATOM      2  C   LIG    1       -0.555   6.154   2.537  0.00  0.00    +0.170 A 
ATOM      3  N   LIG    1       -1.719   6.059   3.263  0.00  0.00    -0.212 NA
ATOM      4  C   LIG    1       -2.575   7.053   3.187  0.00  0.00    +0.126 A 
ATOM      5  C   LIG    1       -2.306   8.285   2.356  0.00  0.00    +0.063 A 
ATOM      6  C   LIG    1       -1.147   8.335   1.690  0.00  0.00    +0.118 A 
ATOM      7  N   LIG    1       -0.260   7.273   1.757  0.00  0.00    -0.221 N 
ATOM      8  N   LIG    1        0.938   7.164   1.138  0.00  0.00    -0.173 NA
ATOM      9  C   LIG    1        1.404   5.979   1.536  0.00  0.00    +0.150 A 
ENDROOT
BRANCH   4  10
ATOM     10  N   LIG    1       -3.761   7.012   3.902  0.00  0.00    -0.308 N 
ATOM     11  C   LIG    1       -3.907   6.255   5.164  0.00  0.00    +0.108 C 
ATOM     12  C   LIG    1       -5.209   5.472   4.927  0.00  0.00    +0.029 C 
ATOM     13  C   LIG    1       -6.062   6.455   4.144  0.00  0.00    +0.021 C 
ATOM     14  C   LIG    1       -5.052   7.111   3.209  0.00  0.00    +0.107 C 
BRANCH  11  15
ATOM     15  C   LIG    1       -3.971   7.208   6.357  0.00  0.00    +0.011 A 
ATOM     16  C   LIG    1       -4.241   6.735   7.650  0.00  0.00    +0.129 A 
ATOM     17  F   LIG    1       -4.462   5.429   7.856  0.00  0.00    -0.205 F 
ATOM     18  C   LIG    1       -4.303   7.593   8.755  0.00  0.00    +0.041 A 
ATOM     19  C   LIG    1       -4.075   8.957   8.589  0.00  0.00    +0.041 A 
ATOM     20  C   LIG    1       -3.793   9.442   7.321  0.00  0.00    +0.124 A 
ATOM     21  F   LIG    1       -3.577  10.752   7.146  0.00  0.00    -0.205 F 
ATOM     22  C   LIG    1       -3.740   8.590   6.220  0.00  0.00    +0.046 A 
ENDBRANCH  11  15
ENDBRANCH   4  10
BRANCH   1  25
ATOM     23  N   LIG    1       -0.314   3.562   3.805  0.00  0.00    -0.306 N 
ATOM     24  H   LIG    1       -1.032   4.246   4.038  0.00  0.00    +0.149 HD
ATOM     25  C   LIG    1        0.728   3.997   3.015  0.00  0.00    +0.249 C 
ATOM     26  O   LIG    1        1.740   3.337   2.831  0.00  0.00    -0.270 OA
BRANCH  23  29
ATOM     27  F   LIG    1       -0.293   3.257   6.648  0.00  0.00    -0.242 F 
ATOM     28  C   LIG    1        0.385   2.357   5.869  0.00  0.00    +0.200 C 
ATOM     29  C   LIG    1       -0.296   2.281   4.496  0.00  0.00    +0.110 C 
ATOM     30  C   LIG    1       -1.722   1.747   4.654  0.00  0.00    +0.040 C 
ATOM     31  C   LIG    1       -1.718   0.403   5.379  0.00  0.00    +0.083 C 
ATOM     32  N   LIG    1       -1.057   0.475   6.684  0.00  0.00    -0.313 NA
ATOM     33  H   LIG    1       -1.576   1.127   7.278  0.00  0.00    +0.122 HD
ATOM     34  C   LIG    1        0.320   0.988   6.556  0.00  0.00    +0.119 C 
ENDBRANCH  23  29
ENDBRANCH   1  25
TORSDOF 4
