REMARK  Name = pdb/CHEMBL3671436.pdb
REMARK                            x       y       z     vdW  Elec       q    Type
REMARK                         _______ _______ _______ _____ _____    ______ ____
ROOT
ATOM      1  C   LIG    1        3.011  -4.041   2.549  0.00  0.00    +0.197 C 
ATOM      2  O   LIG    1        2.415  -4.636   1.640  0.00  0.00    -0.287 OA
ENDROOT
BRANCH   1  10
ATOM      3  N   LIG    1        3.505  -0.435   3.146  0.00  0.00    -0.323 N 
ATOM      4  C   LIG    1        3.340  -0.462   1.776  0.00  0.00    +0.147 A 
ATOM      5  N   LIG    1        3.392   0.597   0.953  0.00  0.00    -0.197 NA
ATOM      6  C   LIG    1        3.186   0.313  -0.331  0.00  0.00    +0.214 A 
ATOM      7  N   LIG    1        2.908  -0.892  -0.833  0.00  0.00    -0.222 NA
ATOM      8  C   LIG    1        2.867  -1.951   0.012  0.00  0.00    +0.126 A 
ATOM      9  C   LIG    1        3.092  -1.763   1.376  0.00  0.00    +0.048 A 
ATOM     10  C   LIG    1        3.167  -2.592   2.531  0.00  0.00    +0.051 A 
ATOM     11  C   LIG    1        3.389  -1.738   3.608  0.00  0.00    +0.100 A 
BRANCH   3  13
ATOM     12  C   LIG    1        5.166   0.571   4.686  0.00  0.00    +0.036 C 
ATOM     13  C   LIG    1        3.788   0.747   4.004  0.00  0.00    +0.064 C 
ATOM     14  C   LIG    1        2.724   0.886   5.116  0.00  0.00    +0.036 C 
BRANCH  13  15
ATOM     15  C   LIG    1        3.839   2.102   3.234  0.00  0.00    +0.183 C 
BRANCH  15  16
ATOM     16  O   LIG    1        2.610   2.430   2.587  0.00  0.00    -0.393 OA
ATOM     17  H   LIG    1        2.604   1.874   1.778  0.00  0.00    +0.209 HD
ENDBRANCH  15  16
ENDBRANCH  13  15
ENDBRANCH   3  13
BRANCH   6  18
ATOM     18  N   LIG    1        3.203   1.385  -1.198  0.00  0.00    -0.327 N 
ATOM     19  H   LIG    1        2.996   2.244  -0.707  0.00  0.00    +0.145 HD
ATOM     20  H   LIG    1        2.644   1.177  -2.013  0.00  0.00    +0.145 HD
ENDBRANCH   6  18
ENDBRANCH   1  10
BRANCH   1  21
ATOM     21  C   LIG    1        3.571  -4.852   3.646  0.00  0.00    +0.042 A 
ATOM     22  C   LIG    1        2.940  -6.047   4.018  0.00  0.00    +0.038 A 
ATOM     23  C   LIG    1        3.475  -6.832   5.040  0.00  0.00    +0.052 A 
ATOM     24  C   LIG    1        4.644  -6.363   5.646  0.00  0.00    +0.134 A 
ATOM     25  N   LIG    1        5.289  -5.222   5.293  0.00  0.00    -0.261 NA
ATOM     26  C   LIG    1        4.751  -4.504   4.287  0.00  0.00    +0.122 A 
BRANCH  23  27
ATOM     27  N   LIG    1        2.808  -8.038   5.370  0.00  0.00    -0.283 N 
ATOM     28  H   LIG    1        1.975  -8.258   4.836  0.00  0.00    +0.155 HD
ATOM     29  C   LIG    1        3.248  -8.957   6.307  0.00  0.00    +0.239 C 
ATOM     30  O   LIG    1        4.244  -8.790   7.006  0.00  0.00    -0.273 OA
BRANCH  29  31
ATOM     31  C   LIG    1        2.376 -10.193   6.453  0.00  0.00    +0.239 C 
BRANCH  31  32
ATOM     32  N   LIG    1        3.177 -11.340   6.845  0.00  0.00    -0.262 N 
ATOM     33  N   LIG    1        3.282 -12.406   6.028  0.00  0.00    -0.179 NA
ATOM     34  C   LIG    1        4.170 -13.191   6.648  0.00  0.00    +0.146 A 
ATOM     35  C   LIG    1        4.614 -12.655   7.876  0.00  0.00    +0.092 A 
ATOM     36  C   LIG    1        3.908 -11.475   7.992  0.00  0.00    +0.121 A 
BRANCH  35  37
ATOM     37  C   LIG    1        5.615 -13.241   8.792  0.00  0.00    +0.420 C 
ATOM     38  F   LIG    1        6.813 -13.428   8.183  0.00  0.00    -0.166 F 
ATOM     39  F   LIG    1        5.217 -14.452   9.258  0.00  0.00    -0.166 F 
ATOM     40  F   LIG    1        5.844 -12.459   9.879  0.00  0.00    -0.166 F 
ENDBRANCH  35  37
ENDBRANCH  31  32
ENDBRANCH  29  31
ENDBRANCH  23  27
ENDBRANCH   1  21
TORSDOF 10
