REMARK  Name = pdb/CHEMBL3985346.pdb
REMARK                            x       y       z     vdW  Elec       q    Type
REMARK                         _______ _______ _______ _____ _____    ______ ____
ROOT
ATOM      1  C   LIG    1        8.763  -3.183   0.591  0.00  0.00    +0.149 A 
ATOM      2  N   LIG    1        8.132  -4.286   0.150  0.00  0.00    -0.160 NA
ATOM      3  N   LIG    1        9.103  -5.223   0.024  0.00  0.00    -0.218 N 
ATOM      4  C   LIG    1       10.374  -4.672   0.194  0.00  0.00    +0.129 A 
ATOM      5  C   LIG    1       10.164  -3.379   0.603  0.00  0.00    +0.078 A 
ENDROOT
BRANCH   3   6
ATOM      6  C   LIG    1        8.760  -6.583  -0.213  0.00  0.00    +0.067 A 
ATOM      7  C   LIG    1        9.588  -7.623   0.237  0.00  0.00    +0.028 A 
ATOM      8  C   LIG    1        9.233  -8.952  -0.005  0.00  0.00    +0.002 A 
ATOM      9  C   LIG    1        8.057  -9.251  -0.692  0.00  0.00    +0.000 A 
ATOM     10  C   LIG    1        7.218  -8.222  -1.118  0.00  0.00    +0.002 A 
ATOM     11  C   LIG    1        7.557  -6.890  -0.866  0.00  0.00    +0.028 A 
ENDBRANCH   3   6
BRANCH   4  12
ATOM     12  N   LIG    1       11.608  -5.276  -0.078  0.00  0.00    -0.266 N 
ATOM     13  H   LIG    1       11.603  -6.100  -0.667  0.00  0.00    +0.157 HD
ATOM     14  C   LIG    1       12.855  -4.751   0.407  0.00  0.00    +0.251 C 
ATOM     15  O   LIG    1       12.878  -3.798   1.161  0.00  0.00    -0.270 OA
BRANCH  14  16
ATOM     16  C   LIG    1       14.111  -5.449   0.043  0.00  0.00    +0.056 A 
ATOM     17  C   LIG    1       14.315  -6.138  -1.153  0.00  0.00    +0.056 A 
ATOM     18 CL   LIG    1       13.093  -6.340  -2.354  0.00  0.00    -0.083 Cl
ATOM     19  C   LIG    1       15.562  -6.707  -1.417  0.00  0.00    +0.059 A 
ATOM     20  C   LIG    1       16.591  -6.619  -0.479  0.00  0.00    +0.134 A 
ATOM     21  F   LIG    1       17.752  -7.217  -0.781  0.00  0.00    -0.205 F 
ATOM     22  C   LIG    1       16.417  -5.975   0.752  0.00  0.00    +0.036 A 
ATOM     23  C   LIG    1       15.162  -5.374   0.981  0.00  0.00    +0.027 A 
BRANCH  22  24
ATOM     24  C   LIG    1       17.452  -5.974   1.804  0.00  0.00    +0.074 A 
ATOM     25  N   LIG    1       16.967  -6.029   3.073  0.00  0.00    -0.255 NA
ATOM     26  C   LIG    1       17.859  -6.105   4.088  0.00  0.00    +0.111 A 
ATOM     27  C   LIG    1       19.230  -6.122   3.908  0.00  0.00    +0.020 A 
ATOM     28  C   LIG    1       19.717  -6.040   2.612  0.00  0.00    +0.004 A 
ATOM     29  C   LIG    1       18.821  -5.961   1.547  0.00  0.00    +0.028 A 
ENDBRANCH  22  24
ENDBRANCH  14  16
ENDBRANCH   4  12
BRANCH   1  31
ATOM     30  N   LIG    1        8.658  -0.825   0.848  0.00  0.00    -0.244 NA
ATOM     31  C   LIG    1        8.060  -1.955   0.964  0.00  0.00    +0.236 C 
BRANCH  31  32
ATOM     32  O   LIG    1        6.818  -2.138   1.455  0.00  0.00    -0.491 OA
ATOM     33  H   LIG    1        6.438  -1.326   1.817  0.00  0.00    +0.294 HD
ENDBRANCH  31  32
BRANCH  30  34
ATOM     34  C   LIG    1        7.960   0.424   1.163  0.00  0.00    +0.184 C 
BRANCH  34  39
ATOM     35  C   LIG    1        8.381   2.163   6.641  0.00  0.00    +0.065 C 
ATOM     36  C   LIG    1        8.321   1.698   5.217  0.00  0.00    +0.040 A 
ATOM     37  N   LIG    1        7.205   2.016   4.520  0.00  0.00    -0.237 NA
ATOM     38  C   LIG    1        7.115   1.616   3.239  0.00  0.00    +0.121 A 
ATOM     39  C   LIG    1        8.098   0.861   2.599  0.00  0.00    +0.013 A 
ATOM     40  C   LIG    1        9.252   0.563   3.335  0.00  0.00    +0.010 A 
ATOM     41  C   LIG    1        9.365   0.978   4.657  0.00  0.00    +0.023 A 
BRANCH  38  42
ATOM     42  N   LIG    1        5.944   2.010   2.591  0.00  0.00    -0.343 N 
ATOM     43  H   LIG    1        5.419   2.539   3.288  0.00  0.00    +0.144 HD
ATOM     44  H   LIG    1        6.159   2.610   1.801  0.00  0.00    +0.144 HD
ENDBRANCH  38  42
ENDBRANCH  34  39
ENDBRANCH  30  34
ENDBRANCH   1  31
TORSDOF 9
