REMARK  Name = pdb/CHEMBL3678292.pdb
REMARK                            x       y       z     vdW  Elec       q    Type
REMARK                         _______ _______ _______ _____ _____    ______ ____
ROOT
ATOM      1  C   LIG    1        9.099  10.636  -1.880  0.00  0.00    +0.117 C 
ATOM      2  C   LIG    1       10.219  10.347  -2.933  0.00  0.00    +0.036 C 
ENDROOT
BRANCH   1   3
ATOM      3  N   LIG    1        8.021  11.486  -2.383  0.00  0.00    -0.305 N 
ATOM      4  C   LIG    1        7.459  11.453  -3.651  0.00  0.00    +0.071 A 
ATOM      5  C   LIG    1        7.527  10.595  -4.748  0.00  0.00    +0.028 A 
ATOM      6  C   LIG    1        6.802  10.942  -5.898  0.00  0.00    +0.011 A 
ATOM      7  C   LIG    1        5.995  12.087  -5.948  0.00  0.00    -0.013 A 
ATOM      8  C   LIG    1        5.933  12.918  -4.822  0.00  0.00    +0.038 A 
ATOM      9  C   LIG    1        6.660  12.599  -3.673  0.00  0.00    +0.091 A 
ATOM     10  N   LIG    1        6.668  13.264  -2.496  0.00  0.00    -0.215 NA
ATOM     11  C   LIG    1        7.483  12.551  -1.689  0.00  0.00    +0.195 A 
BRANCH   7  12
ATOM     12  C   LIG    1        5.189  12.372  -7.125  0.00  0.00    +0.020 A 
ATOM     13  C   LIG    1        4.262  13.390  -7.223  0.00  0.00    +0.116 A 
ATOM     14  N   LIG    1        3.697  13.281  -8.459  0.00  0.00    -0.274 N 
ATOM     15  C   LIG    1        2.648  14.116  -8.990  0.00  0.00    +0.172 C 
ATOM     16  N   LIG    1        4.186  12.263  -9.186  0.00  0.00    -0.179 NA
ATOM     17  C   LIG    1        5.095  11.715  -8.375  0.00  0.00    +0.142 A 
ENDBRANCH   7  12
BRANCH  11  18
ATOM     18  N   LIG    1        7.672  12.883  -0.449  0.00  0.00    -0.329 N 
ATOM     19  H   LIG    1        7.017  13.538  -0.039  0.00  0.00    +0.145 HD
ATOM     20  H   LIG    1        8.122  12.277   0.257  0.00  0.00    +0.145 HD
ENDBRANCH  11  18
ENDBRANCH   1   3
BRANCH   1  24
ATOM     21  C   LIG    1        8.367   6.604  -0.382  0.00  0.00    +0.162 A 
ATOM     22  C   LIG    1        9.593   7.241  -0.490  0.00  0.00    +0.162 A 
ATOM     23  C   LIG    1        9.672   8.627  -0.616  0.00  0.00    +0.055 A 
ATOM     24  C   LIG    1        8.635   9.352  -1.192  0.00  0.00    -0.021 A 
ATOM     25  C   LIG    1        7.382   8.739  -1.195  0.00  0.00    +0.009 A 
ATOM     26  C   LIG    1        7.246   7.402  -0.721  0.00  0.00    +0.050 A 
BRANCH  22  27
ATOM     27  O   LIG    1       10.853   6.748  -0.677  0.00  0.00    -0.491 OA
ATOM     28  C   LIG    1       11.015   5.414  -1.092  0.00  0.00    +0.277 C 
ENDBRANCH  22  27
BRANCH  21  29
ATOM     29  O   LIG    1        8.124   5.274  -0.251  0.00  0.00    -0.484 OA
BRANCH  29  30
ATOM     30  C   LIG    1        8.596   4.274   0.684  0.00  0.00    +0.266 C 
BRANCH  30  34
ATOM     31  C   LIG    1       11.689   4.238   3.576  0.00  0.00    +0.214 A 
ATOM     32  N   LIG    1       11.581   5.339   2.840  0.00  0.00    -0.221 NA
ATOM     33  C   LIG    1       10.610   5.308   1.913  0.00  0.00    +0.121 A 
ATOM     34  C   LIG    1        9.862   4.200   1.530  0.00  0.00    +0.008 A 
ATOM     35  C   LIG    1       10.232   2.990   2.137  0.00  0.00    +0.013 A 
ATOM     36  C   LIG    1       11.101   3.030   3.229  0.00  0.00    +0.067 A 
BRANCH  31  38
ATOM     37  C   LIG    1       12.582   5.651   5.257  0.00  0.00    +0.279 C 
ATOM     38  O   LIG    1       12.135   4.352   4.871  0.00  0.00    -0.480 OA
ENDBRANCH  31  38
ENDBRANCH  30  34
ENDBRANCH  29  30
ENDBRANCH  21  29
ENDBRANCH   1  24
TORSDOF 9
