REMARK  Name = pdb/CHEMBL3675918.pdb
REMARK                            x       y       z     vdW  Elec       q    Type
REMARK                         _______ _______ _______ _____ _____    ______ ____
ROOT
ATOM      1  C   LIG    1        5.110  -0.348   4.699  0.00  0.00    +0.100 A 
ATOM      2  C   LIG    1        5.543   0.593   5.614  0.00  0.00    +0.170 A 
ATOM      3  N   LIG    1        5.838   1.936   5.517  0.00  0.00    -0.212 NA
ATOM      4  C   LIG    1        6.202   2.578   6.609  0.00  0.00    +0.126 A 
ATOM      5  C   LIG    1        6.283   1.883   7.953  0.00  0.00    +0.063 A 
ATOM      6  C   LIG    1        6.006   0.577   7.989  0.00  0.00    +0.118 A 
ATOM      7  N   LIG    1        5.642  -0.087   6.834  0.00  0.00    -0.221 N 
ATOM      8  N   LIG    1        5.328  -1.397   6.725  0.00  0.00    -0.173 NA
ATOM      9  C   LIG    1        4.994  -1.543   5.447  0.00  0.00    +0.150 A 
ENDROOT
BRANCH   4  10
ATOM     10  N   LIG    1        6.522   3.931   6.551  0.00  0.00    -0.308 N 
ATOM     11  C   LIG    1        6.406   4.727   5.313  0.00  0.00    +0.108 C 
ATOM     12  C   LIG    1        7.675   5.597   5.353  0.00  0.00    +0.029 C 
ATOM     13  C   LIG    1        7.894   5.865   6.833  0.00  0.00    +0.021 C 
ATOM     14  C   LIG    1        7.466   4.558   7.487  0.00  0.00    +0.107 C 
BRANCH  11  15
ATOM     15  C   LIG    1        5.120   5.546   5.280  0.00  0.00    +0.011 A 
ATOM     16  C   LIG    1        4.551   5.923   4.053  0.00  0.00    +0.129 A 
ATOM     17  F   LIG    1        5.111   5.519   2.904  0.00  0.00    -0.205 F 
ATOM     18  C   LIG    1        3.398   6.716   3.984  0.00  0.00    +0.041 A 
ATOM     19  C   LIG    1        2.774   7.137   5.156  0.00  0.00    +0.041 A 
ATOM     20  C   LIG    1        3.313   6.756   6.377  0.00  0.00    +0.124 A 
ATOM     21  F   LIG    1        2.715   7.142   7.512  0.00  0.00    -0.205 F 
ATOM     22  C   LIG    1        4.468   5.979   6.447  0.00  0.00    +0.046 A 
ENDBRANCH  11  15
ENDBRANCH   4  10
BRANCH   1  25
ATOM     23  N   LIG    1        5.019   0.981   2.699  0.00  0.00    -0.304 N 
ATOM     24  H   LIG    1        5.244   1.750   3.326  0.00  0.00    +0.150 HD
ATOM     25  C   LIG    1        4.816  -0.236   3.286  0.00  0.00    +0.250 C 
ATOM     26  O   LIG    1        4.410  -1.222   2.650  0.00  0.00    -0.270 OA
BRANCH  23  28
ATOM     27  C   LIG    1        5.675   0.401   0.380  0.00  0.00    +0.034 C 
ATOM     28  C   LIG    1        4.757   1.258   1.271  0.00  0.00    +0.057 C 
ATOM     29  C   LIG    1        5.081   2.737   0.995  0.00  0.00    +0.034 C 
BRANCH  28  30
ATOM     30  C   LIG    1        3.282   1.014   0.881  0.00  0.00    +0.238 C 
ATOM     31  F   LIG    1        2.469   1.804   1.640  0.00  0.00    -0.247 F 
ENDBRANCH  28  30
ENDBRANCH  23  28
ENDBRANCH   1  25
TORSDOF 5
