REMARK  Name = pdb/CHEMBL2151319.pdb
REMARK                            x       y       z     vdW  Elec       q    Type
REMARK                         _______ _______ _______ _____ _____    ______ ____
ROOT
ATOM      1  C   LIG    1        3.375   0.897   5.643  0.00  0.00    +0.122 A 
ATOM      2  N   LIG    1        3.218   1.893   4.746  0.00  0.00    -0.213 NA
ATOM      3  C   LIG    1        3.160   3.133   5.294  0.00  0.00    +0.168 A 
ATOM      4  N   LIG    1        3.032   4.355   4.657  0.00  0.00    -0.266 N 
ATOM      5  C   LIG    1        3.023   5.310   5.656  0.00  0.00    +0.207 A 
ATOM      6  N   LIG    1        3.151   4.798   6.862  0.00  0.00    -0.234 NA
ATOM      7  C   LIG    1        3.247   3.451   6.646  0.00  0.00    +0.108 A 
ATOM      8  C   LIG    1        3.426   2.408   7.553  0.00  0.00    +0.035 A 
ATOM      9  C   LIG    1        3.497   1.119   7.022  0.00  0.00    +0.046 A 
ENDROOT
BRANCH   4  10
ATOM     10  C   LIG    1        2.949   4.618   3.263  0.00  0.00    +0.162 A 
ATOM     11  N   LIG    1        2.860   5.886   2.838  0.00  0.00    -0.155 NA
ATOM     12  N   LIG    1        2.832   5.762   1.497  0.00  0.00    -0.279 N 
ATOM     13  H   LIG    1        2.767   6.604   0.933  0.00  0.00    +0.189 HD
ATOM     14  C   LIG    1        2.884   4.466   1.072  0.00  0.00    +0.041 A 
ATOM     15  C   LIG    1        2.961   3.688   2.207  0.00  0.00    +0.071 A 
BRANCH  14  16
ATOM     16  C   LIG    1        2.856   4.012  -0.371  0.00  0.00    +0.037 C 
ATOM     17  C   LIG    1        2.082   2.757  -0.711  0.00  0.00    +0.010 C 
ATOM     18  C   LIG    1        3.570   2.733  -0.756  0.00  0.00    +0.010 C 
ENDBRANCH  14  16
ENDBRANCH   4  10
BRANCH   1  19
ATOM     19  N   LIG    1        3.502  -0.438   5.228  0.00  0.00    -0.319 N 
ATOM     20  H   LIG    1        2.832  -1.003   5.751  0.00  0.00    +0.148 HD
BRANCH  19  22
ATOM     21  C   LIG    1        4.268  -1.960   3.530  0.00  0.00    +0.036 C 
ATOM     22  C   LIG    1        3.371  -0.742   3.791  0.00  0.00    +0.136 C 
BRANCH  22  23
ATOM     23  C   LIG    1        1.936  -1.105   3.378  0.00  0.00    +0.149 A 
ATOM     24  N   LIG    1        1.003  -1.271   4.350  0.00  0.00    -0.236 NA
ATOM     25  C   LIG    1       -0.219  -1.690   3.948  0.00  0.00    +0.152 A 
ATOM     26  C   LIG    1       -0.527  -1.987   2.643  0.00  0.00    +0.159 A 
ATOM     27  F   LIG    1       -1.733  -2.438   2.284  0.00  0.00    -0.202 F 
ATOM     28  C   LIG    1        0.480  -1.806   1.731  0.00  0.00    +0.152 A 
ATOM     29  N   LIG    1        1.712  -1.360   2.064  0.00  0.00    -0.236 NA
ENDBRANCH  22  23
ENDBRANCH  19  22
ENDBRANCH   1  19
TORSDOF 5
