REMARK  Name = pdb/CHEMBL3925946.pdb
REMARK                            x       y       z     vdW  Elec       q    Type
REMARK                         _______ _______ _______ _____ _____    ______ ____
ROOT
ATOM      1  C   LIG    1        7.783  -3.392   2.386  0.00  0.00    +0.099 A 
ATOM      2  C   LIG    1        7.382  -2.206   2.964  0.00  0.00    +0.179 A 
ATOM      3  N   LIG    1        8.073  -1.237   3.647  0.00  0.00    -0.211 NA
ATOM      4  C   LIG    1        7.386  -0.226   4.137  0.00  0.00    +0.126 A 
ATOM      5  C   LIG    1        5.878  -0.156   4.010  0.00  0.00    +0.063 A 
ATOM      6  C   LIG    1        5.268  -1.101   3.293  0.00  0.00    +0.118 A 
ATOM      7  N   LIG    1        6.004  -2.138   2.758  0.00  0.00    -0.220 N 
ATOM      8  N   LIG    1        5.538  -3.179   2.030  0.00  0.00    -0.171 NA
ATOM      9  C   LIG    1        6.614  -3.940   1.826  0.00  0.00    +0.160 A 
ENDROOT
BRANCH   4  10
ATOM     10  N   LIG    1        8.042   0.825   4.767  0.00  0.00    -0.308 N 
ATOM     11  C   LIG    1        9.516   0.896   4.845  0.00  0.00    +0.108 C 
ATOM     12  C   LIG    1        9.868   2.353   4.474  0.00  0.00    +0.029 C 
ATOM     13  C   LIG    1        8.557   3.016   4.086  0.00  0.00    +0.021 C 
ATOM     14  C   LIG    1        7.488   2.179   4.751  0.00  0.00    +0.107 C 
BRANCH  11  15
ATOM     15  C   LIG    1       10.026   0.510   6.224  0.00  0.00    +0.011 A 
ATOM     16  C   LIG    1        9.624   1.200   7.378  0.00  0.00    +0.129 A 
ATOM     17  F   LIG    1        8.794   2.246   7.292  0.00  0.00    -0.205 F 
ATOM     18  C   LIG    1       10.082   0.857   8.648  0.00  0.00    +0.041 A 
ATOM     19  C   LIG    1       10.977  -0.195   8.796  0.00  0.00    +0.041 A 
ATOM     20  C   LIG    1       11.405  -0.881   7.666  0.00  0.00    +0.124 A 
ATOM     21  F   LIG    1       12.278  -1.888   7.809  0.00  0.00    -0.205 F 
ATOM     22  C   LIG    1       10.944  -0.543   6.391  0.00  0.00    +0.046 A 
ENDBRANCH  11  15
ENDBRANCH   4  10
BRANCH   1  24
ATOM     23  C   LIG    1        9.437  -5.127   2.034  0.00  0.00    +0.326 C 
ATOM     24  N   LIG    1        9.082  -3.856   2.413  0.00  0.00    -0.272 N 
ATOM     25  H   LIG    1        9.786  -3.233   2.802  0.00  0.00    +0.155 HD
ATOM     26  O   LIG    1        8.723  -6.029   1.616  0.00  0.00    -0.263 OA
BRANCH  23  27
ATOM     27  C   LIG    1       10.957  -5.355   2.046  0.00  0.00    +0.393 C 
ATOM     28  O   LIG    1       11.677  -4.941   2.917  0.00  0.00    -0.240 OA
BRANCH  27  29
ATOM     29  O   LIG    1       11.345  -5.978   0.913  0.00  0.00    -0.474 OA
ATOM     30  H   LIG    1       10.561  -6.247   0.382  0.00  0.00    +0.296 HD
ENDBRANCH  27  29
ENDBRANCH  23  27
ENDBRANCH   1  24
TORSDOF 5
