REMARK  Name = pdb/CHEMBL3900941.pdb
REMARK                            x       y       z     vdW  Elec       q    Type
REMARK                         _______ _______ _______ _____ _____    ______ ____
ROOT
ATOM      1  C   LIG    1        3.794   1.871  -0.094  0.00  0.00    +0.149 A 
ATOM      2  N   LIG    1        4.902   2.598  -0.317  0.00  0.00    -0.160 NA
ATOM      3  N   LIG    1        4.483   3.882  -0.377  0.00  0.00    -0.218 N 
ATOM      4  C   LIG    1        3.117   3.984  -0.123  0.00  0.00    +0.129 A 
ATOM      5  C   LIG    1        2.679   2.704   0.113  0.00  0.00    +0.078 A 
ENDROOT
BRANCH   3   6
ATOM      6  C   LIG    1        5.413   4.913  -0.694  0.00  0.00    +0.067 A 
ATOM      7  C   LIG    1        6.769   4.722  -0.381  0.00  0.00    +0.028 A 
ATOM      8  C   LIG    1        7.710   5.702  -0.703  0.00  0.00    +0.002 A 
ATOM      9  C   LIG    1        7.310   6.863  -1.360  0.00  0.00    +0.000 A 
ATOM     10  C   LIG    1        5.967   7.056  -1.680  0.00  0.00    +0.002 A 
ATOM     11  C   LIG    1        5.015   6.087  -1.347  0.00  0.00    +0.028 A 
ENDBRANCH   3   6
BRANCH   4  12
ATOM     12  N   LIG    1        2.351   5.139  -0.024  0.00  0.00    -0.266 N 
ATOM     13  H   LIG    1        2.847   6.019   0.060  0.00  0.00    +0.157 HD
ATOM     14  C   LIG    1        0.919   5.145   0.006  0.00  0.00    +0.251 C 
ATOM     15  O   LIG    1        0.271   4.108  -0.134  0.00  0.00    -0.270 OA
BRANCH  14  16
ATOM     16  C   LIG    1        0.254   6.454   0.112  0.00  0.00    +0.056 A 
ATOM     17  C   LIG    1        0.819   7.546   0.779  0.00  0.00    +0.056 A 
ATOM     18 CL   LIG    1        2.343   7.500   1.587  0.00  0.00    -0.083 Cl
ATOM     19  C   LIG    1        0.133   8.750   0.819  0.00  0.00    +0.059 A 
ATOM     20  C   LIG    1       -1.110   8.875   0.202  0.00  0.00    +0.134 A 
ATOM     21  F   LIG    1       -1.688  10.079   0.296  0.00  0.00    -0.205 F 
ATOM     22  C   LIG    1       -1.720   7.815  -0.488  0.00  0.00    +0.036 A 
ATOM     23  C   LIG    1       -1.005   6.597  -0.505  0.00  0.00    +0.027 A 
BRANCH  22  24
ATOM     24  C   LIG    1       -3.017   7.936  -1.198  0.00  0.00    +0.074 A 
ATOM     25  N   LIG    1       -3.408   6.824  -1.877  0.00  0.00    -0.255 NA
ATOM     26  C   LIG    1       -4.559   6.872  -2.586  0.00  0.00    +0.111 A 
ATOM     27  C   LIG    1       -5.364   7.991  -2.667  0.00  0.00    +0.020 A 
ATOM     28  C   LIG    1       -4.972   9.121  -1.969  0.00  0.00    +0.004 A 
ATOM     29  C   LIG    1       -3.794   9.093  -1.228  0.00  0.00    +0.028 A 
ENDBRANCH  22  24
ENDBRANCH  14  16
ENDBRANCH   4  12
BRANCH   1  30
ATOM     30  C   LIG    1        3.795   0.414  -0.066  0.00  0.00    +0.236 C 
ATOM     31  N   LIG    1        2.723  -0.227  -0.371  0.00  0.00    -0.243 NA
BRANCH  30  32
ATOM     32  O   LIG    1        4.972  -0.124   0.301  0.00  0.00    -0.491 OA
ATOM     33  H   LIG    1        5.031  -1.052   0.007  0.00  0.00    +0.294 HD
ENDBRANCH  30  32
BRANCH  31  34
ATOM     34  C   LIG    1        2.682  -1.695  -0.352  0.00  0.00    +0.200 C 
BRANCH  34  35
ATOM     35  C   LIG    1        3.589  -2.360  -1.368  0.00  0.00    +0.063 A 
ATOM     36  N   LIG    1        4.922  -2.147  -1.196  0.00  0.00    -0.254 NA
ATOM     37  C   LIG    1        5.765  -2.635  -2.133  0.00  0.00    +0.156 A 
ATOM     38  C   LIG    1        5.346  -3.376  -3.219  0.00  0.00    +0.135 A 
ATOM     39  C   LIG    1        3.991  -3.643  -3.356  0.00  0.00    +0.049 A 
ATOM     40  C   LIG    1        3.093  -3.122  -2.421  0.00  0.00    +0.029 A 
BRANCH  38  41
ATOM     41  O   LIG    1        6.270  -3.816  -4.113  0.00  0.00    -0.505 OA
ATOM     42  H   LIG    1        5.813  -4.257  -4.848  0.00  0.00    +0.292 HD
ENDBRANCH  38  41
ENDBRANCH  34  35
ENDBRANCH  31  34
ENDBRANCH   1  30
TORSDOF 9
