REMARK  Name = pdb/CHEMBL3967794.pdb
REMARK                            x       y       z     vdW  Elec       q    Type
REMARK                         _______ _______ _______ _____ _____    ______ ____
ROOT
ATOM      1  C   LIG    1       -0.741  -6.331  -0.863  0.00  0.00    +0.323 A 
ATOM      2  N   LIG    1       -0.800  -5.710  -2.051  0.00  0.00    -0.201 NA
ATOM      3  C   LIG    1       -1.956  -5.784  -2.746  0.00  0.00    +0.145 A 
ATOM      4  C   LIG    1       -3.078  -6.453  -2.319  0.00  0.00    +0.105 A 
ATOM      5  C   LIG    1       -2.905  -7.033  -1.068  0.00  0.00    +0.145 A 
ATOM      6  N   LIG    1       -1.764  -7.006  -0.322  0.00  0.00    -0.201 NA
ENDROOT
BRANCH   4   7
ATOM      7  N   LIG    1       -4.263  -6.425  -3.086  0.00  0.00    -0.196 NA
ATOM      8  C   LIG    1       -5.104  -7.410  -3.080  0.00  0.00    +0.285 C 
BRANCH   8   9
ATOM      9  N   LIG    1       -6.309  -7.518  -3.717  0.00  0.00    -0.267 N 
ATOM     10  H   LIG    1       -6.987  -8.214  -3.410  0.00  0.00    +0.157 HD
BRANCH   9  11
ATOM     11  C   LIG    1       -6.765  -6.847  -4.872  0.00  0.00    +0.061 A 
ATOM     12  C   LIG    1       -8.135  -6.551  -5.096  0.00  0.00    +0.087 A 
ATOM     13  C   LIG    1       -8.528  -5.893  -6.278  0.00  0.00    +0.030 A 
ATOM     14  C   LIG    1       -7.578  -5.493  -7.217  0.00  0.00    +0.014 A 
ATOM     15  C   LIG    1       -6.218  -5.720  -6.987  0.00  0.00    +0.057 A 
ATOM     16  C   LIG    1       -5.832  -6.397  -5.821  0.00  0.00    +0.037 A 
BRANCH  12  17
ATOM     17  N   LIG    1       -9.153  -6.889  -4.154  0.00  0.00    -0.237 N 
ATOM     18  N   LIG    1       -8.999  -7.926  -3.276  0.00  0.00    -0.173 NA
ATOM     19  C   LIG    1      -10.155  -7.950  -2.600  0.00  0.00    +0.154 A 
ATOM     20  C   LIG    1      -11.035  -6.931  -2.988  0.00  0.00    +0.079 A 
ATOM     21 CL   LIG    1      -12.555  -6.594  -2.329  0.00  0.00    -0.080 Cl
ATOM     22  C   LIG    1      -10.387  -6.282  -4.007  0.00  0.00    +0.134 A 
ENDBRANCH  12  17
BRANCH  15  23
ATOM     23  C   LIG    1       -5.181  -5.234  -7.970  0.00  0.00    +0.417 C 
ATOM     24  F   LIG    1       -5.233  -3.885  -8.147  0.00  0.00    -0.166 F 
ATOM     25  F   LIG    1       -5.338  -5.781  -9.207  0.00  0.00    -0.166 F 
ATOM     26  F   LIG    1       -3.901  -5.514  -7.599  0.00  0.00    -0.166 F 
ENDBRANCH  15  23
ENDBRANCH   9  11
ENDBRANCH   8   9
BRANCH   8  27
ATOM     27  O   LIG    1       -4.830  -8.514  -2.367  0.00  0.00    -0.481 OA
ATOM     28  H   LIG    1       -5.515  -9.204  -2.501  0.00  0.00    +0.295 HD
ENDBRANCH   8  27
ENDBRANCH   4   7
BRANCH   1  29
ATOM     29  O   LIG    1        0.413  -6.219  -0.081  0.00  0.00    -0.424 OA
BRANCH  29  33
ATOM     30  C   LIG    1        3.735  -4.028  -1.551  0.00  0.00    -0.014 A 
ATOM     31  C   LIG    1        3.344  -4.007  -0.197  0.00  0.00    +0.012 A 
ATOM     32  C   LIG    1        2.251  -4.758   0.281  0.00  0.00    +0.047 A 
ATOM     33  C   LIG    1        1.493  -5.532  -0.595  0.00  0.00    +0.132 A 
ATOM     34  C   LIG    1        1.900  -5.606  -1.925  0.00  0.00    +0.047 A 
ATOM     35  C   LIG    1        2.985  -4.864  -2.393  0.00  0.00    +0.012 A 
BRANCH  30  37
ATOM     36  C   LIG    1        6.001  -2.811  -1.395  0.00  0.00    +0.124 A 
ATOM     37  C   LIG    1        4.853  -3.209  -2.110  0.00  0.00    +0.023 A 
ATOM     38  C   LIG    1        4.800  -2.774  -3.456  0.00  0.00    +0.033 A 
ATOM     39  C   LIG    1        5.825  -2.019  -4.014  0.00  0.00    +0.060 A 
ATOM     40 CL   LIG    1        5.760  -1.520  -5.655  0.00  0.00    -0.082 Cl
ATOM     41  C   LIG    1        6.893  -1.686  -3.212  0.00  0.00    +0.133 A 
ATOM     42  N   LIG    1        6.997  -2.060  -1.918  0.00  0.00    -0.239 NA
BRANCH  36  43
ATOM     43  N   LIG    1        6.248  -3.169  -0.073  0.00  0.00    -0.343 N 
ATOM     44  H   LIG    1        6.281  -4.179   0.020  0.00  0.00    +0.144 HD
ATOM     45  H   LIG    1        7.142  -2.747   0.166  0.00  0.00    +0.144 HD
ENDBRANCH  36  43
ENDBRANCH  30  37
ENDBRANCH  29  33
ENDBRANCH   1  29
TORSDOF 10
