REMARK  Name = pdb/CHEMBL3942060.pdb
REMARK                            x       y       z     vdW  Elec       q    Type
REMARK                         _______ _______ _______ _____ _____    ______ ____
ROOT
ATOM      1  C   LIG    1        4.856  -1.542   4.940  0.00  0.00    +0.131 C 
ATOM      2  N   LIG    1        5.672  -2.414   5.556  0.00  0.00    -0.141 NA
ATOM      3  N   LIG    1        6.097  -1.775   6.676  0.00  0.00    -0.201 N 
ATOM      4  C   LIG    1        5.745  -0.422   6.652  0.00  0.00    +0.185 C 
ATOM      5  C   LIG    1        4.825  -0.312   5.633  0.00  0.00    +0.056 C 
ENDROOT
BRANCH   3   6
ATOM      6  C   LIG    1        6.879  -2.466   7.643  0.00  0.00    +0.052 A 
ATOM      7  C   LIG    1        6.904  -2.057   8.983  0.00  0.00    +0.025 A 
ATOM      8  C   LIG    1        7.707  -2.733   9.907  0.00  0.00    +0.002 A 
ATOM      9  C   LIG    1        8.481  -3.820   9.502  0.00  0.00    +0.000 A 
ATOM     10  C   LIG    1        8.431  -4.254   8.179  0.00  0.00    +0.002 A 
ATOM     11  C   LIG    1        7.619  -3.593   7.253  0.00  0.00    +0.025 A 
ENDBRANCH   3   6
BRANCH   4  12
ATOM     12  N   LIG    1        6.280   0.627   7.417  0.00  0.00    -0.282 N 
ATOM     13  H   LIG    1        7.006   0.399   8.088  0.00  0.00    +0.152 HD
ATOM     14  C   LIG    1        5.943   2.005   7.195  0.00  0.00    +0.247 C 
ATOM     15  O   LIG    1        5.142   2.328   6.322  0.00  0.00    -0.270 OA
BRANCH  14  16
ATOM     16  C   LIG    1        6.615   3.065   7.970  0.00  0.00    +0.056 A 
ATOM     17  C   LIG    1        7.040   2.927   9.286  0.00  0.00    +0.054 A 
ATOM     18 CL   LIG    1        6.797   1.497  10.213  0.00  0.00    -0.083 Cl
ATOM     19  C   LIG    1        7.637   4.011   9.927  0.00  0.00    +0.041 A 
ATOM     20  C   LIG    1        7.765   5.257   9.286  0.00  0.00    +0.052 A 
ATOM     21 CL   LIG    1        8.469   6.505  10.260  0.00  0.00    -0.083 Cl
ATOM     22  C   LIG    1        7.290   5.456   7.971  0.00  0.00    +0.022 A 
ATOM     23  C   LIG    1        6.749   4.319   7.332  0.00  0.00    +0.026 A 
BRANCH  22  24
ATOM     24  C   LIG    1        7.300   6.762   7.258  0.00  0.00    +0.107 A 
ATOM     25  C   LIG    1        6.293   7.170   6.371  0.00  0.00    +0.149 A 
ATOM     26  F   LIG    1        5.235   6.390   6.101  0.00  0.00    -0.203 F 
ATOM     27  C   LIG    1        6.357   8.419   5.761  0.00  0.00    +0.042 A 
ATOM     28  C   LIG    1        7.415   9.264   6.067  0.00  0.00    +0.023 A 
ATOM     29  C   LIG    1        8.380   8.800   6.943  0.00  0.00    +0.111 A 
ATOM     30  N   LIG    1        8.358   7.571   7.511  0.00  0.00    -0.252 NA
ENDBRANCH  22  24
ENDBRANCH  14  16
ENDBRANCH   4  12
BRANCH   1  32
ATOM     31  N   LIG    1        3.143  -1.140   3.321  0.00  0.00    -0.246 NA
ATOM     32  C   LIG    1        4.187  -1.820   3.668  0.00  0.00    +0.233 C 
BRANCH  31  35
ATOM     33  C   LIG    1        1.702   0.076   0.642  0.00  0.00    +0.119 C 
ATOM     34  C   LIG    1        1.184  -0.647   1.897  0.00  0.00    +0.058 C 
ATOM     35  C   LIG    1        2.531  -1.377   2.022  0.00  0.00    +0.114 C 
ATOM     36  C   LIG    1        3.118  -0.436   0.954  0.00  0.00    +0.058 C 
BRANCH  33  37
ATOM     37  O   LIG    1        1.145  -0.363  -0.611  0.00  0.00    -0.392 OA
ATOM     38  H   LIG    1        1.513   0.243  -1.279  0.00  0.00    +0.210 HD
ENDBRANCH  33  37
ENDBRANCH  31  35
BRANCH  32  39
ATOM     39  O   LIG    1        4.787  -2.759   2.909  0.00  0.00    -0.491 OA
ATOM     40  H   LIG    1        4.308  -2.929   2.091  0.00  0.00    +0.294 HD
ENDBRANCH  32  39
ENDBRANCH   1  32
TORSDOF 8
