REMARK  Name = pdb/CHEMBL3673438.pdb
REMARK                            x       y       z     vdW  Elec       q    Type
REMARK                         _______ _______ _______ _____ _____    ______ ____
ROOT
ATOM      1  C   LIG    1        8.818 -10.941   1.651  0.00  0.00    +0.144 C 
ENDROOT
BRANCH   1   2
ATOM      2  N   LIG    1       10.026 -10.615   2.454  0.00  0.00    -0.286 N 
ATOM      3  C   LIG    1       10.199  -9.797   3.556  0.00  0.00    +0.056 A 
ATOM      4  C   LIG    1        9.392  -9.135   4.465  0.00  0.00    +0.026 A 
ATOM      5  C   LIG    1        9.940  -8.153   5.290  0.00  0.00    +0.010 A 
ATOM      6  C   LIG    1       11.317  -7.974   5.433  0.00  0.00    -0.016 A 
ATOM      7  C   LIG    1       12.139  -8.817   4.655  0.00  0.00    +0.035 A 
ATOM      8  C   LIG    1       11.587  -9.702   3.691  0.00  0.00    +0.073 A 
ATOM      9  N   LIG    1       12.235 -10.563   2.870  0.00  0.00    -0.204 NA
ATOM     10  C   LIG    1       11.260 -11.166   2.156  0.00  0.00    +0.227 C 
BRANCH   6  11
ATOM     11  C   LIG    1       11.841  -7.001   6.434  0.00  0.00    -0.015 A 
ATOM     12  C   LIG    1       13.187  -6.980   6.812  0.00  0.00    +0.028 A 
ATOM     13  C   LIG    1       13.614  -6.096   7.796  0.00  0.00    +0.111 A 
ATOM     14  N   LIG    1       12.808  -5.228   8.438  0.00  0.00    -0.263 NA
ATOM     15  C   LIG    1       11.517  -5.239   8.070  0.00  0.00    +0.111 A 
ATOM     16  C   LIG    1       11.004  -6.079   7.093  0.00  0.00    +0.028 A 
ENDBRANCH   6  11
BRANCH  10  17
ATOM     17  N   LIG    1       11.484 -12.145   1.301  0.00  0.00    -0.289 NA
ATOM     18  H   LIG    1       12.430 -12.518   1.328  0.00  0.00    +0.122 HD
ATOM     19  H   LIG    1       10.803 -12.911   1.232  0.00  0.00    +0.122 HD
ENDBRANCH  10  17
ENDBRANCH   1   2
BRANCH   1  23
ATOM     20  C   LIG    1        5.794  -7.848   0.827  0.00  0.00    +0.162 A 
ATOM     21  C   LIG    1        6.126  -8.162   2.144  0.00  0.00    +0.162 A 
ATOM     22  C   LIG    1        7.071  -9.197   2.326  0.00  0.00    +0.054 A 
ATOM     23  C   LIG    1        7.807  -9.845   1.330  0.00  0.00    -0.026 A 
ATOM     24  C   LIG    1        7.451  -9.525   0.024  0.00  0.00    +0.009 A 
ATOM     25  C   LIG    1        6.458  -8.557  -0.207  0.00  0.00    +0.050 A 
BRANCH  21  26
ATOM     26  O   LIG    1        5.964  -7.452   3.310  0.00  0.00    -0.491 OA
ATOM     27  C   LIG    1        4.733  -7.302   4.011  0.00  0.00    +0.277 C 
ENDBRANCH  21  26
BRANCH  20  28
ATOM     28  O   LIG    1        4.946  -6.953   0.251  0.00  0.00    -0.484 OA
BRANCH  28  29
ATOM     29  C   LIG    1        4.172  -6.043   0.989  0.00  0.00    +0.264 C 
BRANCH  29  33
ATOM     30  C   LIG    1       -0.104  -6.472   0.526  0.00  0.00    +0.120 A 
ATOM     31  C   LIG    1        0.692  -6.175  -0.582  0.00  0.00    +0.046 A 
ATOM     32  C   LIG    1        2.086  -6.089  -0.451  0.00  0.00    +0.010 A 
ATOM     33  C   LIG    1        2.696  -6.288   0.795  0.00  0.00    -0.010 A 
ATOM     34  C   LIG    1        1.892  -6.666   1.873  0.00  0.00    +0.010 A 
ATOM     35  C   LIG    1        0.510  -6.768   1.739  0.00  0.00    +0.046 A 
BRANCH  30  37
ATOM     36  C   LIG    1       -2.223  -6.174   1.511  0.00  0.00    +0.277 C 
ATOM     37  O   LIG    1       -1.461  -6.476   0.339  0.00  0.00    -0.495 OA
ENDBRANCH  30  37
ENDBRANCH  29  33
ENDBRANCH  28  29
ENDBRANCH  20  28
ENDBRANCH   1  23
TORSDOF 9
