REMARK  Name = pdb/CHEMBL3676033.pdb
REMARK                            x       y       z     vdW  Elec       q    Type
REMARK                         _______ _______ _______ _____ _____    ______ ____
ROOT
ATOM      1  C   LIG    1        0.974  -3.883  -3.489  0.00  0.00    +0.126 A 
ATOM      2  N   LIG    1        1.369  -2.632  -3.625  0.00  0.00    -0.212 NA
ATOM      3  C   LIG    1        1.241  -2.042  -4.862  0.00  0.00    +0.170 A 
ATOM      4  C   LIG    1        1.505  -0.760  -5.310  0.00  0.00    +0.100 A 
ATOM      5  C   LIG    1        1.221  -0.805  -6.693  0.00  0.00    +0.150 A 
ATOM      6  N   LIG    1        0.786  -1.998  -7.098  0.00  0.00    -0.173 NA
ATOM      7  N   LIG    1        0.771  -2.746  -5.971  0.00  0.00    -0.221 N 
ATOM      8  C   LIG    1        0.341  -4.052  -5.836  0.00  0.00    +0.118 A 
ATOM      9  C   LIG    1        0.384  -4.656  -4.644  0.00  0.00    +0.063 A 
ENDROOT
BRANCH   1  11
ATOM     10  C   LIG    1        0.279  -5.616  -1.769  0.00  0.00    +0.110 C 
ATOM     11  N   LIG    1        1.126  -4.505  -2.256  0.00  0.00    -0.308 N 
ATOM     12  C   LIG    1        1.827  -3.856  -1.141  0.00  0.00    +0.107 C 
ATOM     13  C   LIG    1        1.432  -4.653   0.100  0.00  0.00    +0.021 C 
ATOM     14  C   LIG    1        0.091  -5.254  -0.291  0.00  0.00    +0.029 C 
BRANCH  10  16
ATOM     15  C   LIG    1        0.162  -8.142  -2.166  0.00  0.00    +0.220 A 
ATOM     16  C   LIG    1        0.922  -6.973  -2.013  0.00  0.00    +0.037 A 
ATOM     17  C   LIG    1        2.316  -7.123  -2.125  0.00  0.00    +0.050 A 
ATOM     18  C   LIG    1        2.867  -8.353  -2.447  0.00  0.00    +0.142 A 
ATOM     19  F   LIG    1        4.194  -8.492  -2.550  0.00  0.00    -0.204 F 
ATOM     20  C   LIG    1        2.026  -9.419  -2.668  0.00  0.00    +0.153 A 
ATOM     21  N   LIG    1        0.685  -9.341  -2.525  0.00  0.00    -0.218 NA
BRANCH  15  23
ATOM     22  C   LIG    1       -1.859  -9.347  -2.009  0.00  0.00    +0.279 C 
ATOM     23  O   LIG    1       -1.191  -8.084  -1.896  0.00  0.00    -0.479 OA
ENDBRANCH  15  23
ENDBRANCH  10  16
ENDBRANCH   1  11
BRANCH   4  24
ATOM     24  C   LIG    1        1.955   0.392  -4.559  0.00  0.00    +0.249 C 
ATOM     25  N   LIG    1        2.090   0.180  -3.193  0.00  0.00    -0.308 N 
ATOM     26  H   LIG    1        2.102  -0.796  -2.903  0.00  0.00    +0.149 HD
ATOM     27  O   LIG    1        2.177   1.460  -5.101  0.00  0.00    -0.270 OA
BRANCH  25  28
ATOM     28  C   LIG    1        2.579   1.233  -2.311  0.00  0.00    +0.076 C 
ATOM     29  C   LIG    1        2.889   0.720  -0.894  0.00  0.00    +0.039 C 
ATOM     30  C   LIG    1        1.667   0.606   0.015  0.00  0.00    +0.111 C 
ATOM     31  N   LIG    1        0.890   1.867  -0.019  0.00  0.00    -0.181 NA
ATOM     32  C   LIG    1        0.418   2.181  -1.385  0.00  0.00    +0.111 C 
ATOM     33  C   LIG    1        1.621   2.434  -2.273  0.00  0.00    +0.039 C 
BRANCH  31  34
ATOM     34  S   LIG    1       -0.263   2.087   1.216  0.00  0.00    +0.029 S 
ATOM     35  C   LIG    1       -1.441   0.811   0.819  0.00  0.00    +0.215 C 
ATOM     36  O   LIG    1       -0.911   3.370   1.012  0.00  0.00    -0.158 OA
ATOM     37  O   LIG    1        0.357   1.753   2.476  0.00  0.00    -0.158 OA
ENDBRANCH  31  34
ENDBRANCH  25  28
ENDBRANCH   4  24
TORSDOF 6
