REMARK  Name = pdb/CHEMBL3937255.pdb
REMARK                            x       y       z     vdW  Elec       q    Type
REMARK                         _______ _______ _______ _____ _____    ______ ____
ROOT
ATOM      1  C   LIG    1        4.299  -0.181   1.397  0.00  0.00    +0.149 A 
ATOM      2  N   LIG    1        4.843  -0.151   2.627  0.00  0.00    -0.160 NA
ATOM      3  N   LIG    1        4.709   1.147   3.037  0.00  0.00    -0.218 N 
ATOM      4  C   LIG    1        4.242   1.959   1.999  0.00  0.00    +0.129 A 
ATOM      5  C   LIG    1        3.880   1.098   0.988  0.00  0.00    +0.078 A 
ENDROOT
BRANCH   3   6
ATOM      6  C   LIG    1        5.113   1.530   4.351  0.00  0.00    +0.067 A 
ATOM      7  C   LIG    1        4.541   2.630   5.008  0.00  0.00    +0.028 A 
ATOM      8  C   LIG    1        4.980   2.985   6.290  0.00  0.00    +0.002 A 
ATOM      9  C   LIG    1        5.978   2.246   6.924  0.00  0.00    +0.000 A 
ATOM     10  C   LIG    1        6.537   1.143   6.283  0.00  0.00    +0.002 A 
ATOM     11  C   LIG    1        6.103   0.779   5.005  0.00  0.00    +0.028 A 
ENDBRANCH   3   6
BRANCH   4  12
ATOM     12  N   LIG    1        4.238   3.357   1.922  0.00  0.00    -0.266 N 
ATOM     13  H   LIG    1        4.533   3.870   2.753  0.00  0.00    +0.157 HD
ATOM     14  C   LIG    1        4.011   4.089   0.707  0.00  0.00    +0.251 C 
ATOM     15  O   LIG    1        3.850   3.521  -0.367  0.00  0.00    -0.270 OA
BRANCH  14  16
ATOM     16  C   LIG    1        3.949   5.553   0.784  0.00  0.00    +0.056 A 
ATOM     17  C   LIG    1        4.763   6.296   1.639  0.00  0.00    +0.054 A 
ATOM     18 CL   LIG    1        5.978   5.588   2.639  0.00  0.00    -0.083 Cl
ATOM     19  C   LIG    1        4.618   7.675   1.683  0.00  0.00    +0.041 A 
ATOM     20  C   LIG    1        3.678   8.334   0.870  0.00  0.00    +0.052 A 
ATOM     21 CL   LIG    1        3.552  10.038   1.166  0.00  0.00    -0.083 Cl
ATOM     22  C   LIG    1        2.879   7.630  -0.063  0.00  0.00    +0.022 A 
ATOM     23  C   LIG    1        3.043   6.224  -0.071  0.00  0.00    +0.026 A 
BRANCH  22  24
ATOM     24  C   LIG    1        1.938   8.295  -1.013  0.00  0.00    +0.107 A 
ATOM     25  C   LIG    1        0.776   7.703  -1.520  0.00  0.00    +0.149 A 
ATOM     26  F   LIG    1        0.397   6.470  -1.151  0.00  0.00    -0.203 F 
ATOM     27  C   LIG    1       -0.030   8.396  -2.422  0.00  0.00    +0.042 A 
ATOM     28  C   LIG    1        0.315   9.689  -2.788  0.00  0.00    +0.023 A 
ATOM     29  C   LIG    1        1.472  10.221  -2.253  0.00  0.00    +0.111 A 
ATOM     30  N   LIG    1        2.290   9.546  -1.411  0.00  0.00    -0.252 NA
ENDBRANCH  22  24
ENDBRANCH  14  16
ENDBRANCH   4  12
BRANCH   1  31
ATOM     31  C   LIG    1        4.240  -1.416   0.619  0.00  0.00    +0.236 C 
ATOM     32  N   LIG    1        3.783  -1.417  -0.582  0.00  0.00    -0.243 NA
BRANCH  31  33
ATOM     33  O   LIG    1        4.715  -2.506   1.258  0.00  0.00    -0.491 OA
ATOM     34  H   LIG    1        4.992  -2.248   2.158  0.00  0.00    +0.294 HD
ENDBRANCH  31  33
BRANCH  32  35
ATOM     35  C   LIG    1        3.795  -2.713  -1.284  0.00  0.00    +0.202 C 
BRANCH  35  36
ATOM     36  C   LIG    1        2.693  -2.850  -2.314  0.00  0.00    +0.081 A 
ATOM     37  N   LIG    1        2.151  -4.084  -2.511  0.00  0.00    -0.255 NA
ATOM     38  C   LIG    1        1.172  -4.162  -3.443  0.00  0.00    +0.131 A 
ATOM     39  C   LIG    1        0.744  -3.062  -4.165  0.00  0.00    +0.130 A 
ATOM     40  N   LIG    1        1.286  -1.836  -4.001  0.00  0.00    -0.260 NA
ATOM     41  C   LIG    1        2.269  -1.760  -3.068  0.00  0.00    +0.135 A 
ENDBRANCH  35  36
ENDBRANCH  32  35
ENDBRANCH   1  31
TORSDOF 8
