REMARK  Name = pdb/CHEMBL3902802.pdb
REMARK                            x       y       z     vdW  Elec       q    Type
REMARK                         _______ _______ _______ _____ _____    ______ ____
ROOT
ATOM      1  C   LIG    1        8.837  -0.032  -3.882  0.00  0.00    +0.100 A 
ATOM      2  C   LIG    1        9.868   0.890  -3.971  0.00  0.00    +0.170 A 
ATOM      3  N   LIG    1        9.869   2.265  -3.938  0.00  0.00    -0.212 NA
ATOM      4  C   LIG    1       11.036   2.880  -3.947  0.00  0.00    +0.126 A 
ATOM      5  C   LIG    1       12.339   2.112  -4.018  0.00  0.00    +0.063 A 
ATOM      6  C   LIG    1       12.271   0.778  -4.093  0.00  0.00    +0.118 A 
ATOM      7  N   LIG    1       11.045   0.146  -4.074  0.00  0.00    -0.221 N 
ATOM      8  N   LIG    1       10.804  -1.183  -4.124  0.00  0.00    -0.173 NA
ATOM      9  C   LIG    1        9.477  -1.282  -3.992  0.00  0.00    +0.150 A 
ENDROOT
BRANCH   4  10
ATOM     10  N   LIG    1       11.077   4.267  -3.889  0.00  0.00    -0.308 N 
ATOM     11  C   LIG    1       12.238   5.020  -3.395  0.00  0.00    +0.107 C 
ATOM     12  C   LIG    1       11.617   6.230  -2.691  0.00  0.00    +0.029 C 
ATOM     13  C   LIG    1       10.363   6.500  -3.503  0.00  0.00    +0.021 C 
ATOM     14  C   LIG    1        9.865   5.094  -3.834  0.00  0.00    +0.107 C 
BRANCH  11  15
ATOM     15  C   LIG    1       13.185   5.414  -4.508  0.00  0.00    -0.006 A 
ATOM     16  C   LIG    1       12.779   5.636  -5.831  0.00  0.00    +0.046 A 
ATOM     17  C   LIG    1       13.711   6.032  -6.779  0.00  0.00    +0.142 A 
ATOM     18  F   LIG    1       13.333   6.262  -8.042  0.00  0.00    -0.204 F 
ATOM     19  C   LIG    1       15.030   6.189  -6.397  0.00  0.00    +0.149 A 
ATOM     20  N   LIG    1       15.470   5.977  -5.135  0.00  0.00    -0.260 NA
ATOM     21  C   LIG    1       14.540   5.600  -4.225  0.00  0.00    +0.116 A 
ENDBRANCH  11  15
ENDBRANCH   4  10
BRANCH   1  23
ATOM     22  N   LIG    1        6.575  -0.705  -3.619  0.00  0.00    -0.247 NA
ATOM     23  C   LIG    1        7.427   0.247  -3.702  0.00  0.00    +0.221 C 
BRANCH  22  27
ATOM     24  C   LIG    1        3.885  -2.641  -4.818  0.00  0.00    +0.115 C 
ATOM     25  C   LIG    1        4.354  -2.762  -3.369  0.00  0.00    +0.033 C 
ATOM     26  C   LIG    1        4.451  -1.439  -2.611  0.00  0.00    +0.029 C 
ATOM     27  C   LIG    1        5.163  -0.334  -3.397  0.00  0.00    +0.109 C 
ATOM     28  C   LIG    1        4.436  -0.119  -4.723  0.00  0.00    +0.029 C 
ATOM     29  C   LIG    1        4.325  -1.385  -5.572  0.00  0.00    +0.033 C 
BRANCH  24  30
ATOM     30  O   LIG    1        2.458  -2.719  -4.846  0.00  0.00    -0.392 OA
ATOM     31  H   LIG    1        2.210  -2.932  -5.764  0.00  0.00    +0.210 HD
ENDBRANCH  24  30
ENDBRANCH  22  27
BRANCH  23  32
ATOM     32  O   LIG    1        7.094   1.561  -3.623  0.00  0.00    -0.492 OA
ATOM     33  H   LIG    1        7.887   2.124  -3.716  0.00  0.00    +0.294 HD
ENDBRANCH  23  32
ENDBRANCH   1  23
TORSDOF 6
