REMARK  Name = pdb/CHEMBL3904853.pdb
REMARK                            x       y       z     vdW  Elec       q    Type
REMARK                         _______ _______ _______ _____ _____    ______ ____
ROOT
ATOM      1  C   LIG    1        2.693  -1.723  -2.997  0.00  0.00    +0.149 A 
ATOM      2  N   LIG    1        2.984  -1.454  -4.282  0.00  0.00    -0.160 NA
ATOM      3  N   LIG    1        4.070  -0.617  -4.225  0.00  0.00    -0.218 N 
ATOM      4  C   LIG    1        4.379  -0.265  -2.900  0.00  0.00    +0.129 A 
ATOM      5  C   LIG    1        3.535  -1.014  -2.118  0.00  0.00    +0.078 A 
ENDROOT
BRANCH   3   6
ATOM      6  C   LIG    1        4.710  -0.216  -5.436  0.00  0.00    +0.067 A 
ATOM      7  C   LIG    1        3.989  -0.216  -6.642  0.00  0.00    +0.028 A 
ATOM      8  C   LIG    1        4.628   0.094  -7.849  0.00  0.00    +0.002 A 
ATOM      9  C   LIG    1        5.990   0.381  -7.868  0.00  0.00    +0.000 A 
ATOM     10  C   LIG    1        6.708   0.399  -6.676  0.00  0.00    +0.002 A 
ATOM     11  C   LIG    1        6.071   0.109  -5.466  0.00  0.00    +0.028 A 
ENDBRANCH   3   6
BRANCH   4  12
ATOM     12  N   LIG    1        5.286   0.703  -2.442  0.00  0.00    -0.266 N 
ATOM     13  H   LIG    1        5.927   1.109  -3.110  0.00  0.00    +0.157 HD
ATOM     14  C   LIG    1        5.261   1.254  -1.107  0.00  0.00    +0.251 C 
ATOM     15  O   LIG    1        4.479   0.838  -0.286  0.00  0.00    -0.270 OA
BRANCH  14  16
ATOM     16  C   LIG    1        6.167   2.405  -0.788  0.00  0.00    +0.056 A 
ATOM     17  C   LIG    1        7.067   3.023  -1.664  0.00  0.00    +0.056 A 
ATOM     18 CL   LIG    1        7.379   2.500  -3.274  0.00  0.00    -0.083 Cl
ATOM     19  C   LIG    1        7.798   4.140  -1.253  0.00  0.00    +0.059 A 
ATOM     20  C   LIG    1        7.650   4.643   0.035  0.00  0.00    +0.134 A 
ATOM     21  F   LIG    1        8.393   5.710   0.362  0.00  0.00    -0.205 F 
ATOM     22  C   LIG    1        6.780   4.060   0.958  0.00  0.00    +0.036 A 
ATOM     23  C   LIG    1        6.042   2.937   0.514  0.00  0.00    +0.027 A 
BRANCH  22  24
ATOM     24  C   LIG    1        6.618   4.564   2.333  0.00  0.00    +0.074 A 
ATOM     25  N   LIG    1        6.255   3.629   3.249  0.00  0.00    -0.255 NA
ATOM     26  C   LIG    1        6.066   4.033   4.526  0.00  0.00    +0.111 A 
ATOM     27  C   LIG    1        6.211   5.342   4.948  0.00  0.00    +0.020 A 
ATOM     28  C   LIG    1        6.582   6.292   4.008  0.00  0.00    +0.004 A 
ATOM     29  C   LIG    1        6.789   5.901   2.687  0.00  0.00    +0.028 A 
ENDBRANCH  22  24
ENDBRANCH  14  16
ENDBRANCH   4  12
BRANCH   1  30
ATOM     30  C   LIG    1        1.595  -2.604  -2.609  0.00  0.00    +0.236 C 
ATOM     31  N   LIG    1        1.313  -2.748  -1.368  0.00  0.00    -0.245 NA
BRANCH  30  32
ATOM     32  O   LIG    1        0.930  -3.203  -3.620  0.00  0.00    -0.491 OA
ATOM     33  H   LIG    1        1.336  -2.935  -4.467  0.00  0.00    +0.294 HD
ENDBRANCH  30  32
BRANCH  31  34
ATOM     34  C   LIG    1        0.161  -3.576  -1.023  0.00  0.00    +0.180 C 
BRANCH  34  35
ATOM     35  C   LIG    1        0.021  -3.585   0.482  0.00  0.00    -0.002 C 
ATOM     36  C   LIG    1       -0.168  -2.304   1.173  0.00  0.00    +0.013 C 
ATOM     37  C   LIG    1       -0.223  -2.209   2.514  0.00  0.00    +0.096 C 
ATOM     38  C   LIG    1       -0.114  -3.475   3.294  0.00  0.00    +0.294 C 
ATOM     39  N   LIG    1        0.000  -4.662   2.611  0.00  0.00    -0.225 N 
ATOM     40  H   LIG    1        0.097  -5.531   3.115  0.00  0.00    +0.292 HD
ATOM     41  C   LIG    1        0.083  -4.701   1.237  0.00  0.00    +0.240 C 
BRANCH  38  42
ATOM     42  N   LIG    1       -0.131  -3.400   4.587  0.00  0.00    -0.071 NA
ATOM     43  H   LIG    1       -0.048  -4.337   4.985  0.00  0.00    +0.348 HD
ENDBRANCH  38  42
ENDBRANCH  34  35
ENDBRANCH  31  34
ENDBRANCH   1  30
TORSDOF 9
