REMARK  Name = pdb/CHEMBL3671136.pdb
REMARK                            x       y       z     vdW  Elec       q    Type
REMARK                         _______ _______ _______ _____ _____    ______ ____
ROOT
ATOM      1  C   LIG    1        4.841   2.942  -3.442  0.00  0.00    +0.100 A 
ATOM      2  C   LIG    1        4.519   4.247  -3.764  0.00  0.00    +0.170 A 
ATOM      3  N   LIG    1        4.083   5.303  -3.000  0.00  0.00    -0.212 NA
ATOM      4  C   LIG    1        3.739   6.415  -3.614  0.00  0.00    +0.126 A 
ATOM      5  C   LIG    1        3.870   6.566  -5.117  0.00  0.00    +0.063 A 
ATOM      6  C   LIG    1        4.333   5.520  -5.808  0.00  0.00    +0.118 A 
ATOM      7  N   LIG    1        4.663   4.349  -5.150  0.00  0.00    -0.221 N 
ATOM      8  N   LIG    1        5.111   3.199  -5.705  0.00  0.00    -0.173 NA
ATOM      9  C   LIG    1        5.194   2.355  -4.675  0.00  0.00    +0.150 A 
ENDROOT
BRANCH   4  10
ATOM     10  N   LIG    1        3.226   7.484  -2.885  0.00  0.00    -0.308 N 
ATOM     11  C   LIG    1        3.104   7.461  -1.409  0.00  0.00    +0.108 C 
ATOM     12  C   LIG    1        1.617   7.796  -1.207  0.00  0.00    +0.029 C 
ATOM     13  C   LIG    1        1.336   8.829  -2.287  0.00  0.00    +0.021 C 
ATOM     14  C   LIG    1        2.181   8.350  -3.462  0.00  0.00    +0.107 C 
BRANCH  11  15
ATOM     15  C   LIG    1        4.050   8.468  -0.758  0.00  0.00    +0.011 A 
ATOM     16  C   LIG    1        4.498   8.289   0.561  0.00  0.00    +0.129 A 
ATOM     17  F   LIG    1        4.092   7.226   1.269  0.00  0.00    -0.205 F 
ATOM     18  C   LIG    1        5.372   9.198   1.175  0.00  0.00    +0.041 A 
ATOM     19  C   LIG    1        5.808  10.324   0.480  0.00  0.00    +0.041 A 
ATOM     20  C   LIG    1        5.366  10.523  -0.818  0.00  0.00    +0.124 A 
ATOM     21  F   LIG    1        5.768  11.602  -1.501  0.00  0.00    -0.205 F 
ATOM     22  C   LIG    1        4.506   9.615  -1.431  0.00  0.00    +0.046 A 
ENDBRANCH  11  15
ENDBRANCH   4  10
BRANCH   1  25
ATOM     23  N   LIG    1        4.461   3.064  -1.079  0.00  0.00    -0.304 N 
ATOM     24  H   LIG    1        4.177   4.016  -1.298  0.00  0.00    +0.150 HD
ATOM     25  C   LIG    1        4.827   2.274  -2.151  0.00  0.00    +0.250 C 
ATOM     26  O   LIG    1        5.131   1.100  -2.042  0.00  0.00    -0.270 OA
BRANCH  23  28
ATOM     27  C   LIG    1        3.333   1.484   0.471  0.00  0.00    +0.033 C 
ATOM     28  C   LIG    1        4.385   2.599   0.320  0.00  0.00    +0.052 C 
ATOM     29  C   LIG    1        3.950   3.784   1.205  0.00  0.00    +0.033 C 
BRANCH  28  30
ATOM     30  C   LIG    1        5.757   2.069   0.821  0.00  0.00    +0.181 C 
BRANCH  30  31
ATOM     31  O   LIG    1        6.776   3.062   0.705  0.00  0.00    -0.393 OA
ATOM     32  H   LIG    1        6.872   3.236  -0.249  0.00  0.00    +0.209 HD
ENDBRANCH  30  31
ENDBRANCH  28  30
ENDBRANCH  23  28
ENDBRANCH   1  25
TORSDOF 6
