REMARK  Name = pdb/CHEMBL3675915.pdb
REMARK                            x       y       z     vdW  Elec       q    Type
REMARK                         _______ _______ _______ _____ _____    ______ ____
ROOT
ATOM      1  C   LIG    1        2.753  -4.473  -0.883  0.00  0.00    +0.126 A 
ATOM      2  N   LIG    1        2.241  -3.390  -1.438  0.00  0.00    -0.212 NA
ATOM      3  C   LIG    1        1.139  -3.535  -2.252  0.00  0.00    +0.170 A 
ATOM      4  C   LIG    1        0.353  -2.629  -2.946  0.00  0.00    +0.100 A 
ATOM      5  C   LIG    1       -0.616  -3.424  -3.597  0.00  0.00    +0.150 A 
ATOM      6  N   LIG    1       -0.481  -4.724  -3.350  0.00  0.00    -0.173 NA
ATOM      7  N   LIG    1        0.579  -4.790  -2.515  0.00  0.00    -0.221 N 
ATOM      8  C   LIG    1        1.101  -5.929  -1.938  0.00  0.00    +0.118 A 
ATOM      9  C   LIG    1        2.154  -5.844  -1.122  0.00  0.00    +0.063 A 
ENDROOT
BRANCH   1  11
ATOM     10  C   LIG    1        4.539  -3.103   0.270  0.00  0.00    +0.105 C 
ATOM     11  N   LIG    1        3.864  -4.374  -0.053  0.00  0.00    -0.308 N 
ATOM     12  C   LIG    1        4.703  -5.501   0.342  0.00  0.00    +0.107 C 
ATOM     13  C   LIG    1        6.107  -4.925   0.360  0.00  0.00    +0.021 C 
ATOM     14  C   LIG    1        5.880  -3.528   0.905  0.00  0.00    +0.029 C 
BRANCH  10  18
ATOM     15  F   LIG    1        1.252  -2.465   3.869  0.00  0.00    -0.205 F 
ATOM     16  C   LIG    1        2.119  -1.930   2.999  0.00  0.00    +0.124 A 
ATOM     17  C   LIG    1        2.842  -2.766   2.154  0.00  0.00    +0.043 A 
ATOM     18  C   LIG    1        3.744  -2.228   1.222  0.00  0.00    -0.024 A 
ATOM     19  C   LIG    1        3.923  -0.834   1.203  0.00  0.00    +0.005 A 
ATOM     20  C   LIG    1        3.192  -0.001   2.058  0.00  0.00    +0.003 A 
ATOM     21  C   LIG    1        2.281  -0.552   2.955  0.00  0.00    +0.038 A 
ENDBRANCH  10  18
ENDBRANCH   1  11
BRANCH   4  22
ATOM     22  C   LIG    1        0.430  -1.186  -3.037  0.00  0.00    +0.249 C 
ATOM     23  N   LIG    1        1.460  -0.592  -2.336  0.00  0.00    -0.308 N 
ATOM     24  H   LIG    1        2.074  -1.201  -1.799  0.00  0.00    +0.149 HD
ATOM     25  O   LIG    1       -0.378  -0.550  -3.705  0.00  0.00    -0.270 OA
BRANCH  23  26
ATOM     26  C   LIG    1        1.643   0.825  -2.326  0.00  0.00    +0.073 C 
ATOM     27  C   LIG    1        2.877   1.451  -1.742  0.00  0.00    +0.024 C 
ATOM     28  C   LIG    1        1.559   1.599  -1.040  0.00  0.00    +0.024 C 
ENDBRANCH  23  26
ENDBRANCH   4  22
TORSDOF 4
