REMARK  Name = pdb/CHEMBL1970083.pdb
REMARK                            x       y       z     vdW  Elec       q    Type
REMARK                         _______ _______ _______ _____ _____    ______ ____
ROOT
ATOM      1  C   LIG    1        1.500  -3.463  -0.004  0.00  0.00    -0.017 A 
ATOM      2  C   LIG    1        0.286  -3.400  -0.689  0.00  0.00    +0.010 A 
ATOM      3  C   LIG    1       -0.731  -4.332  -0.423  0.00  0.00    +0.024 A 
ATOM      4  C   LIG    1       -0.548  -5.358   0.512  0.00  0.00    +0.035 A 
ATOM      5  C   LIG    1        0.692  -5.485   1.124  0.00  0.00    +0.024 A 
ATOM      6  C   LIG    1        1.687  -4.535   0.890  0.00  0.00    +0.010 A 
ENDROOT
BRANCH   1   9
ATOM      7  C   LIG    1        1.554  -0.122  -0.730  0.00  0.00    +0.125 A 
ATOM      8  C   LIG    1        2.602  -1.069  -0.565  0.00  0.00    +0.037 A 
ATOM      9  C   LIG    1        2.598  -2.505  -0.228  0.00  0.00    +0.000 A 
ATOM     10  C   LIG    1        3.885  -2.997  -0.151  0.00  0.00    +0.055 A 
ATOM     11  S   LIG    1        5.067  -1.820  -0.320  0.00  0.00    -0.095 S 
ATOM     12  C   LIG    1        3.925  -0.588  -0.739  0.00  0.00    +0.032 A 
ATOM     13  C   LIG    1        4.222   0.743  -1.148  0.00  0.00    +0.015 A 
ATOM     14  C   LIG    1        3.081   1.501  -1.394  0.00  0.00    +0.122 A 
ATOM     15  N   LIG    1        1.811   1.116  -1.186  0.00  0.00    -0.239 NA
BRANCH  13  16
ATOM     16  C   LIG    1        5.583   1.327  -1.286  0.00  0.00    -0.012 A 
ATOM     17  C   LIG    1        6.700   0.594  -1.712  0.00  0.00    +0.028 A 
ATOM     18  C   LIG    1        7.948   1.198  -1.782  0.00  0.00    +0.111 A 
ATOM     19  N   LIG    1        8.171   2.494  -1.503  0.00  0.00    -0.263 NA
ATOM     20  C   LIG    1        7.097   3.212  -1.128  0.00  0.00    +0.111 A 
ATOM     21  C   LIG    1        5.818   2.684  -1.000  0.00  0.00    +0.028 A 
ENDBRANCH  13  16
BRANCH   7  22
ATOM     22  N   LIG    1        0.213  -0.311  -0.402  0.00  0.00    -0.343 N 
ATOM     23  H   LIG    1        0.127  -0.597   0.568  0.00  0.00    +0.144 HD
ATOM     24  H   LIG    1       -0.241   0.586  -0.568  0.00  0.00    +0.144 HD
ENDBRANCH   7  22
ENDBRANCH   1   9
BRANCH   4  25
ATOM     25  N   LIG    1       -1.652  -6.177   0.819  0.00  0.00    -0.269 N 
ATOM     26  H   LIG    1       -2.536  -5.868   0.438  0.00  0.00    +0.156 HD
ATOM     27  C   LIG    1       -1.706  -7.206   1.741  0.00  0.00    +0.308 C 
ATOM     28  N   LIG    1       -2.972  -7.764   1.787  0.00  0.00    -0.267 N 
ATOM     29  H   LIG    1       -3.657  -7.428   1.121  0.00  0.00    +0.156 HD
ATOM     30  O   LIG    1       -0.752  -7.582   2.432  0.00  0.00    -0.252 OA
BRANCH  28  31
ATOM     31  C   LIG    1       -3.410  -8.823   2.616  0.00  0.00    +0.071 A 
ATOM     32  C   LIG    1       -4.731  -9.262   2.502  0.00  0.00    +0.145 A 
ATOM     33  F   LIG    1       -5.561  -8.652   1.639  0.00  0.00    -0.204 F 
ATOM     34  C   LIG    1       -5.217 -10.317   3.276  0.00  0.00    +0.041 A 
ATOM     35  C   LIG    1       -4.367 -10.966   4.178  0.00  0.00    +0.015 A 
ATOM     36  C   LIG    1       -3.038 -10.540   4.318  0.00  0.00    +0.057 A 
ATOM     37  C   LIG    1       -2.585  -9.457   3.545  0.00  0.00    +0.038 A 
BRANCH  36  38
ATOM     38  C   LIG    1       -2.071 -11.202   5.275  0.00  0.00    +0.417 C 
ATOM     39  F   LIG    1       -1.861 -12.515   4.985  0.00  0.00    -0.166 F 
ATOM     40  F   LIG    1       -2.504 -11.163   6.564  0.00  0.00    -0.166 F 
ATOM     41  F   LIG    1       -0.836 -10.626   5.283  0.00  0.00    -0.166 F 
ENDBRANCH  36  38
ENDBRANCH  28  31
ENDBRANCH   4  25
TORSDOF 6
