REMARK  Name = pdb/CHEMBL3982301.pdb
REMARK                            x       y       z     vdW  Elec       q    Type
REMARK                         _______ _______ _______ _____ _____    ______ ____
ROOT
ATOM      1  C   LIG    1        7.464  -5.130  -5.006  0.00  0.00    +0.323 A 
ATOM      2  N   LIG    1        7.211  -5.238  -3.704  0.00  0.00    -0.201 NA
ATOM      3  C   LIG    1        6.422  -6.269  -3.350  0.00  0.00    +0.145 A 
ATOM      4  C   LIG    1        5.886  -7.237  -4.177  0.00  0.00    +0.105 A 
ATOM      5  C   LIG    1        6.232  -7.020  -5.492  0.00  0.00    +0.145 A 
ATOM      6  N   LIG    1        7.012  -5.987  -5.944  0.00  0.00    -0.201 NA
ENDROOT
BRANCH   4   7
ATOM      7  N   LIG    1        5.043  -8.295  -3.716  0.00  0.00    -0.196 NA
ATOM      8  C   LIG    1        5.340  -8.867  -2.614  0.00  0.00    +0.285 C 
BRANCH   8   9
ATOM      9  N   LIG    1        4.564  -9.793  -1.934  0.00  0.00    -0.269 N 
ATOM     10  H   LIG    1        3.751 -10.101  -2.453  0.00  0.00    +0.157 HD
BRANCH   9  11
ATOM     11  C   LIG    1        4.593 -10.219  -0.583  0.00  0.00    +0.043 A 
ATOM     12  C   LIG    1        4.937  -9.417   0.553  0.00  0.00    +0.003 A 
ATOM     13  C   LIG    1        4.994 -10.082   1.803  0.00  0.00    +0.011 A 
ATOM     14  C   LIG    1        4.670 -11.433   1.968  0.00  0.00    +0.013 A 
ATOM     15  C   LIG    1        4.305 -12.209   0.870  0.00  0.00    +0.057 A 
ATOM     16  C   LIG    1        4.314 -11.603  -0.397  0.00  0.00    +0.036 A 
BRANCH  12  17
ATOM     17  C   LIG    1        5.229  -7.937   0.541  0.00  0.00    -0.016 A 
ATOM     18  C   LIG    1        6.196  -7.369   1.403  0.00  0.00    +0.012 A 
ATOM     19  C   LIG    1        6.544  -6.003   1.358  0.00  0.00    -0.050 A 
ATOM     20  C   LIG    1        7.488  -5.429   2.371  0.00  0.00    +0.044 C 
ATOM     21  C   LIG    1        5.967  -5.179   0.397  0.00  0.00    +0.003 A 
ATOM     22  C   LIG    1        4.993  -5.695  -0.443  0.00  0.00    +0.001 A 
ATOM     23  C   LIG    1        4.614  -7.043  -0.353  0.00  0.00    +0.008 A 
ENDBRANCH  12  17
BRANCH  15  24
ATOM     24  C   LIG    1        3.835 -13.635   1.057  0.00  0.00    +0.417 C 
ATOM     25  F   LIG    1        2.710 -13.697   1.823  0.00  0.00    -0.166 F 
ATOM     26  F   LIG    1        4.750 -14.436   1.669  0.00  0.00    -0.166 F 
ATOM     27  F   LIG    1        3.519 -14.257  -0.113  0.00  0.00    -0.166 F 
ENDBRANCH  15  24
ENDBRANCH   9  11
ENDBRANCH   8   9
BRANCH   8  28
ATOM     28  O   LIG    1        6.511  -8.603  -1.992  0.00  0.00    -0.481 OA
ATOM     29  H   LIG    1        6.547  -8.973  -1.113  0.00  0.00    +0.295 HD
ENDBRANCH   8  28
ENDBRANCH   4   7
BRANCH   1  30
ATOM     30  O   LIG    1        8.324  -4.112  -5.418  0.00  0.00    -0.424 OA
BRANCH  30  34
ATOM     31  C   LIG    1        8.458  -0.499  -3.267  0.00  0.00    -0.013 A 
ATOM     32  C   LIG    1        9.605  -1.044  -3.858  0.00  0.00    +0.012 A 
ATOM     33  C   LIG    1        9.557  -2.265  -4.544  0.00  0.00    +0.047 A 
ATOM     34  C   LIG    1        8.349  -2.958  -4.653  0.00  0.00    +0.132 A 
ATOM     35  C   LIG    1        7.203  -2.418  -4.059  0.00  0.00    +0.047 A 
ATOM     36  C   LIG    1        7.259  -1.215  -3.352  0.00  0.00    +0.012 A 
BRANCH  31  40
ATOM     37  C   LIG    1       11.008   3.152  -3.816  0.00  0.00    +0.125 A 
ATOM     38  N   LIG    1       10.339   2.017  -3.802  0.00  0.00    -0.213 NA
ATOM     39  C   LIG    1        9.351   1.836  -2.860  0.00  0.00    +0.165 A 
ATOM     40  C   LIG    1        8.502   0.777  -2.571  0.00  0.00    +0.046 A 
ATOM     41  C   LIG    1        7.721   1.234  -1.487  0.00  0.00    +0.145 A 
ATOM     42  N   LIG    1        8.030   2.470  -1.101  0.00  0.00    -0.173 NA
ATOM     43  N   LIG    1        9.028   2.835  -1.941  0.00  0.00    -0.221 N 
ATOM     44  C   LIG    1        9.703   4.040  -1.952  0.00  0.00    +0.118 A 
ATOM     45  C   LIG    1       10.677   4.259  -2.839  0.00  0.00    +0.063 A 
BRANCH  37  47
ATOM     46  C   LIG    1       13.170   4.211  -4.454  0.00  0.00    +0.130 C 
ATOM     47  N   LIG    1       12.033   3.346  -4.754  0.00  0.00    -0.321 N 
ATOM     48  C   LIG    1       12.338   2.285  -5.719  0.00  0.00    +0.130 C 
ENDBRANCH  37  47
ENDBRANCH  31  40
ENDBRANCH  30  34
ENDBRANCH   1  30
TORSDOF 10
