REMARK  Name = pdb/CHEMBL251796.pdb
REMARK                            x       y       z     vdW  Elec       q    Type
REMARK                         _______ _______ _______ _____ _____    ______ ____
ROOT
ATOM      1  C   LIG    1       12.555   0.376  -3.777  0.00  0.00    +0.041 A 
ATOM      2  C   LIG    1       13.374   1.144  -4.642  0.00  0.00    -0.038 A 
ATOM      3  C   LIG    1       14.350   0.549  -5.624  0.00  0.00    +0.044 C 
ATOM      4  C   LIG    1       13.274   2.551  -4.591  0.00  0.00    +0.005 A 
ATOM      5  C   LIG    1       12.382   3.185  -3.721  0.00  0.00    +0.015 A 
ATOM      6  C   LIG    1       11.571   2.423  -2.884  0.00  0.00    +0.014 A 
ATOM      7  C   LIG    1       11.650   1.031  -2.940  0.00  0.00    +0.028 A 
ENDROOT
BRANCH   1  13
ATOM      8  C   LIG    1       15.786  -3.542  -1.268  0.00  0.00    +0.232 C 
ATOM      9  N   LIG    1       14.445  -3.177  -1.503  0.00  0.00    -0.297 N 
ATOM     10  C   LIG    1       14.118  -1.794  -1.118  0.00  0.00    +0.127 C 
ATOM     11  C   LIG    1       12.637  -1.446  -1.270  0.00  0.00    +0.127 C 
ATOM     12  N   LIG    1       12.189  -1.836  -2.613  0.00  0.00    -0.295 N 
ATOM     13  C   LIG    1       12.525  -1.125  -3.797  0.00  0.00    +0.247 C 
ATOM     14  O   LIG    1       12.741  -1.698  -4.844  0.00  0.00    -0.270 OA
ATOM     15  C   LIG    1       12.209  -3.288  -2.738  0.00  0.00    +0.127 C 
ATOM     16  C   LIG    1       13.647  -3.803  -2.582  0.00  0.00    +0.127 C 
ATOM     17  O   LIG    1       16.443  -2.996  -0.370  0.00  0.00    -0.274 OA
BRANCH   8  19
ATOM     18  C   LIG    1       17.907  -4.383  -2.388  0.00  0.00    +0.033 C 
ATOM     19  C   LIG    1       16.407  -4.606  -2.208  0.00  0.00    +0.135 C 
BRANCH  19  20
ATOM     20  N   LIG    1       16.148  -5.968  -1.718  0.00  0.00    -0.320 NA
ATOM     21  H   LIG    1       15.149  -6.155  -1.724  0.00  0.00    +0.119 HD
ATOM     22  H   LIG    1       16.575  -6.641  -2.352  0.00  0.00    +0.119 HD
ENDBRANCH  19  20
ENDBRANCH   8  19
ENDBRANCH   1  13
BRANCH   6  23
ATOM     23  S   LIG    1       10.453   3.173  -1.706  0.00  0.00    -0.081 S 
BRANCH  23  24
ATOM     24  C   LIG    1       11.233   2.584  -0.242  0.00  0.00    +0.071 A 
ATOM     25  S   LIG    1       12.874   2.896   0.120  0.00  0.00    -0.045 S 
ATOM     26  C   LIG    1       12.759   1.961   1.568  0.00  0.00    +0.164 A 
ATOM     27  N   LIG    1       11.547   1.504   1.807  0.00  0.00    -0.232 NA
ATOM     28  C   LIG    1       10.682   1.832   0.773  0.00  0.00    +0.135 A 
BRANCH  26  29
ATOM     29  N   LIG    1       13.788   1.775   2.427  0.00  0.00    -0.279 N 
ATOM     30  H   LIG    1       13.574   1.846   3.416  0.00  0.00    +0.155 HD
BRANCH  29  31
ATOM     31  C   LIG    1       15.164   1.862   2.197  0.00  0.00    +0.126 A 
ATOM     32  N   LIG    1       15.926   2.332   3.207  0.00  0.00    -0.225 NA
ATOM     33  C   LIG    1       17.269   2.375   3.023  0.00  0.00    +0.108 A 
ATOM     34 BR   LIG    1       18.327   3.115   4.414  0.00  0.00    -0.029 Br
ATOM     35  C   LIG    1       17.910   1.919   1.883  0.00  0.00    +0.035 A 
ATOM     36  C   LIG    1       17.124   1.413   0.860  0.00  0.00    +0.006 A 
ATOM     37  C   LIG    1       15.740   1.408   1.009  0.00  0.00    +0.044 A 
ENDBRANCH  29  31
ENDBRANCH  26  29
ENDBRANCH  23  24
ENDBRANCH   6  23
TORSDOF 7
