REMARK  Name = pdb/CHEMBL3675980.pdb
REMARK                            x       y       z     vdW  Elec       q    Type
REMARK                         _______ _______ _______ _____ _____    ______ ____
ROOT
ATOM      1  C   LIG    1        3.295  -4.712  -0.967  0.00  0.00    +0.126 A 
ATOM      2  N   LIG    1        2.901  -3.617  -1.589  0.00  0.00    -0.212 NA
ATOM      3  C   LIG    1        2.162  -3.753  -2.743  0.00  0.00    +0.170 A 
ATOM      4  C   LIG    1        1.611  -2.828  -3.620  0.00  0.00    +0.100 A 
ATOM      5  C   LIG    1        0.991  -3.612  -4.617  0.00  0.00    +0.150 A 
ATOM      6  N   LIG    1        1.116  -4.921  -4.411  0.00  0.00    -0.173 NA
ATOM      7  N   LIG    1        1.829  -5.006  -3.265  0.00  0.00    -0.221 N 
ATOM      8  C   LIG    1        2.229  -6.161  -2.622  0.00  0.00    +0.118 A 
ATOM      9  C   LIG    1        2.933  -6.087  -1.490  0.00  0.00    +0.063 A 
ENDROOT
BRANCH   1  11
ATOM     10  C   LIG    1        4.480  -3.344   0.797  0.00  0.00    +0.107 C 
ATOM     11  N   LIG    1        4.061  -4.619   0.191  0.00  0.00    -0.308 N 
ATOM     12  C   LIG    1        4.865  -5.719   0.722  0.00  0.00    +0.107 C 
ATOM     13  C   LIG    1        6.095  -5.052   1.314  0.00  0.00    +0.021 C 
ATOM     14  C   LIG    1        5.547  -3.743   1.841  0.00  0.00    +0.029 C 
BRANCH  10  18
ATOM     15  F   LIG    1        1.848   0.700   1.637  0.00  0.00    -0.204 F 
ATOM     16  C   LIG    1        2.084  -0.596   1.875  0.00  0.00    +0.142 A 
ATOM     17  C   LIG    1        3.084  -1.265   1.181  0.00  0.00    +0.046 A 
ATOM     18  C   LIG    1        3.342  -2.610   1.464  0.00  0.00    -0.006 A 
ATOM     19  C   LIG    1        2.540  -3.214   2.434  0.00  0.00    +0.116 A 
ATOM     20  N   LIG    1        1.560  -2.585   3.128  0.00  0.00    -0.260 NA
ATOM     21  C   LIG    1        1.354  -1.282   2.827  0.00  0.00    +0.149 A 
ENDBRANCH  10  18
ENDBRANCH   1  11
BRANCH   4  22
ATOM     22  C   LIG    1        1.653  -1.384  -3.576  0.00  0.00    +0.249 C 
ATOM     23  N   LIG    1        2.342  -0.841  -2.521  0.00  0.00    -0.311 N 
ATOM     24  H   LIG    1        2.780  -1.489  -1.869  0.00  0.00    +0.149 HD
ATOM     25  O   LIG    1        1.111  -0.705  -4.451  0.00  0.00    -0.270 OA
BRANCH  23  26
ATOM     26  C   LIG    1        2.521   0.581  -2.369  0.00  0.00    +0.108 C 
BRANCH  26  27
ATOM     27  C   LIG    1        3.983   0.900  -2.347  0.00  0.00    +0.006 C 
ATOM     28  C   LIG    1        4.692   1.380  -1.104  0.00  0.00    +0.005 C 
ATOM     29  C   LIG    1        4.413   2.342  -2.222  0.00  0.00    +0.005 C 
ENDBRANCH  26  27
ENDBRANCH  23  26
ENDBRANCH   4  22
TORSDOF 5
