REMARK  Name = pdb/CHEMBL3977553.pdb
REMARK                            x       y       z     vdW  Elec       q    Type
REMARK                         _______ _______ _______ _____ _____    ______ ____
ROOT
ATOM      1  C   LIG    1        2.548  -2.057  -0.517  0.00  0.00    +0.149 A 
ATOM      2  N   LIG    1        2.342  -2.876  -1.559  0.00  0.00    -0.160 NA
ATOM      3  N   LIG    1        3.370  -2.636  -2.416  0.00  0.00    -0.218 N 
ATOM      4  C   LIG    1        4.201  -1.609  -1.945  0.00  0.00    +0.129 A 
ATOM      5  C   LIG    1        3.704  -1.267  -0.713  0.00  0.00    +0.078 A 
ENDROOT
BRANCH   3   6
ATOM      6  C   LIG    1        3.471  -3.389  -3.625  0.00  0.00    +0.067 A 
ATOM      7  C   LIG    1        4.698  -3.576  -4.276  0.00  0.00    +0.028 A 
ATOM      8  C   LIG    1        4.766  -4.337  -5.447  0.00  0.00    +0.002 A 
ATOM      9  C   LIG    1        3.618  -4.923  -5.972  0.00  0.00    +0.000 A 
ATOM     10  C   LIG    1        2.394  -4.747  -5.332  0.00  0.00    +0.002 A 
ATOM     11  C   LIG    1        2.319  -3.992  -4.157  0.00  0.00    +0.028 A 
ENDBRANCH   3   6
BRANCH   4  12
ATOM     12  N   LIG    1        5.259  -0.990  -2.612  0.00  0.00    -0.266 N 
ATOM     13  H   LIG    1        5.429  -1.282  -3.564  0.00  0.00    +0.157 HD
ATOM     14  C   LIG    1        6.023   0.124  -2.111  0.00  0.00    +0.251 C 
ATOM     15  O   LIG    1        5.809   0.609  -1.020  0.00  0.00    -0.270 OA
BRANCH  14  16
ATOM     16  C   LIG    1        7.124   0.620  -2.986  0.00  0.00    +0.056 A 
ATOM     17  C   LIG    1        7.089   0.528  -4.378  0.00  0.00    +0.056 A 
ATOM     18 CL   LIG    1        5.746  -0.087  -5.274  0.00  0.00    -0.083 Cl
ATOM     19  C   LIG    1        8.173   0.967  -5.129  0.00  0.00    +0.059 A 
ATOM     20  C   LIG    1        9.286   1.518  -4.502  0.00  0.00    +0.134 A 
ATOM     21  F   LIG    1       10.307   1.858  -5.298  0.00  0.00    -0.205 F 
ATOM     22  C   LIG    1        9.353   1.693  -3.113  0.00  0.00    +0.039 A 
ATOM     23  C   LIG    1        8.248   1.216  -2.364  0.00  0.00    +0.027 A 
BRANCH  22  24
ATOM     24  C   LIG    1       10.501   2.353  -2.448  0.00  0.00    +0.109 A 
ATOM     25  C   LIG    1       11.284   3.348  -3.045  0.00  0.00    +0.149 A 
ATOM     26  F   LIG    1       11.059   3.783  -4.292  0.00  0.00    -0.203 F 
ATOM     27  C   LIG    1       12.302   3.962  -2.325  0.00  0.00    +0.042 A 
ATOM     28  C   LIG    1       12.528   3.578  -1.012  0.00  0.00    +0.023 A 
ATOM     29  C   LIG    1       11.723   2.585  -0.478  0.00  0.00    +0.111 A 
ATOM     30  N   LIG    1       10.723   1.969  -1.158  0.00  0.00    -0.252 NA
ENDBRANCH  22  24
ENDBRANCH  14  16
ENDBRANCH   4  12
BRANCH   1  31
ATOM     31  C   LIG    1        1.662  -1.974   0.641  0.00  0.00    +0.236 C 
ATOM     32  N   LIG    1        1.615  -0.873   1.292  0.00  0.00    -0.244 NA
BRANCH  31  33
ATOM     33  O   LIG    1        0.996  -3.103   0.954  0.00  0.00    -0.491 OA
ATOM     34  H   LIG    1        0.547  -3.036   1.807  0.00  0.00    +0.294 HD
ENDBRANCH  31  33
BRANCH  32  35
ATOM     35  C   LIG    1        0.764  -0.703   2.457  0.00  0.00    +0.183 C 
BRANCH  35  36
ATOM     36  C   LIG    1        1.477  -1.110   3.698  0.00  0.00    +0.011 A 
ATOM     37  C   LIG    1        2.763  -1.591   3.855  0.00  0.00    +0.110 A 
ATOM     38  N   LIG    1        2.936  -1.815   5.188  0.00  0.00    -0.284 N 
ATOM     39  H   LIG    1        3.759  -2.171   5.664  0.00  0.00    +0.188 HD
ATOM     40  N   LIG    1        1.852  -1.518   5.919  0.00  0.00    -0.182 NA
ATOM     41  C   LIG    1        0.973  -1.074   5.019  0.00  0.00    +0.139 A 
ENDBRANCH  35  36
ENDBRANCH  32  35
ENDBRANCH   1  31
TORSDOF 8
