REMARK  Name = pdb/CHEMBL3675957.pdb
REMARK                            x       y       z     vdW  Elec       q    Type
REMARK                         _______ _______ _______ _____ _____    ______ ____
ROOT
ATOM      1  N   LIG    1        1.340   5.014   0.177  0.00  0.00    -0.308 N 
ATOM      2  C   LIG    1        1.780   6.423   0.144  0.00  0.00    +0.107 C 
ATOM      3  C   LIG    1        1.008   7.070   1.312  0.00  0.00    +0.029 C 
ATOM      4  C   LIG    1       -0.264   6.249   1.427  0.00  0.00    +0.021 C 
ATOM      5  C   LIG    1        0.222   4.849   1.112  0.00  0.00    +0.107 C 
ENDROOT
BRANCH   1   9
ATOM      6  C   LIG    1        5.175   2.936  -2.025  0.00  0.00    +0.100 A 
ATOM      7  C   LIG    1        4.050   3.091  -1.223  0.00  0.00    +0.170 A 
ATOM      8  N   LIG    1        3.211   4.157  -0.971  0.00  0.00    -0.212 NA
ATOM      9  C   LIG    1        2.193   3.963  -0.154  0.00  0.00    +0.126 A 
ATOM     10  C   LIG    1        1.928   2.611   0.473  0.00  0.00    +0.063 A 
ATOM     11  C   LIG    1        2.798   1.631   0.233  0.00  0.00    +0.118 A 
ATOM     12  N   LIG    1        3.866   1.847  -0.611  0.00  0.00    -0.221 N 
ATOM     13  N   LIG    1        4.819   0.950  -0.942  0.00  0.00    -0.173 NA
ATOM     14  C   LIG    1        5.599   1.609  -1.789  0.00  0.00    +0.150 A 
BRANCH   6  18
ATOM     15  N   LIG    1        5.270   5.108  -2.979  0.00  0.00    -0.325 N 
ATOM     16  H   LIG    1        4.427   5.335  -2.446  0.00  0.00    +0.145 HD
ATOM     17  H   LIG    1        5.660   5.790  -3.613  0.00  0.00    +0.145 HD
ATOM     18  C   LIG    1        5.836   3.872  -2.921  0.00  0.00    +0.247 C 
ATOM     19  O   LIG    1        6.816   3.588  -3.580  0.00  0.00    -0.270 OA
ENDBRANCH   6  18
ENDBRANCH   1   9
BRANCH   2  20
ATOM     20  C   LIG    1        1.513   7.094  -1.194  0.00  0.00    -0.001 A 
ATOM     21  CA  LIG    1        2.298   8.170  -1.659  0.00  0.00    +0.072 A 
ATOM     22  N   LIG    1        2.074   8.791  -2.858  0.00  0.00    -0.254 NA
ATOM     23  C   LIG    1        1.065   8.322  -3.628  0.00  0.00    +0.149 A 
ATOM     24  C   LIG    1        0.243   7.284  -3.248  0.00  0.00    +0.142 A 
ATOM     25  F   LIG    1       -0.751   6.870  -4.044  0.00  0.00    -0.204 F 
ATOM     26  C   LIG    1        0.459   6.672  -2.023  0.00  0.00    +0.047 A 
BRANCH  21  27
ATOM     27  C   LIG    1        3.464   8.731  -0.863  0.00  0.00    +0.211 C 
BRANCH  27  28
ATOM     28  O   LIG    1        4.095   9.820  -1.540  0.00  0.00    -0.389 OA
ATOM     29  H   LIG    1        3.463  10.087  -2.239  0.00  0.00    +0.210 HD
ENDBRANCH  27  28
ENDBRANCH  21  27
ENDBRANCH   2  20
TORSDOF 5
