REMARK  Name = pdb/CHEMBL3941491.pdb
REMARK                            x       y       z     vdW  Elec       q    Type
REMARK                         _______ _______ _______ _____ _____    ______ ____
ROOT
ATOM      1  C   LIG    1        8.008  -0.711  -3.567  0.00  0.00    +0.149 A 
ATOM      2  N   LIG    1        9.118  -1.407  -3.869  0.00  0.00    -0.160 NA
ATOM      3  N   LIG    1       10.115  -0.469  -3.937  0.00  0.00    -0.218 N 
ATOM      4  C   LIG    1        9.642   0.804  -3.587  0.00  0.00    +0.129 A 
ATOM      5  C   LIG    1        8.280   0.668  -3.462  0.00  0.00    +0.078 A 
ENDROOT
BRANCH   3   6
ATOM      6  C   LIG    1       11.455  -0.876  -4.217  0.00  0.00    +0.067 A 
ATOM      7  C   LIG    1       12.409   0.008  -4.740  0.00  0.00    +0.028 A 
ATOM      8  C   LIG    1       13.731  -0.418  -4.928  0.00  0.00    +0.002 A 
ATOM      9  C   LIG    1       14.105  -1.721  -4.605  0.00  0.00    +0.000 A 
ATOM     10  C   LIG    1       13.154  -2.616  -4.124  0.00  0.00    +0.002 A 
ATOM     11  C   LIG    1       11.830  -2.203  -3.946  0.00  0.00    +0.028 A 
ENDBRANCH   3   6
BRANCH   4  12
ATOM     12  N   LIG    1       10.390   1.955  -3.294  0.00  0.00    -0.266 N 
ATOM     13  H   LIG    1       11.399   1.879  -3.318  0.00  0.00    +0.157 HD
ATOM     14  C   LIG    1        9.808   3.177  -2.794  0.00  0.00    +0.251 C 
ATOM     15  O   LIG    1        8.611   3.289  -2.628  0.00  0.00    -0.270 OA
BRANCH  14  16
ATOM     16  C   LIG    1       10.699   4.329  -2.518  0.00  0.00    +0.056 A 
ATOM     17  C   LIG    1       12.023   4.214  -2.095  0.00  0.00    +0.056 A 
ATOM     18 CL   LIG    1       12.836   2.704  -1.910  0.00  0.00    -0.083 Cl
ATOM     19  C   LIG    1       12.747   5.364  -1.789  0.00  0.00    +0.059 A 
ATOM     20  C   LIG    1       12.172   6.627  -1.945  0.00  0.00    +0.134 A 
ATOM     21  F   LIG    1       12.950   7.682  -1.665  0.00  0.00    -0.205 F 
ATOM     22  C   LIG    1       10.855   6.798  -2.399  0.00  0.00    +0.039 A 
ATOM     23  C   LIG    1       10.126   5.617  -2.654  0.00  0.00    +0.027 A 
BRANCH  22  24
ATOM     24  C   LIG    1       10.259   8.141  -2.575  0.00  0.00    +0.109 A 
ATOM     25  C   LIG    1        9.272   8.434  -3.521  0.00  0.00    +0.149 A 
ATOM     26  F   LIG    1        8.842   7.511  -4.394  0.00  0.00    -0.203 F 
ATOM     27  C   LIG    1        8.719   9.710  -3.579  0.00  0.00    +0.042 A 
ATOM     28  C   LIG    1        9.181  10.687  -2.707  0.00  0.00    +0.023 A 
ATOM     29  C   LIG    1       10.185  10.343  -1.819  0.00  0.00    +0.111 A 
ATOM     30  N   LIG    1       10.714   9.100  -1.727  0.00  0.00    -0.252 NA
ENDBRANCH  22  24
ENDBRANCH  14  16
ENDBRANCH   4  12
BRANCH   1  32
ATOM     31  N   LIG    1        5.713  -0.676  -2.939  0.00  0.00    -0.246 NA
ATOM     32  C   LIG    1        6.724  -1.368  -3.315  0.00  0.00    +0.236 C 
BRANCH  31  37
ATOM     33  C   LIG    1        2.046   0.345   0.016  0.00  0.00    +0.041 C 
ATOM     34  C   LIG    1        3.461   0.591  -0.521  0.00  0.00    +0.063 C 
ATOM     35  C   LIG    1        3.430   0.944  -2.018  0.00  0.00    +0.036 C 
ATOM     36  C   LIG    1        3.322  -0.275  -2.942  0.00  0.00    +0.029 C 
ATOM     37  C   LIG    1        4.420  -1.314  -2.668  0.00  0.00    +0.109 C 
ATOM     38  C   LIG    1        4.306  -1.752  -1.203  0.00  0.00    +0.029 C 
ATOM     39  C   LIG    1        4.412  -0.582  -0.223  0.00  0.00    +0.036 C 
BRANCH  34  40
ATOM     40  O   LIG    1        3.975   1.723   0.201  0.00  0.00    -0.389 OA
ATOM     41  H   LIG    1        3.459   2.505  -0.057  0.00  0.00    +0.210 HD
ENDBRANCH  34  40
ENDBRANCH  31  37
BRANCH  32  42
ATOM     42  O   LIG    1        6.728  -2.709  -3.475  0.00  0.00    -0.491 OA
ATOM     43  H   LIG    1        7.630  -2.987  -3.729  0.00  0.00    +0.294 HD
ENDBRANCH  32  42
ENDBRANCH   1  32
TORSDOF 8
