REMARK  Name = pdb/CHEMBL2037221.pdb
REMARK                            x       y       z     vdW  Elec       q    Type
REMARK                         _______ _______ _______ _____ _____    ______ ____
ROOT
ATOM      1  C   LIG    1       11.263  -3.566  -2.875  0.00  0.00    +0.039 C 
ATOM      2  C   LIG    1       11.257  -4.829  -2.419  0.00  0.00    +0.048 C 
ATOM      3  C   LIG    1       12.459  -5.476  -1.870  0.00  0.00    +0.008 A 
ATOM      4  C   LIG    1       13.766  -5.059  -1.703  0.00  0.00    +0.012 A 
ATOM      5  C   LIG    1       14.650  -5.923  -1.050  0.00  0.00    +0.024 A 
ATOM      6  C   LIG    1       14.234  -7.186  -0.574  0.00  0.00    +0.033 A 
ATOM      7  C   LIG    1       12.922  -7.615  -0.804  0.00  0.00    +0.047 A 
ATOM      8  C   LIG    1       12.063  -6.741  -1.434  0.00  0.00    +0.043 A 
ATOM      9  N   LIG    1       10.718  -6.951  -1.698  0.00  0.00    -0.281 N 
ATOM     10  H   LIG    1       10.187  -7.781  -1.485  0.00  0.00    +0.155 HD
ATOM     11  C   LIG    1       10.138  -5.846  -2.303  0.00  0.00    +0.249 C 
ATOM     12  O   LIG    1        8.974  -5.782  -2.642  0.00  0.00    -0.270 OA
ENDROOT
BRANCH   1  15
ATOM     13  C   LIG    1        8.119  -1.864  -3.742  0.00  0.00    +0.055 A 
ATOM     14  C   LIG    1        8.793  -2.843  -2.957  0.00  0.00    +0.040 A 
ATOM     15  C   LIG    1       10.126  -2.851  -3.310  0.00  0.00    +0.041 A 
ATOM     16  N   LIG    1       10.288  -1.876  -4.268  0.00  0.00    -0.360 N 
ATOM     17  H   LIG    1       11.162  -1.630  -4.713  0.00  0.00    +0.165 HD
ATOM     18  C   LIG    1        9.080  -1.301  -4.556  0.00  0.00    +0.096 A 
BRANCH  13  21
ATOM     19  N   LIG    1        6.097  -1.762  -2.540  0.00  0.00    -0.310 N 
ATOM     20  H   LIG    1        6.642  -2.099  -1.760  0.00  0.00    +0.149 HD
ATOM     21  C   LIG    1        6.718  -1.477  -3.729  0.00  0.00    +0.246 C 
ATOM     22  O   LIG    1        6.148  -0.922  -4.657  0.00  0.00    -0.270 OA
BRANCH  19  23
ATOM     23  C   LIG    1        4.714  -1.429  -2.324  0.00  0.00    +0.120 C 
BRANCH  23  24
ATOM     24  C   LIG    1        4.539  -0.067  -1.630  0.00  0.00    +0.103 C 
BRANCH  24  25
ATOM     25  N   LIG    1        3.143   0.297  -1.327  0.00  0.00    -0.301 NA
BRANCH  25  27
ATOM     26  C   LIG    1        2.826   1.571  -3.507  0.00  0.00    +0.020 C 
ATOM     27  C   LIG    1        2.307   0.531  -2.518  0.00  0.00    +0.081 C 
ENDBRANCH  25  27
BRANCH  25  28
ATOM     28  C   LIG    1        2.544  -0.705  -0.424  0.00  0.00    +0.081 C 
ATOM     29  C   LIG    1        1.146  -0.389   0.094  0.00  0.00    +0.020 C 
ENDBRANCH  25  28
ENDBRANCH  24  25
ENDBRANCH  23  24
ENDBRANCH  19  23
ENDBRANCH  13  21
ENDBRANCH   1  15
BRANCH   6  30
ATOM     30  N   LIG    1       15.106  -8.039   0.129  0.00  0.00    -0.314 N 
ATOM     31  H   LIG    1       15.222  -8.930  -0.344  0.00  0.00    +0.152 HD
BRANCH  30  32
ATOM     32  C   LIG    1       16.178  -7.693   0.975  0.00  0.00    +0.033 A 
ATOM     33  C   LIG    1       16.157  -6.528   1.760  0.00  0.00    +0.046 A 
ATOM     34  C   LIG    1       17.206  -6.218   2.634  0.00  0.00    +0.035 A 
ATOM     35  C   LIG    1       18.307  -7.072   2.694  0.00  0.00    +0.023 A 
ATOM     36  C   LIG    1       18.337  -8.239   1.930  0.00  0.00    +0.004 A 
ATOM     37  C   LIG    1       17.272  -8.555   1.088  0.00  0.00    +0.023 A 
BRANCH  34  38
ATOM     38  N   LIG    1       17.075  -5.054   3.425  0.00  0.00    -0.281 N 
ATOM     39  H   LIG    1       16.266  -4.479   3.231  0.00  0.00    +0.155 HD
ATOM     40  C   LIG    1       17.801  -4.772   4.570  0.00  0.00    +0.248 C 
ATOM     41  O   LIG    1       18.666  -5.481   5.074  0.00  0.00    -0.270 OA
BRANCH  40  42
ATOM     42  C   LIG    1       17.433  -3.515   5.280  0.00  0.00    +0.039 A 
ATOM     43  C   LIG    1       16.991  -2.376   4.605  0.00  0.00    +0.025 A 
ATOM     44  C   LIG    1       16.680  -1.219   5.331  0.00  0.00    +0.057 A 
ATOM     45  C   LIG    1       16.838  -1.222   6.730  0.00  0.00    +0.035 A 
ATOM     46  C   LIG    1       17.329  -2.333   7.436  0.00  0.00    +0.031 A 
ATOM     47  C   LIG    1       17.590  -3.484   6.677  0.00  0.00    +0.036 A 
BRANCH  46  48
ATOM     48  N   LIG    1       17.534  -2.321   8.834  0.00  0.00    -0.327 N 
ATOM     49  C   LIG    1       18.830  -2.914   9.265  0.00  0.00    +0.120 C 
ATOM     50  C   LIG    1       19.000  -2.920  10.802  0.00  0.00    +0.103 C 
ATOM     51  N   LIG    1       18.731  -1.633  11.485  0.00  0.00    -0.302 NA
ATOM     52  C   LIG    1       19.766  -0.645  11.193  0.00  0.00    +0.105 C 
ATOM     53  C   LIG    1       17.394  -1.174  11.073  0.00  0.00    +0.103 C 
ATOM     54  C   LIG    1       17.178  -1.073   9.549  0.00  0.00    +0.120 C 
ENDBRANCH  46  48
BRANCH  44  55
ATOM     55  C   LIG    1       16.208   0.024   4.619  0.00  0.00    +0.417 C 
ATOM     56  F   LIG    1       15.053  -0.185   3.930  0.00  0.00    -0.166 F 
ATOM     57  F   LIG    1       17.114   0.469   3.705  0.00  0.00    -0.166 F 
ATOM     58  F   LIG    1       15.967   1.075   5.449  0.00  0.00    -0.166 F 
ENDBRANCH  44  55
ENDBRANCH  40  42
ENDBRANCH  34  38
ENDBRANCH  30  32
ENDBRANCH   6  30
TORSDOF 13
