REMARK  Name = pdb/CHEMBL2037208.pdb
REMARK                            x       y       z     vdW  Elec       q    Type
REMARK                         _______ _______ _______ _____ _____    ______ ____
ROOT
ATOM      1  C   LIG    1        2.315  -6.659  -1.294  0.00  0.00    +0.035 A 
ATOM      2  C   LIG    1        0.935  -6.768  -1.535  0.00  0.00    +0.046 A 
ATOM      3  C   LIG    1        0.330  -8.006  -1.798  0.00  0.00    +0.033 A 
ATOM      4  C   LIG    1        1.139  -9.147  -1.808  0.00  0.00    +0.023 A 
ATOM      5  C   LIG    1        2.512  -9.052  -1.583  0.00  0.00    +0.004 A 
ATOM      6  C   LIG    1        3.097  -7.812  -1.324  0.00  0.00    +0.023 A 
ENDROOT
BRANCH   1   8
ATOM      7  C   LIG    1        4.132  -5.020  -0.745  0.00  0.00    +0.248 C 
ATOM      8  N   LIG    1        2.820  -5.370  -1.018  0.00  0.00    -0.281 N 
ATOM      9  H   LIG    1        2.143  -4.621  -1.068  0.00  0.00    +0.155 HD
ATOM     10  O   LIG    1        5.105  -5.764  -0.753  0.00  0.00    -0.270 OA
BRANCH   7  13
ATOM     11  C   LIG    1        5.871  -1.658  -0.537  0.00  0.00    +0.056 A 
ATOM     12  C   LIG    1        5.600  -3.014  -0.787  0.00  0.00    +0.025 A 
ATOM     13  C   LIG    1        4.358  -3.573  -0.452  0.00  0.00    +0.038 A 
ATOM     14  C   LIG    1        3.388  -2.773   0.166  0.00  0.00    +0.013 A 
ATOM     15  C   LIG    1        3.646  -1.423   0.411  0.00  0.00    +0.001 A 
ATOM     16  C   LIG    1        4.877  -0.868   0.058  0.00  0.00    +0.012 A 
BRANCH  11  18
ATOM     17  F   LIG    1        7.339   0.243  -0.600  0.00  0.00    -0.166 F 
ATOM     18  C   LIG    1        7.215  -1.079  -0.908  0.00  0.00    +0.417 C 
ATOM     19  F   LIG    1        8.246  -1.706  -0.279  0.00  0.00    -0.166 F 
ATOM     20  F   LIG    1        7.471  -1.175  -2.241  0.00  0.00    -0.166 F 
ENDBRANCH  11  18
ENDBRANCH   7  13
ENDBRANCH   1   8
BRANCH   3  21
ATOM     21  N   LIG    1       -1.066  -8.074  -1.965  0.00  0.00    -0.314 N 
ATOM     22  H   LIG    1       -1.482  -7.262  -2.406  0.00  0.00    +0.152 HD
BRANCH  21  23
ATOM     23  C   LIG    1       -1.975  -9.089  -1.613  0.00  0.00    +0.033 A 
ATOM     24  C   LIG    1       -1.713  -9.977  -0.563  0.00  0.00    +0.047 A 
ATOM     25  C   LIG    1       -2.613 -10.996  -0.327  0.00  0.00    +0.043 A 
ATOM     26  N   LIG    1       -2.501 -11.974   0.652  0.00  0.00    -0.281 N 
ATOM     27  H   LIG    1       -1.747 -12.060   1.317  0.00  0.00    +0.155 HD
ATOM     28  C   LIG    1       -3.537 -12.884   0.577  0.00  0.00    +0.249 C 
ATOM     29  O   LIG    1       -3.652 -13.885   1.259  0.00  0.00    -0.270 OA
ATOM     30  C   LIG    1       -4.421 -12.396  -0.550  0.00  0.00    +0.048 C 
ATOM     31  C   LIG    1       -5.578 -12.900  -1.009  0.00  0.00    +0.039 C 
ATOM     32  C   LIG    1       -3.765 -11.188  -1.090  0.00  0.00    +0.008 A 
ATOM     33  C   LIG    1       -4.049 -10.320  -2.129  0.00  0.00    +0.012 A 
ATOM     34  C   LIG    1       -3.147  -9.272  -2.385  0.00  0.00    +0.024 A 
BRANCH  31  35
ATOM     35  C   LIG    1       -6.271 -14.053  -0.545  0.00  0.00    +0.040 A 
ATOM     36  N   LIG    1       -5.623 -15.105   0.059  0.00  0.00    -0.361 N 
ATOM     37  H   LIG    1       -4.640 -15.120   0.310  0.00  0.00    +0.165 HD
ATOM     38  C   LIG    1       -6.514 -16.101   0.365  0.00  0.00    +0.083 A 
ATOM     39  C   LIG    1       -7.761 -15.690  -0.038  0.00  0.00    +0.019 A 
ATOM     40  C   LIG    1       -7.608 -14.408  -0.622  0.00  0.00    +0.027 A 
ENDBRANCH  31  35
ENDBRANCH  21  23
ENDBRANCH   3  21
TORSDOF 6
