REMARK  Name = pdb/CHEMBL3971434.pdb
REMARK                            x       y       z     vdW  Elec       q    Type
REMARK                         _______ _______ _______ _____ _____    ______ ____
ROOT
ATOM      1  C   LIG    1       -0.333  -6.174  -0.723  0.00  0.00    +0.323 A 
ATOM      2  N   LIG    1       -0.739  -5.295  -1.661  0.00  0.00    -0.201 NA
ATOM      3  C   LIG    1       -2.077  -5.208  -1.862  0.00  0.00    +0.145 A 
ATOM      4  C   LIG    1       -3.026  -5.973  -1.210  0.00  0.00    +0.105 A 
ATOM      5  C   LIG    1       -2.463  -6.809  -0.251  0.00  0.00    +0.145 A 
ATOM      6  N   LIG    1       -1.144  -6.952   0.002  0.00  0.00    -0.201 NA
ENDROOT
BRANCH   4   7
ATOM      7  N   LIG    1       -4.407  -5.828  -1.482  0.00  0.00    -0.196 NA
ATOM      8  C   LIG    1       -5.194  -6.864  -1.402  0.00  0.00    +0.285 C 
BRANCH   8   9
ATOM      9  N   LIG    1       -6.552  -6.832  -1.539  0.00  0.00    -0.268 N 
ATOM     10  H   LIG    1       -6.964  -5.904  -1.584  0.00  0.00    +0.157 HD
BRANCH   9  11
ATOM     11  C   LIG    1       -7.475  -7.903  -1.600  0.00  0.00    +0.053 A 
ATOM     12  C   LIG    1       -8.747  -7.809  -1.002  0.00  0.00    +0.063 A 
ATOM     13 CL   LIG    1       -9.278  -6.335  -0.272  0.00  0.00    -0.082 Cl
ATOM     14  C   LIG    1       -9.606  -8.918  -0.943  0.00  0.00    +0.034 A 
ATOM     15  C   LIG    1       -9.201 -10.164  -1.447  0.00  0.00    +0.056 A 
ATOM     16  C   LIG    1       -7.937 -10.268  -2.033  0.00  0.00    +0.014 A 
ATOM     17  C   LIG    1       -7.108  -9.149  -2.134  0.00  0.00    +0.025 A 
BRANCH  15  18
ATOM     18  C   LIG    1      -10.120 -11.361  -1.372  0.00  0.00    +0.417 C 
ATOM     19  F   LIG    1      -11.288 -11.157  -2.037  0.00  0.00    -0.166 F 
ATOM     20  F   LIG    1      -10.461 -11.677  -0.094  0.00  0.00    -0.166 F 
ATOM     21  F   LIG    1       -9.577 -12.491  -1.905  0.00  0.00    -0.166 F 
ENDBRANCH  15  18
ENDBRANCH   9  11
ENDBRANCH   8   9
BRANCH   8  22
ATOM     22  O   LIG    1       -4.685  -8.067  -1.092  0.00  0.00    -0.481 OA
ATOM     23  H   LIG    1       -5.362  -8.636  -0.690  0.00  0.00    +0.295 HD
ENDBRANCH   8  22
ENDBRANCH   4   7
BRANCH   1  24
ATOM     24  O   LIG    1        1.021  -6.341  -0.468  0.00  0.00    -0.424 OA
BRANCH  24  28
ATOM     25  C   LIG    1        3.681  -3.085  -0.831  0.00  0.00    -0.014 A 
ATOM     26  C   LIG    1        2.350  -2.887  -0.418  0.00  0.00    +0.012 A 
ATOM     27  C   LIG    1        1.455  -3.949  -0.269  0.00  0.00    +0.047 A 
ATOM     28  C   LIG    1        1.841  -5.246  -0.595  0.00  0.00    +0.132 A 
ATOM     29  C   LIG    1        3.152  -5.480  -1.001  0.00  0.00    +0.047 A 
ATOM     30  C   LIG    1        4.059  -4.413  -1.109  0.00  0.00    +0.012 A 
BRANCH  25  32
ATOM     31  C   LIG    1        5.689  -1.831  -1.836  0.00  0.00    +0.124 A 
ATOM     32  C   LIG    1        4.627  -1.935  -0.917  0.00  0.00    +0.023 A 
ATOM     33  C   LIG    1        4.484  -0.843  -0.031  0.00  0.00    +0.033 A 
ATOM     34  C   LIG    1        5.340   0.250  -0.090  0.00  0.00    +0.060 A 
ATOM     35 CL   LIG    1        5.133   1.591   0.965  0.00  0.00    -0.082 Cl
ATOM     36  C   LIG    1        6.355   0.227  -1.022  0.00  0.00    +0.133 A 
ATOM     37  N   LIG    1        6.547  -0.790  -1.886  0.00  0.00    -0.239 NA
BRANCH  31  38
ATOM     38  N   LIG    1        5.960  -2.781  -2.816  0.00  0.00    -0.343 N 
ATOM     39  H   LIG    1        5.153  -2.905  -3.418  0.00  0.00    +0.144 HD
ATOM     40  H   LIG    1        6.754  -2.409  -3.334  0.00  0.00    +0.144 HD
ENDBRANCH  31  38
ENDBRANCH  25  32
ENDBRANCH  24  28
ENDBRANCH   1  24
TORSDOF 9
