REMARK  Name = pdb/CHEMBL3676005.pdb
REMARK                            x       y       z     vdW  Elec       q    Type
REMARK                         _______ _______ _______ _____ _____    ______ ____
ROOT
ATOM      1  C   LIG    1        3.179  -4.632  -1.032  0.00  0.00    +0.126 A 
ATOM      2  N   LIG    1        2.807  -3.508  -1.619  0.00  0.00    -0.212 NA
ATOM      3  C   LIG    1        2.054  -3.590  -2.772  0.00  0.00    +0.170 A 
ATOM      4  C   LIG    1        1.478  -2.631  -3.596  0.00  0.00    +0.100 A 
ATOM      5  C   LIG    1        0.834  -3.373  -4.609  0.00  0.00    +0.150 A 
ATOM      6  N   LIG    1        0.973  -4.688  -4.466  0.00  0.00    -0.173 NA
ATOM      7  N   LIG    1        1.706  -4.821  -3.338  0.00  0.00    -0.221 N 
ATOM      8  C   LIG    1        2.092  -6.004  -2.739  0.00  0.00    +0.118 A 
ATOM      9  C   LIG    1        2.800  -5.982  -1.607  0.00  0.00    +0.063 A 
ENDROOT
BRANCH   1  11
ATOM     10  C   LIG    1        4.360  -3.357   0.806  0.00  0.00    +0.107 C 
ATOM     11  N   LIG    1        3.930  -4.597   0.142  0.00  0.00    -0.308 N 
ATOM     12  C   LIG    1        4.675  -5.738   0.672  0.00  0.00    +0.107 C 
ATOM     13  C   LIG    1        5.897  -5.133   1.343  0.00  0.00    +0.021 C 
ATOM     14  C   LIG    1        5.381  -3.813   1.872  0.00  0.00    +0.029 C 
BRANCH  10  18
ATOM     15  F   LIG    1        1.636   0.662   1.423  0.00  0.00    -0.204 F 
ATOM     16  C   LIG    1        1.919  -0.604   1.755  0.00  0.00    +0.142 A 
ATOM     17  C   LIG    1        2.934  -1.285   1.098  0.00  0.00    +0.046 A 
ATOM     18  C   LIG    1        3.218  -2.608   1.450  0.00  0.00    -0.006 A 
ATOM     19  C   LIG    1        2.431  -3.176   2.454  0.00  0.00    +0.116 A 
ATOM     20  N   LIG    1        1.455  -2.524   3.130  0.00  0.00    -0.260 NA
ATOM     21  C   LIG    1        1.221  -1.245   2.762  0.00  0.00    +0.149 A 
ENDBRANCH  10  18
ENDBRANCH   1  11
BRANCH   4  22
ATOM     22  C   LIG    1        1.492  -1.189  -3.491  0.00  0.00    +0.249 C 
ATOM     23  N   LIG    1        2.203  -0.672  -2.438  0.00  0.00    -0.303 N 
ATOM     24  H   LIG    1        2.650  -1.335  -1.808  0.00  0.00    +0.149 HD
ATOM     25  O   LIG    1        0.900  -0.467  -4.294  0.00  0.00    -0.270 OA
BRANCH  23  26
ATOM     26  C   LIG    1        2.291   0.770  -2.231  0.00  0.00    +0.217 C 
BRANCH  26  27
ATOM     27  C   LIG    1        2.957   1.592  -3.350  0.00  0.00    +0.405 C 
ATOM     28  F   LIG    1        4.039   2.248  -2.856  0.00  0.00    -0.169 F 
ATOM     29  F   LIG    1        2.119   2.529  -3.845  0.00  0.00    -0.169 F 
ATOM     30  F   LIG    1        3.400   0.835  -4.377  0.00  0.00    -0.169 F 
ENDBRANCH  26  27
ENDBRANCH  23  26
ENDBRANCH   4  22
TORSDOF 5
