REMARK  Name = pdb/CHEMBL3975036.pdb
REMARK                            x       y       z     vdW  Elec       q    Type
REMARK                         _______ _______ _______ _____ _____    ______ ____
ROOT
ATOM      1  C   LIG    1        2.538   0.292  -1.755  0.00  0.00    +0.149 A 
ATOM      2  N   LIG    1        3.611   0.154  -2.553  0.00  0.00    -0.160 NA
ATOM      3  N   LIG    1        3.879   1.413  -3.004  0.00  0.00    -0.218 N 
ATOM      4  C   LIG    1        2.968   2.357  -2.507  0.00  0.00    +0.129 A 
ATOM      5  C   LIG    1        2.056   1.623  -1.777  0.00  0.00    +0.078 A 
ENDROOT
BRANCH   3   6
ATOM      6  C   LIG    1        5.036   1.625  -3.805  0.00  0.00    +0.067 A 
ATOM      7  C   LIG    1        5.514   0.590  -4.627  0.00  0.00    +0.028 A 
ATOM      8  C   LIG    1        6.678   0.773  -5.379  0.00  0.00    +0.002 A 
ATOM      9  C   LIG    1        7.371   1.980  -5.310  0.00  0.00    +0.000 A 
ATOM     10  C   LIG    1        6.894   3.012  -4.504  0.00  0.00    +0.002 A 
ATOM     11  C   LIG    1        5.733   2.837  -3.750  0.00  0.00    +0.028 A 
ENDBRANCH   3   6
BRANCH   4  12
ATOM     12  N   LIG    1        2.939   3.748  -2.761  0.00  0.00    -0.266 N 
ATOM     13  H   LIG    1        3.478   4.097  -3.541  0.00  0.00    +0.157 HD
ATOM     14  C   LIG    1        2.239   4.692  -1.918  0.00  0.00    +0.251 C 
ATOM     15  O   LIG    1        1.623   4.297  -0.956  0.00  0.00    -0.270 OA
BRANCH  14  16
ATOM     16  C   LIG    1        2.379   6.163  -2.169  0.00  0.00    +0.056 A 
ATOM     17  C   LIG    1        2.557   6.752  -3.418  0.00  0.00    +0.053 A 
ATOM     18 CL   LIG    1        2.563   5.850  -4.888  0.00  0.00    -0.083 Cl
ATOM     19  C   LIG    1        2.672   8.147  -3.521  0.00  0.00    +0.021 A 
ATOM     20  C   LIG    1        2.552   8.961  -2.387  0.00  0.00    +0.011 A 
ATOM     21  C   LIG    1        2.296   8.418  -1.120  0.00  0.00    +0.004 A 
ATOM     22  C   LIG    1        2.251   7.006  -1.036  0.00  0.00    +0.024 A 
BRANCH  21  23
ATOM     23  C   LIG    1        2.055   9.272   0.075  0.00  0.00    +0.106 A 
ATOM     24  C   LIG    1        1.512  10.562   0.012  0.00  0.00    +0.149 A 
ATOM     25  F   LIG    1        1.158  11.124  -1.153  0.00  0.00    -0.203 F 
ATOM     26  C   LIG    1        1.308  11.295   1.177  0.00  0.00    +0.042 A 
ATOM     27  C   LIG    1        1.645  10.728   2.398  0.00  0.00    +0.023 A 
ATOM     28  C   LIG    1        2.169   9.445   2.395  0.00  0.00    +0.111 A 
ATOM     29  N   LIG    1        2.376   8.709   1.273  0.00  0.00    -0.252 NA
ENDBRANCH  21  23
ENDBRANCH  14  16
ENDBRANCH   4  12
BRANCH   1  30
ATOM     30  C   LIG    1        2.042  -0.852  -0.987  0.00  0.00    +0.236 C 
ATOM     31  N   LIG    1        0.978  -0.766  -0.276  0.00  0.00    -0.248 NA
BRANCH  30  32
ATOM     32  O   LIG    1        2.814  -1.963  -1.061  0.00  0.00    -0.491 OA
ATOM     33  H   LIG    1        3.585  -1.771  -1.630  0.00  0.00    +0.294 HD
ENDBRANCH  30  32
BRANCH  31  34
ATOM     34  C   LIG    1        0.627  -1.963   0.497  0.00  0.00    +0.162 C 
BRANCH  34  35
ATOM     35  C   LIG    1       -0.649  -1.697   1.262  0.00  0.00    +0.052 C 
ATOM     36  C   LIG    1       -1.860  -1.449   0.472  0.00  0.00    +0.028 C 
ATOM     37  C   LIG    1       -3.032  -1.237   1.089  0.00  0.00    +0.184 C 
ATOM     38  N   LIG    1       -3.125  -1.246   2.455  0.00  0.00    -0.210 N 
ATOM     39  H   LIG    1       -4.014  -1.080   2.905  0.00  0.00    +0.298 HD
ATOM     40  C   LIG    1       -2.036  -1.460   3.258  0.00  0.00    +0.295 C 
ATOM     41  C   LIG    1       -0.704  -1.702   2.613  0.00  0.00    +0.083 C 
BRANCH  40  42
ATOM     42  N   LIG    1       -2.181  -1.453   4.546  0.00  0.00    -0.071 NA
ATOM     43  H   LIG    1       -1.286  -1.629   5.009  0.00  0.00    +0.348 HD
ENDBRANCH  40  42
ENDBRANCH  34  35
ENDBRANCH  31  34
ENDBRANCH   1  30
TORSDOF 9
