REMARK  Name = pdb/CHEMBL3930567.pdb
REMARK                            x       y       z     vdW  Elec       q    Type
REMARK                         _______ _______ _______ _____ _____    ______ ____
ROOT
ATOM      1  C   LIG    1        2.727  -1.434  -0.528  0.00  0.00    +0.149 A 
ATOM      2  N   LIG    1        2.385  -2.690  -0.221  0.00  0.00    -0.160 NA
ATOM      3  N   LIG    1        3.476  -3.448  -0.472  0.00  0.00    -0.218 N 
ATOM      4  C   LIG    1        4.559  -2.675  -0.906  0.00  0.00    +0.129 A 
ATOM      5  C   LIG    1        4.067  -1.386  -0.990  0.00  0.00    +0.078 A 
ENDROOT
BRANCH   3   6
ATOM      6  C   LIG    1        3.393  -4.845  -0.225  0.00  0.00    +0.067 A 
ATOM      7  C   LIG    1        4.192  -5.769  -0.900  0.00  0.00    +0.028 A 
ATOM      8  C   LIG    1        4.070  -7.134  -0.615  0.00  0.00    +0.002 A 
ATOM      9  C   LIG    1        3.146  -7.579   0.333  0.00  0.00    +0.000 A 
ATOM     10  C   LIG    1        2.329  -6.664   0.990  0.00  0.00    +0.002 A 
ATOM     11  C   LIG    1        2.442  -5.304   0.704  0.00  0.00    +0.028 A 
ENDBRANCH   3   6
BRANCH   4  12
ATOM     12  N   LIG    1        5.898  -3.075  -1.078  0.00  0.00    -0.266 N 
ATOM     13  H   LIG    1        6.165  -3.978  -0.700  0.00  0.00    +0.157 HD
ATOM     14  C   LIG    1        6.888  -2.263  -1.743  0.00  0.00    +0.251 C 
ATOM     15  O   LIG    1        6.581  -1.190  -2.236  0.00  0.00    -0.270 OA
BRANCH  14  16
ATOM     16  C   LIG    1        8.305  -2.719  -1.780  0.00  0.00    +0.056 A 
ATOM     17  C   LIG    1        8.708  -4.050  -1.791  0.00  0.00    +0.054 A 
ATOM     18 CL   LIG    1        7.616  -5.370  -1.933  0.00  0.00    -0.083 Cl
ATOM     19  C   LIG    1       10.066  -4.363  -1.728  0.00  0.00    +0.041 A 
ATOM     20  C   LIG    1       11.042  -3.355  -1.695  0.00  0.00    +0.052 A 
ATOM     21 CL   LIG    1       12.660  -3.916  -1.422  0.00  0.00    -0.083 Cl
ATOM     22  C   LIG    1       10.689  -1.993  -1.816  0.00  0.00    +0.022 A 
ATOM     23  C   LIG    1        9.298  -1.714  -1.838  0.00  0.00    +0.026 A 
BRANCH  22  24
ATOM     24  C   LIG    1       11.684  -0.892  -1.957  0.00  0.00    +0.107 A 
ATOM     25  C   LIG    1       11.462   0.427  -1.552  0.00  0.00    +0.149 A 
ATOM     26  F   LIG    1       10.323   0.797  -0.948  0.00  0.00    -0.203 F 
ATOM     27  C   LIG    1       12.438   1.398  -1.761  0.00  0.00    +0.042 A 
ATOM     28  C   LIG    1       13.644   1.035  -2.343  0.00  0.00    +0.023 A 
ATOM     29  C   LIG    1       13.806  -0.284  -2.721  0.00  0.00    +0.111 A 
ATOM     30  N   LIG    1       12.850  -1.230  -2.569  0.00  0.00    -0.252 NA
ENDBRANCH  22  24
ENDBRANCH  14  16
ENDBRANCH   4  12
BRANCH   1  31
ATOM     31  C   LIG    1        1.807  -0.317  -0.298  0.00  0.00    +0.236 C 
ATOM     32  N   LIG    1        2.221   0.891  -0.415  0.00  0.00    -0.248 NA
BRANCH  31  33
ATOM     33  O   LIG    1        0.557  -0.667   0.078  0.00  0.00    -0.491 OA
ATOM     34  H   LIG    1        0.005   0.092   0.298  0.00  0.00    +0.294 HD
ENDBRANCH  31  33
BRANCH  32  35
ATOM     35  C   LIG    1        1.324   2.021  -0.187  0.00  0.00    +0.160 C 
BRANCH  35  36
ATOM     36  C   LIG    1        2.080   3.329  -0.423  0.00  0.00    +0.142 C 
BRANCH  36  37
ATOM     37  C   LIG    1        2.516   3.465  -1.809  0.00  0.00    +0.064 C 
ATOM     38  N   LIG    1        2.869   3.596  -2.921  0.00  0.00    -0.197 NA
ENDBRANCH  36  37
ENDBRANCH  35  36
ENDBRANCH  32  35
ENDBRANCH   1  31
TORSDOF 9
