REMARK  Name = pdb/CHEMBL3661597.pdb
REMARK                            x       y       z     vdW  Elec       q    Type
REMARK                         _______ _______ _______ _____ _____    ______ ____
ROOT
ATOM      1  C   LIG    1        5.829  -2.570   3.165  0.00  0.00    +0.042 A 
ATOM      2  C   LIG    1        6.641  -3.031   4.215  0.00  0.00    +0.038 A 
ATOM      3  C   LIG    1        7.737  -2.274   4.644  0.00  0.00    +0.052 A 
ATOM      4  C   LIG    1        7.985  -1.080   3.970  0.00  0.00    +0.134 A 
ATOM      5  N   LIG    1        7.222  -0.608   2.952  0.00  0.00    -0.261 NA
ATOM      6  C   LIG    1        6.168  -1.364   2.572  0.00  0.00    +0.122 A 
ENDROOT
BRANCH   3   7
ATOM      7  N   LIG    1        8.517  -2.774   5.714  0.00  0.00    -0.284 N 
ATOM      8  H   LIG    1        8.222  -3.658   6.111  0.00  0.00    +0.155 HD
ATOM      9  C   LIG    1        9.645  -2.174   6.252  0.00  0.00    +0.222 C 
ATOM     10  O   LIG    1       10.097  -1.079   5.919  0.00  0.00    -0.275 OA
BRANCH   9  11
ATOM     11  C   LIG    1       10.346  -3.009   7.314  0.00  0.00    +0.131 C 
BRANCH  11  12
ATOM     12  C   LIG    1       11.620  -3.624   6.788  0.00  0.00    -0.038 A 
ATOM     13  C   LIG    1       11.607  -4.885   6.175  0.00  0.00    +0.016 A 
ATOM     14  C   LIG    1       12.781  -5.438   5.634  0.00  0.00    +0.055 A 
ATOM     15  C   LIG    1       13.977  -4.711   5.718  0.00  0.00    +0.012 A 
ATOM     16  C   LIG    1       13.998  -3.454   6.322  0.00  0.00    +0.001 A 
ATOM     17  C   LIG    1       12.826  -2.912   6.849  0.00  0.00    +0.004 A 
BRANCH  14  18
ATOM     18  C   LIG    1       12.737  -6.790   4.966  0.00  0.00    +0.417 C 
ATOM     19  F   LIG    1       11.874  -6.820   3.913  0.00  0.00    -0.166 F 
ATOM     20  F   LIG    1       12.323  -7.773   5.813  0.00  0.00    -0.166 F 
ATOM     21  F   LIG    1       13.940  -7.201   4.475  0.00  0.00    -0.166 F 
ENDBRANCH  14  18
ENDBRANCH  11  12
ENDBRANCH   9  11
ENDBRANCH   3   7
BRANCH   1  22
ATOM     22  C   LIG    1        4.708  -3.409   2.672  0.00  0.00    +0.197 C 
ATOM     23  O   LIG    1        4.788  -4.632   2.834  0.00  0.00    -0.287 OA
BRANCH  22  31
ATOM     24  N   LIG    1        1.962  -1.375   1.314  0.00  0.00    -0.326 N 
ATOM     25  C   LIG    1        1.759  -2.541   0.622  0.00  0.00    +0.145 A 
ATOM     26  N   LIG    1        0.796  -2.756  -0.288  0.00  0.00    -0.218 NA
ATOM     27  C   LIG    1        0.849  -3.985  -0.818  0.00  0.00    +0.223 A 
ATOM     28  N   LIG    1        1.712  -4.969  -0.513  0.00  0.00    -0.243 NA
ATOM     29  C   LIG    1        2.656  -4.715   0.423  0.00  0.00    +0.124 A 
ATOM     30  C   LIG    1        2.719  -3.456   1.027  0.00  0.00    +0.048 A 
ATOM     31  C   LIG    1        3.561  -2.815   1.990  0.00  0.00    +0.051 A 
ATOM     32  C   LIG    1        3.032  -1.544   2.172  0.00  0.00    +0.100 A 
BRANCH  24  34
ATOM     33  C   LIG    1        0.634   0.146  -0.187  0.00  0.00    +0.033 C 
ATOM     34  C   LIG    1        1.177  -0.139   1.219  0.00  0.00    +0.111 C 
BRANCH  34  35
ATOM     35  C   LIG    1        0.035  -0.108   2.247  0.00  0.00    +0.180 C 
BRANCH  35  36
ATOM     36  O   LIG    1        0.512  -0.231   3.586  0.00  0.00    -0.393 OA
ATOM     37  H   LIG    1        0.830  -1.146   3.700  0.00  0.00    +0.209 HD
ENDBRANCH  35  36
ENDBRANCH  34  35
ENDBRANCH  24  34
ENDBRANCH  22  31
ENDBRANCH   1  22
TORSDOF 9
