REMARK  Name = pdb/CHEMBL3675987.pdb
REMARK                            x       y       z     vdW  Elec       q    Type
REMARK                         _______ _______ _______ _____ _____    ______ ____
ROOT
ATOM      1  C   LIG    1        2.838   2.735   3.653  0.00  0.00    +0.100 A 
ATOM      2  C   LIG    1        3.008   4.084   3.919  0.00  0.00    +0.170 A 
ATOM      3  N   LIG    1        2.544   5.217   3.297  0.00  0.00    -0.212 NA
ATOM      4  C   LIG    1        2.926   6.386   3.768  0.00  0.00    +0.126 A 
ATOM      5  C   LIG    1        3.763   6.501   5.025  0.00  0.00    +0.063 A 
ATOM      6  C   LIG    1        4.209   5.368   5.573  0.00  0.00    +0.118 A 
ATOM      7  N   LIG    1        3.857   4.147   5.027  0.00  0.00    -0.221 N 
ATOM      8  N   LIG    1        4.233   2.922   5.459  0.00  0.00    -0.173 NA
ATOM      9  C   LIG    1        3.622   2.082   4.625  0.00  0.00    +0.150 A 
ENDROOT
BRANCH   4  10
ATOM     10  N   LIG    1        2.573   7.552   3.096  0.00  0.00    -0.308 N 
ATOM     11  C   LIG    1        1.822   7.523   1.824  0.00  0.00    +0.107 C 
ATOM     12  C   LIG    1        2.558   8.556   0.955  0.00  0.00    +0.029 C 
ATOM     13  C   LIG    1        3.038   9.595   1.953  0.00  0.00    +0.021 C 
ATOM     14  C   LIG    1        3.421   8.752   3.159  0.00  0.00    +0.107 C 
BRANCH  11  15
ATOM     15  C   LIG    1        0.359   7.869   2.033  0.00  0.00    -0.006 A 
ATOM     16  C   LIG    1       -0.083   8.670   3.094  0.00  0.00    +0.046 A 
ATOM     17  C   LIG    1       -1.428   8.977   3.221  0.00  0.00    +0.142 A 
ATOM     18  F   LIG    1       -1.847   9.748   4.232  0.00  0.00    -0.204 F 
ATOM     19  C   LIG    1       -2.317   8.480   2.290  0.00  0.00    +0.149 A 
ATOM     20  N   LIG    1       -1.943   7.704   1.245  0.00  0.00    -0.260 NA
ATOM     21  C   LIG    1       -0.619   7.419   1.142  0.00  0.00    +0.116 A 
ENDBRANCH  11  15
ENDBRANCH   4  10
BRANCH   1  24
ATOM     22  N   LIG    1        0.941   2.794   2.224  0.00  0.00    -0.308 N 
ATOM     23  H   LIG    1        0.809   3.721   2.620  0.00  0.00    +0.149 HD
ATOM     24  C   LIG    1        2.057   2.101   2.614  0.00  0.00    +0.249 C 
ATOM     25  O   LIG    1        2.360   0.994   2.164  0.00  0.00    -0.270 OA
BRANCH  22  27
ATOM     26  C   LIG    1        0.505   2.842  -0.185  0.00  0.00    +0.028 C 
ATOM     27  C   LIG    1        0.051   2.329   1.178  0.00  0.00    +0.073 C 
BRANCH  27  28
ATOM     28  C   LIG    1       -1.347   2.789   1.503  0.00  0.00    +0.009 C 
ATOM     29  C   LIG    1       -2.365   1.788   1.999  0.00  0.00    +0.005 C 
ATOM     30  C   LIG    1       -2.526   2.405   0.640  0.00  0.00    +0.005 C 
ENDBRANCH  27  28
ENDBRANCH  22  27
ENDBRANCH   1  24
TORSDOF 5
