REMARK  Name = pdb/CHEMBL3298162.pdb
REMARK                            x       y       z     vdW  Elec       q    Type
REMARK                         _______ _______ _______ _____ _____    ______ ____
ROOT
ATOM      1  C   LIG    1        2.935  -1.151  -0.214  0.00  0.00    +0.128 A 
ATOM      2  N   LIG    1        2.709  -2.522  -0.315  0.00  0.00    -0.327 N 
ATOM      3  C   LIG    1        3.453  -3.060  -1.361  0.00  0.00    +0.054 A 
ATOM      4  C   LIG    1        3.488  -4.359  -1.881  0.00  0.00    +0.046 A 
ATOM      5  C   LIG    1        4.353  -4.561  -2.939  0.00  0.00    +0.113 A 
ATOM      6  N   LIG    1        5.160  -3.618  -3.457  0.00  0.00    -0.254 NA
ATOM      7  C   LIG    1        5.141  -2.341  -2.960  0.00  0.00    +0.081 A 
ATOM      8  C   LIG    1        4.233  -2.037  -1.910  0.00  0.00    +0.027 A 
ATOM      9  C   LIG    1        3.845  -0.853  -1.218  0.00  0.00    +0.045 A 
ENDROOT
BRANCH   7  10
ATOM     10  C   LIG    1        6.017  -1.370  -3.662  0.00  0.00    +0.009 A 
ATOM     11  C   LIG    1        6.804  -0.341  -3.042  0.00  0.00    -0.009 A 
ATOM     12  C   LIG    1        6.913  -0.125  -1.645  0.00  0.00    +0.009 A 
ATOM     13  C   LIG    1        7.596   0.968  -1.103  0.00  0.00    +0.001 A 
ATOM     14  C   LIG    1        8.282   1.836  -1.936  0.00  0.00    +0.001 A 
ATOM     15  C   LIG    1        8.294   1.599  -3.307  0.00  0.00    +0.008 A 
ATOM     16  C   LIG    1        7.564   0.537  -3.868  0.00  0.00    -0.017 A 
ATOM     17  C   LIG    1        7.606   0.354  -5.254  0.00  0.00    +0.008 A 
ATOM     18  C   LIG    1        6.883  -0.664  -5.856  0.00  0.00    +0.001 A 
ATOM     19  C   LIG    1        6.095  -1.498  -5.072  0.00  0.00    +0.010 A 
ENDBRANCH   7  10
BRANCH   1  20
ATOM     20  C   LIG    1        2.324  -0.278   0.778  0.00  0.00    +0.353 C 
ATOM     21  O   LIG    1        1.678  -0.636   1.743  0.00  0.00    -0.243 OA
BRANCH  20  22
ATOM     22  O   LIG    1        2.559   1.038   0.538  0.00  0.00    -0.476 OA
ATOM     23  H   LIG    1        3.015   1.226  -0.295  0.00  0.00    +0.295 HD
ENDBRANCH  20  22
ENDBRANCH   1  20
BRANCH   2  24
ATOM     24  C   LIG    1        1.807  -3.310   0.531  0.00  0.00    +0.202 C 
BRANCH  24  25
ATOM     25  C   LIG    1        0.425  -3.297  -0.008  0.00  0.00    +0.192 A 
ATOM     26  N   LIG    1       -0.641  -2.796   0.700  0.00  0.00    -0.190 NA
ATOM     27  C   LIG    1       -1.638  -2.953  -0.141  0.00  0.00    +0.259 A 
ATOM     28  O   LIG    1       -1.259  -3.545  -1.314  0.00  0.00    -0.333 OA
ATOM     29  N   LIG    1        0.110  -3.792  -1.215  0.00  0.00    -0.059 NA
BRANCH  27  30
ATOM     30  C   LIG    1       -3.034  -2.563  -0.030  0.00  0.00    +0.039 A 
ATOM     31  C   LIG    1       -4.033  -3.240  -0.745  0.00  0.00    +0.013 A 
ATOM     32  C   LIG    1       -5.371  -2.857  -0.634  0.00  0.00    +0.001 A 
ATOM     33  C   LIG    1       -5.725  -1.789   0.188  0.00  0.00    +0.000 A 
ATOM     34  C   LIG    1       -4.743  -1.106   0.904  0.00  0.00    +0.001 A 
ATOM     35  C   LIG    1       -3.404  -1.495   0.801  0.00  0.00    +0.013 A 
ENDBRANCH  27  30
ENDBRANCH  24  25
ENDBRANCH   2  24
TORSDOF 6
