REMARK  Name = pdb/CHEMBL3900180.pdb
REMARK                            x       y       z     vdW  Elec       q    Type
REMARK                         _______ _______ _______ _____ _____    ______ ____
ROOT
ATOM      1  C   LIG    1        5.082  -1.155   4.548  0.00  0.00    +0.042 A 
ATOM      2  C   LIG    1        5.810  -1.539   5.687  0.00  0.00    +0.042 A 
ATOM      3  C   LIG    1        6.610  -0.616   6.377  0.00  0.00    +0.086 A 
ATOM      4  C   LIG    1        6.597   0.695   5.891  0.00  0.00    +0.138 A 
ATOM      5  N   LIG    1        5.894   1.116   4.807  0.00  0.00    -0.260 NA
ATOM      6  C   LIG    1        5.145   0.186   4.176  0.00  0.00    +0.122 A 
ENDROOT
BRANCH   1   7
ATOM      7  C   LIG    1        4.231  -2.122   3.792  0.00  0.00    +0.197 C 
ATOM      8  O   LIG    1        3.710  -3.062   4.409  0.00  0.00    -0.287 OA
BRANCH   7  17
ATOM      9  N   LIG    1        4.330  -1.275   0.199  0.00  0.00    -0.336 N 
ATOM     10  C   LIG    1        3.050  -1.816   0.262  0.00  0.00    +0.089 A 
ATOM     11  C   LIG    1        2.012  -1.946  -0.670  0.00  0.00    +0.165 A 
ATOM     12  F   LIG    1        2.052  -1.413  -1.895  0.00  0.00    -0.202 F 
ATOM     13  C   LIG    1        0.893  -2.663  -0.280  0.00  0.00    +0.151 A 
ATOM     14  N   LIG    1        0.734  -3.232   0.931  0.00  0.00    -0.260 NA
ATOM     15  C   LIG    1        1.710  -3.065   1.858  0.00  0.00    +0.121 A 
ATOM     16  C   LIG    1        2.876  -2.334   1.563  0.00  0.00    +0.032 A 
ATOM     17  C   LIG    1        4.000  -1.931   2.353  0.00  0.00    +0.049 A 
ATOM     18  C   LIG    1        4.888  -1.355   1.468  0.00  0.00    +0.099 A 
BRANCH   9  20
ATOM     19  C   LIG    1        5.139  -1.828  -2.111  0.00  0.00    +0.036 C 
ATOM     20  C   LIG    1        5.055  -0.758  -0.999  0.00  0.00    +0.063 C 
ATOM     21  C   LIG    1        6.536  -0.416  -0.653  0.00  0.00    +0.036 C 
BRANCH  20  22
ATOM     22  C   LIG    1        4.363   0.511  -1.565  0.00  0.00    +0.183 C 
BRANCH  22  23
ATOM     23  O   LIG    1        5.091   1.059  -2.667  0.00  0.00    -0.393 OA
ATOM     24  H   LIG    1        4.585   1.824  -2.994  0.00  0.00    +0.209 HD
ENDBRANCH  22  23
ENDBRANCH  20  22
ENDBRANCH   9  20
ENDBRANCH   7  17
ENDBRANCH   1   7
BRANCH   3  25
ATOM     25  N   LIG    1        7.294  -1.054   7.535  0.00  0.00    -0.214 NA
ATOM     26  C   LIG    1        8.448  -0.575   7.881  0.00  0.00    +0.210 C 
BRANCH  26  27
ATOM     27  O   LIG    1        9.119   0.314   7.115  0.00  0.00    -0.494 OA
ATOM     28  H   LIG    1        9.844   0.751   7.603  0.00  0.00    +0.293 HD
ENDBRANCH  26  27
BRANCH  26  29
ATOM     29  C   LIG    1        9.166  -1.070   9.123  0.00  0.00    +0.238 C 
BRANCH  29  30
ATOM     30  N   LIG    1        9.967  -0.048   9.780  0.00  0.00    -0.262 N 
ATOM     31  N   LIG    1        9.537   1.224   9.766  0.00  0.00    -0.175 NA
ATOM     32  C   LIG    1       10.531   1.915  10.323  0.00  0.00    +0.066 A 
ATOM     33  C   LIG    1       11.612   1.090  10.682  0.00  0.00    +0.044 A 
ATOM     34  C   LIG    1       11.217  -0.179  10.318  0.00  0.00    +0.109 A 
BRANCH  32  35
ATOM     35  C   LIG    1       10.487   3.422  10.516  0.00  0.00    +0.040 C 
ATOM     36  C   LIG    1        9.171   4.046  10.935  0.00  0.00    +0.010 C 
ATOM     37  C   LIG    1        9.666   4.255   9.546  0.00  0.00    +0.010 C 
ENDBRANCH  32  35
ENDBRANCH  29  30
ENDBRANCH  26  29
ENDBRANCH   3  25
TORSDOF 10
