REMARK  Name = pdb/CHEMBL3963169.pdb
REMARK                            x       y       z     vdW  Elec       q    Type
REMARK                         _______ _______ _______ _____ _____    ______ ____
ROOT
ATOM      1  C   LIG    1        2.561  -0.047  -1.766  0.00  0.00    +0.149 A 
ATOM      2  N   LIG    1        3.562  -0.536  -2.514  0.00  0.00    -0.160 NA
ATOM      3  N   LIG    1        3.983   0.512  -3.276  0.00  0.00    -0.218 N 
ATOM      4  C   LIG    1        3.282   1.698  -2.976  0.00  0.00    +0.129 A 
ATOM      5  C   LIG    1        2.336   1.322  -2.046  0.00  0.00    +0.078 A 
ENDROOT
BRANCH   3   6
ATOM      6  C   LIG    1        5.032   0.306  -4.215  0.00  0.00    +0.067 A 
ATOM      7  C   LIG    1        5.908  -0.782  -4.059  0.00  0.00    +0.028 A 
ATOM      8  C   LIG    1        6.981  -0.950  -4.939  0.00  0.00    +0.002 A 
ATOM      9  C   LIG    1        7.173  -0.053  -5.987  0.00  0.00    +0.000 A 
ATOM     10  C   LIG    1        6.273   0.992  -6.180  0.00  0.00    +0.002 A 
ATOM     11  C   LIG    1        5.197   1.161  -5.306  0.00  0.00    +0.028 A 
ENDBRANCH   3   6
BRANCH   4  12
ATOM     12  N   LIG    1        3.569   3.013  -3.420  0.00  0.00    -0.266 N 
ATOM     13  H   LIG    1        4.465   3.182  -3.833  0.00  0.00    +0.157 HD
ATOM     14  C   LIG    1        2.642   4.115  -3.305  0.00  0.00    +0.251 C 
ATOM     15  O   LIG    1        1.531   3.917  -2.831  0.00  0.00    -0.270 OA
BRANCH  14  16
ATOM     16  C   LIG    1        3.027   5.497  -3.688  0.00  0.00    +0.056 A 
ATOM     17  C   LIG    1        3.860   5.807  -4.744  0.00  0.00    +0.054 A 
ATOM     18 CL   LIG    1        4.409   4.640  -5.884  0.00  0.00    -0.083 Cl
ATOM     19  C   LIG    1        4.236   7.137  -4.970  0.00  0.00    +0.041 A 
ATOM     20  C   LIG    1        3.726   8.177  -4.177  0.00  0.00    +0.052 A 
ATOM     21 CL   LIG    1        4.416   9.742  -4.465  0.00  0.00    -0.083 Cl
ATOM     22  C   LIG    1        2.756   7.927  -3.187  0.00  0.00    +0.022 A 
ATOM     23  C   LIG    1        2.445   6.557  -2.948  0.00  0.00    +0.026 A 
BRANCH  22  24
ATOM     24  C   LIG    1        2.033   9.003  -2.449  0.00  0.00    +0.107 A 
ATOM     25  C   LIG    1        1.554   8.866  -1.144  0.00  0.00    +0.149 A 
ATOM     26  F   LIG    1        1.772   7.749  -0.434  0.00  0.00    -0.203 F 
ATOM     27  C   LIG    1        0.831   9.897  -0.550  0.00  0.00    +0.042 A 
ATOM     28  C   LIG    1        0.620  11.074  -1.255  0.00  0.00    +0.023 A 
ATOM     29  C   LIG    1        1.121  11.152  -2.541  0.00  0.00    +0.111 A 
ATOM     30  N   LIG    1        1.787  10.142  -3.152  0.00  0.00    -0.252 NA
ENDBRANCH  22  24
ENDBRANCH  14  16
ENDBRANCH   4  12
BRANCH   1  31
ATOM     31  C   LIG    1        1.918  -0.894  -0.761  0.00  0.00    +0.236 C 
ATOM     32  N   LIG    1        1.076  -0.405   0.078  0.00  0.00    -0.243 NA
BRANCH  31  33
ATOM     33  O   LIG    1        2.313  -2.188  -0.778  0.00  0.00    -0.491 OA
ATOM     34  H   LIG    1        3.017  -2.303  -1.443  0.00  0.00    +0.294 HD
ENDBRANCH  31  33
BRANCH  32  35
ATOM     35  C   LIG    1        0.615  -1.334   1.124  0.00  0.00    +0.202 C 
BRANCH  35  36
ATOM     36  C   LIG    1        1.486  -1.290   2.360  0.00  0.00    +0.085 A 
ATOM     37  N   LIG    1        2.547  -2.130   2.414  0.00  0.00    -0.152 NA
ATOM     38  N   LIG    1        3.384  -2.112   3.494  0.00  0.00    -0.157 NA
ATOM     39  C   LIG    1        3.146  -1.252   4.501  0.00  0.00    +0.135 A 
ATOM     40  C   LIG    1        2.086  -0.369   4.484  0.00  0.00    +0.023 A 
ATOM     41  C   LIG    1        1.239  -0.383   3.383  0.00  0.00    +0.028 A 
ENDBRANCH  35  36
ENDBRANCH  32  35
ENDBRANCH   1  31
TORSDOF 8
