REMARK  Name = pdb/CHEMBL3671426.pdb
REMARK                            x       y       z     vdW  Elec       q    Type
REMARK                         _______ _______ _______ _____ _____    ______ ____
ROOT
ATOM      1  C   LIG    1        6.236   3.062   4.840  0.00  0.00    +0.197 C 
ATOM      2  O   LIG    1        6.417   1.992   5.417  0.00  0.00    -0.287 OA
ENDROOT
BRANCH   1  10
ATOM      3  N   LIG    1        3.988   3.960   2.050  0.00  0.00    -0.323 N 
ATOM      4  C   LIG    1        3.693   2.620   2.188  0.00  0.00    +0.147 A 
ATOM      5  N   LIG    1        2.814   1.917   1.458  0.00  0.00    -0.197 NA
ATOM      6  C   LIG    1        2.748   0.627   1.790  0.00  0.00    +0.214 A 
ATOM      7  N   LIG    1        3.483   0.007   2.723  0.00  0.00    -0.222 NA
ATOM      8  C   LIG    1        4.357   0.741   3.447  0.00  0.00    +0.126 A 
ATOM      9  C   LIG    1        4.486   2.108   3.206  0.00  0.00    +0.048 A 
ATOM     10  C   LIG    1        5.258   3.180   3.756  0.00  0.00    +0.051 A 
ATOM     11  C   LIG    1        4.829   4.316   3.090  0.00  0.00    +0.100 A 
BRANCH   3  12
ATOM     12  C   LIG    1        3.617   4.847   0.919  0.00  0.00    +0.065 C 
ATOM     13  C   LIG    1        2.184   4.603   0.401  0.00  0.00    +0.036 C 
ATOM     14  C   LIG    1        3.672   6.342   1.338  0.00  0.00    +0.036 C 
BRANCH  12  15
ATOM     15  C   LIG    1        4.650   4.654  -0.229  0.00  0.00    +0.187 C 
BRANCH  15  17
ATOM     16  C   LIG    1        5.548   3.147  -1.815  0.00  0.00    +0.194 C 
ATOM     17  O   LIG    1        4.599   3.336  -0.775  0.00  0.00    -0.381 OA
ENDBRANCH  15  17
ENDBRANCH  12  15
ENDBRANCH   3  12
BRANCH   6  18
ATOM     18  N   LIG    1        1.872  -0.161   1.066  0.00  0.00    -0.327 N 
ATOM     19  H   LIG    1        1.734   0.266   0.161  0.00  0.00    +0.145 HD
ATOM     20  H   LIG    1        2.211  -1.113   1.079  0.00  0.00    +0.145 HD
ENDBRANCH   6  18
ENDBRANCH   1  10
BRANCH   1  21
ATOM     21  C   LIG    1        7.021   4.227   5.327  0.00  0.00    +0.042 A 
ATOM     22  C   LIG    1        7.437   4.241   6.667  0.00  0.00    +0.038 A 
ATOM     23  C   LIG    1        8.156   5.317   7.194  0.00  0.00    +0.052 A 
ATOM     24  C   LIG    1        8.396   6.384   6.329  0.00  0.00    +0.134 A 
ATOM     25  N   LIG    1        8.053   6.382   5.007  0.00  0.00    -0.261 NA
ATOM     26  C   LIG    1        7.414   5.287   4.531  0.00  0.00    +0.122 A 
BRANCH  23  27
ATOM     27  N   LIG    1        8.579   5.197   8.547  0.00  0.00    -0.283 N 
ATOM     28  H   LIG    1        8.341   4.318   8.998  0.00  0.00    +0.155 HD
ATOM     29  C   LIG    1        9.331   6.097   9.277  0.00  0.00    +0.239 C 
ATOM     30  O   LIG    1        9.685   7.191   8.826  0.00  0.00    -0.273 OA
BRANCH  29  31
ATOM     31  C   LIG    1        9.642   5.658  10.701  0.00  0.00    +0.241 C 
BRANCH  31  32
ATOM     32  N   LIG    1       10.422   6.657  11.403  0.00  0.00    -0.243 N 
ATOM     33  N   LIG    1       11.767   6.635  11.389  0.00  0.00    -0.065 NA
ATOM     34  N   LIG    1       12.185   7.700  12.067  0.00  0.00    -0.134 NA
ATOM     35  C   LIG    1       11.082   8.356  12.540  0.00  0.00    +0.086 A 
ATOM     36  C   LIG    1        9.946   7.693  12.145  0.00  0.00    +0.134 A 
BRANCH  35  37
ATOM     37  C   LIG    1       11.133   9.620  13.369  0.00  0.00    +0.041 C 
ATOM     38  C   LIG    1       10.153   9.765  14.520  0.00  0.00    +0.010 C 
ATOM     39  C   LIG    1        9.977  10.597  13.297  0.00  0.00    +0.010 C 
ENDBRANCH  35  37
ENDBRANCH  31  32
ENDBRANCH  29  31
ENDBRANCH  23  27
ENDBRANCH   1  21
TORSDOF 10
