REMARK  Name = pdb/CHEMBL502835.pdb
REMARK                            x       y       z     vdW  Elec       q    Type
REMARK                         _______ _______ _______ _____ _____    ______ ____
ROOT
ATOM      1  C   LIG    1       13.853  -4.415   8.952  0.00  0.00    +0.061 A 
ATOM      2  C   LIG    1       14.733  -3.740   8.108  0.00  0.00    +0.039 A 
ATOM      3  C   LIG    1       14.178  -3.095   7.024  0.00  0.00    +0.042 A 
ATOM      4  N   LIG    1       14.912  -2.436   6.052  0.00  0.00    -0.281 N 
ATOM      5  H   LIG    1       15.911  -2.337   6.019  0.00  0.00    +0.155 HD
ATOM      6  C   LIG    1       14.084  -1.938   5.061  0.00  0.00    +0.251 C 
ATOM      7  O   LIG    1       14.483  -1.270   4.103  0.00  0.00    -0.270 OA
ATOM      8  C   LIG    1       12.670  -2.314   5.479  0.00  0.00    +0.068 C 
ATOM      9  C   LIG    1       11.592  -1.981   4.727  0.00  0.00    +0.051 C 
ATOM     10  C   LIG    1       12.808  -3.028   6.767  0.00  0.00    +0.010 A 
ATOM     11  C   LIG    1       11.933  -3.710   7.600  0.00  0.00    +0.011 A 
ATOM     12  C   LIG    1       12.464  -4.404   8.701  0.00  0.00    +0.016 A 
ENDROOT
BRANCH   9  13
ATOM     13  C   LIG    1       10.200  -2.114   5.235  0.00  0.00    -0.003 A 
ATOM     14  C   LIG    1        9.589  -0.987   5.817  0.00  0.00    +0.010 A 
ATOM     15  C   LIG    1        8.258  -1.022   6.240  0.00  0.00    +0.001 A 
ATOM     16  C   LIG    1        7.519  -2.192   6.103  0.00  0.00    +0.000 A 
ATOM     17  C   LIG    1        8.114  -3.324   5.542  0.00  0.00    +0.001 A 
ATOM     18  C   LIG    1        9.445  -3.285   5.099  0.00  0.00    +0.010 A 
ENDBRANCH   9  13
BRANCH   1  19
ATOM     19  C   LIG    1       14.369  -5.131  10.132  0.00  0.00    +0.339 C 
ATOM     20  O   LIG    1       13.865  -6.155  10.591  0.00  0.00    -0.245 OA
BRANCH  19  22
ATOM     21  C   LIG    1       15.531  -4.595  12.088  0.00  0.00    +0.280 C 
ATOM     22  O   LIG    1       15.341  -4.378  10.691  0.00  0.00    -0.464 OA
ENDBRANCH  19  22
ENDBRANCH   1  19
BRANCH   9  23
ATOM     23  N   LIG    1       11.670  -1.483   3.423  0.00  0.00    -0.313 N 
ATOM     24  H   LIG    1       11.072  -2.012   2.792  0.00  0.00    +0.152 HD
BRANCH  23  25
ATOM     25  C   LIG    1       11.596  -0.098   3.117  0.00  0.00    +0.031 A 
ATOM     26  C   LIG    1       12.140   0.875   3.966  0.00  0.00    +0.025 A 
ATOM     27  C   LIG    1       12.132   2.224   3.620  0.00  0.00    +0.025 A 
ATOM     28  C   LIG    1       11.634   2.608   2.380  0.00  0.00    +0.036 A 
ATOM     29  C   LIG    1       11.076   1.664   1.518  0.00  0.00    +0.025 A 
ATOM     30  C   LIG    1       11.062   0.315   1.886  0.00  0.00    +0.025 A 
BRANCH  28  31
ATOM     31  N   LIG    1       11.765   3.945   1.966  0.00  0.00    -0.273 N 
ATOM     32  C   LIG    1       12.926   4.437   1.369  0.00  0.00    +0.234 C 
ATOM     33  O   LIG    1       13.010   5.618   1.007  0.00  0.00    -0.274 OA
ATOM     34  C   LIG    1       10.616   4.810   2.215  0.00  0.00    +0.138 C 
BRANCH  32  35
ATOM     35  C   LIG    1       14.142   3.481   1.148  0.00  0.00    +0.181 C 
BRANCH  35  36
ATOM     36  N   LIG    1       15.062   3.459   2.310  0.00  0.00    -0.292 NA
ATOM     37  C   LIG    1       15.565   4.789   2.692  0.00  0.00    +0.100 C 
ATOM     38  C   LIG    1       16.722   5.343   1.832  0.00  0.00    +0.099 C 
ATOM     39  N   LIG    1       17.890   4.452   1.721  0.00  0.00    -0.303 NA
ATOM     40  C   LIG    1       18.679   4.454   2.952  0.00  0.00    +0.105 C 
ATOM     41  C   LIG    1       17.438   3.098   1.341  0.00  0.00    +0.099 C 
ATOM     42  C   LIG    1       16.211   2.541   2.121  0.00  0.00    +0.100 C 
ENDBRANCH  35  36
ENDBRANCH  32  35
ENDBRANCH  28  31
ENDBRANCH  23  25
ENDBRANCH   9  23
TORSDOF 8
