REMARK  Name = pdb/CHEMBL3676032.pdb
REMARK                            x       y       z     vdW  Elec       q    Type
REMARK                         _______ _______ _______ _____ _____    ______ ____
ROOT
ATOM      1  C   LIG    1        3.095   1.122   0.521  0.00  0.00    +0.126 A 
ATOM      2  N   LIG    1        3.605   0.267   1.381  0.00  0.00    -0.212 NA
ATOM      3  C   LIG    1        4.116   0.772   2.560  0.00  0.00    +0.170 A 
ATOM      4  C   LIG    1        4.647   0.166   3.691  0.00  0.00    +0.101 A 
ATOM      5  C   LIG    1        5.023   1.239   4.523  0.00  0.00    +0.150 A 
ATOM      6  N   LIG    1        4.761   2.434   3.990  0.00  0.00    -0.173 NA
ATOM      7  N   LIG    1        4.164   2.147   2.811  0.00  0.00    -0.221 N 
ATOM      8  C   LIG    1        3.619   3.044   1.916  0.00  0.00    +0.118 A 
ATOM      9  C   LIG    1        3.049   2.604   0.791  0.00  0.00    +0.063 A 
ENDROOT
BRANCH   1  11
ATOM     10  C   LIG    1        1.200   0.838  -1.095  0.00  0.00    +0.110 C 
ATOM     11  N   LIG    1        2.617   0.687  -0.704  0.00  0.00    -0.308 N 
ATOM     12  C   LIG    1        3.263  -0.398  -1.443  0.00  0.00    +0.107 C 
ATOM     13  C   LIG    1        2.256  -0.811  -2.511  0.00  0.00    +0.021 C 
ATOM     14  C   LIG    1        0.916  -0.448  -1.890  0.00  0.00    +0.029 C 
BRANCH  10  16
ATOM     15  C   LIG    1       -0.273   2.780  -1.842  0.00  0.00    +0.220 A 
ATOM     16  C   LIG    1        0.960   2.115  -1.883  0.00  0.00    +0.037 A 
ATOM     17  C   LIG    1        1.969   2.715  -2.657  0.00  0.00    +0.050 A 
ATOM     18  C   LIG    1        1.717   3.897  -3.336  0.00  0.00    +0.142 A 
ATOM     19  F   LIG    1        2.681   4.478  -4.059  0.00  0.00    -0.204 F 
ATOM     20  C   LIG    1        0.463   4.465  -3.244  0.00  0.00    +0.153 A 
ATOM     21  N   LIG    1       -0.541   3.933  -2.506  0.00  0.00    -0.218 NA
BRANCH  15  23
ATOM     22  C   LIG    1       -2.275   3.143  -0.673  0.00  0.00    +0.279 C 
ATOM     23  O   LIG    1       -1.289   2.205  -1.107  0.00  0.00    -0.479 OA
ENDBRANCH  15  23
ENDBRANCH  10  16
ENDBRANCH   1  11
BRANCH   4  24
ATOM     24  C   LIG    1        4.749  -1.232   4.017  0.00  0.00    +0.253 C 
ATOM     25  N   LIG    1        4.192  -2.101   3.081  0.00  0.00    -0.280 N 
ATOM     26  H   LIG    1        3.680  -1.657   2.329  0.00  0.00    +0.155 HD
ATOM     27  O   LIG    1        5.238  -1.570   5.083  0.00  0.00    -0.270 OA
BRANCH  25  28
ATOM     28  C   LIG    1        4.101  -3.467   3.244  0.00  0.00    +0.050 A 
ATOM     29  C   LIG    1        3.002  -4.141   2.578  0.00  0.00    +0.030 A 
ATOM     30  C   LIG    1        2.765  -5.445   2.802  0.00  0.00    +0.072 A 
ATOM     31  C   LIG    1        3.669  -6.223   3.689  0.00  0.00    +0.249 A 
ATOM     32  O   LIG    1        3.455  -7.402   3.940  0.00  0.00    -0.268 OA
ATOM     33  N   LIG    1        4.745  -5.535   4.186  0.00  0.00    -0.327 N 
ATOM     34  H   LIG    1        5.374  -6.053   4.786  0.00  0.00    +0.168 HD
ATOM     35  C   LIG    1        4.948  -4.192   3.987  0.00  0.00    +0.109 A 
ENDBRANCH  25  28
ENDBRANCH   4  24
TORSDOF 5
