REMARK  Name = pdb/CHEMBL3675925.pdb
REMARK                            x       y       z     vdW  Elec       q    Type
REMARK                         _______ _______ _______ _____ _____    ______ ____
ROOT
ATOM      1  C   LIG    1        6.398   3.267   3.917  0.00  0.00    +0.100 A 
ATOM      2  C   LIG    1        6.264   4.646   3.920  0.00  0.00    +0.170 A 
ATOM      3  N   LIG    1        5.730   5.526   3.005  0.00  0.00    -0.212 NA
ATOM      4  C   LIG    1        5.785   6.812   3.282  0.00  0.00    +0.126 A 
ATOM      5  C   LIG    1        6.359   7.323   4.586  0.00  0.00    +0.063 A 
ATOM      6  C   LIG    1        6.849   6.422   5.443  0.00  0.00    +0.118 A 
ATOM      7  N   LIG    1        6.823   5.077   5.125  0.00  0.00    -0.221 N 
ATOM      8  N   LIG    1        7.290   4.052   5.874  0.00  0.00    -0.173 NA
ATOM      9  C   LIG    1        7.031   2.970   5.141  0.00  0.00    +0.150 A 
ENDROOT
BRANCH   4  10
ATOM     10  N   LIG    1        5.290   7.738   2.378  0.00  0.00    -0.308 N 
ATOM     11  C   LIG    1        4.406   7.408   1.246  0.00  0.00    +0.108 C 
ATOM     12  C   LIG    1        4.882   8.406   0.174  0.00  0.00    +0.029 C 
ATOM     13  C   LIG    1        5.180   9.658   0.982  0.00  0.00    +0.021 C 
ATOM     14  C   LIG    1        5.807   9.103   2.254  0.00  0.00    +0.107 C 
BRANCH  11  15
ATOM     15  C   LIG    1        2.939   7.586   1.626  0.00  0.00    +0.011 A 
ATOM     16  C   LIG    1        1.926   7.436   0.668  0.00  0.00    +0.129 A 
ATOM     17  F   LIG    1        2.242   7.131  -0.599  0.00  0.00    -0.205 F 
ATOM     18  C   LIG    1        0.574   7.598   0.991  0.00  0.00    +0.041 A 
ATOM     19  C   LIG    1        0.205   7.902   2.300  0.00  0.00    +0.041 A 
ATOM     20  C   LIG    1        1.192   8.041   3.263  0.00  0.00    +0.124 A 
ATOM     21  F   LIG    1        0.852   8.333   4.525  0.00  0.00    -0.205 F 
ATOM     22  C   LIG    1        2.537   7.885   2.941  0.00  0.00    +0.046 A 
ENDBRANCH  11  15
ENDBRANCH   4  10
BRANCH   1  25
ATOM     23  N   LIG    1        5.355   2.855   1.818  0.00  0.00    -0.310 N 
ATOM     24  H   LIG    1        5.326   3.874   1.770  0.00  0.00    +0.149 HD
ATOM     25  C   LIG    1        5.989   2.311   2.910  0.00  0.00    +0.249 C 
ATOM     26  O   LIG    1        6.194   1.109   3.037  0.00  0.00    -0.270 OA
BRANCH  23  27
ATOM     27  C   LIG    1        4.945   2.044   0.688  0.00  0.00    +0.128 C 
BRANCH  27  28
ATOM     28  C   LIG    1        3.810   2.696  -0.070  0.00  0.00    +0.203 C 
BRANCH  28  29
ATOM     29  S   LIG    1        3.309   1.662  -1.430  0.00  0.00    +0.028 S 
ATOM     30  O   LIG    1        4.351   1.644  -2.437  0.00  0.00    -0.158 OA
ATOM     31  O   LIG    1        2.684   0.463  -0.939  0.00  0.00    -0.158 OA
BRANCH  29  32
ATOM     32  N   LIG    1        2.066   2.571  -2.097  0.00  0.00    -0.208 NA
ATOM     33  H   LIG    1        2.292   2.823  -3.060  0.00  0.00    +0.144 HD
ATOM     34  H   LIG    1        1.181   2.069  -2.005  0.00  0.00    +0.144 HD
ENDBRANCH  29  32
ENDBRANCH  28  29
ENDBRANCH  27  28
ENDBRANCH  23  27
ENDBRANCH   1  25
TORSDOF 7
