REMARK  Name = pdb/CHEMBL2037225.pdb
REMARK                            x       y       z     vdW  Elec       q    Type
REMARK                         _______ _______ _______ _____ _____    ______ ____
ROOT
ATOM      1  C   LIG    1        0.740   0.155   0.990  0.00  0.00    +0.045 C 
ATOM      2  C   LIG    1        2.236   0.113   0.834  0.00  0.00    -0.029 A 
ATOM      3  C   LIG    1        2.965  -1.025   0.432  0.00  0.00    +0.036 A 
ATOM      4  C   LIG    1        4.359  -0.913   0.217  0.00  0.00    +0.046 A 
ATOM      5  C   LIG    1        5.030   0.307   0.354  0.00  0.00    +0.037 A 
ATOM      6  C   LIG    1        4.303   1.397   0.830  0.00  0.00    +0.024 A 
ATOM      7  C   LIG    1        2.930   1.308   1.054  0.00  0.00    +0.007 A 
ENDROOT
BRANCH   5   8
ATOM      8  N   LIG    1        6.401   0.378  -0.022  0.00  0.00    -0.269 N 
ATOM      9  H   LIG    1        6.822  -0.478  -0.347  0.00  0.00    +0.156 HD
ATOM     10  C   LIG    1        7.174   1.529  -0.026  0.00  0.00    +0.308 C 
ATOM     11  N   LIG    1        8.448   1.326  -0.539  0.00  0.00    -0.269 N 
ATOM     12  H   LIG    1        8.624   0.451  -1.008  0.00  0.00    +0.156 HD
ATOM     13  O   LIG    1        6.780   2.609   0.389  0.00  0.00    -0.252 OA
BRANCH  11  14
ATOM     14  C   LIG    1        9.483   2.302  -0.597  0.00  0.00    +0.035 A 
ATOM     15  C   LIG    1       10.727   1.925  -1.121  0.00  0.00    +0.035 A 
ATOM     16  C   LIG    1       11.782   2.858  -1.241  0.00  0.00    +0.057 A 
ATOM     17  C   LIG    1       11.584   4.179  -0.815  0.00  0.00    +0.012 A 
ATOM     18  C   LIG    1       10.360   4.557  -0.280  0.00  0.00    +0.002 A 
ATOM     19  C   LIG    1        9.325   3.626  -0.170  0.00  0.00    +0.023 A 
BRANCH  16  20
ATOM     20  C   LIG    1       13.105   2.450  -1.842  0.00  0.00    +0.417 C 
ATOM     21  F   LIG    1       12.970   1.979  -3.112  0.00  0.00    -0.166 F 
ATOM     22  F   LIG    1       13.715   1.455  -1.137  0.00  0.00    -0.166 F 
ATOM     23  F   LIG    1       14.011   3.463  -1.913  0.00  0.00    -0.166 F 
ENDBRANCH  16  20
ENDBRANCH  11  14
ENDBRANCH   5   8
BRANCH   3  24
ATOM     24  N   LIG    1        2.429  -2.343   0.400  0.00  0.00    -0.314 N 
ATOM     25  H   LIG    1        2.626  -2.785   1.297  0.00  0.00    +0.152 HD
BRANCH  24  26
ATOM     26  C   LIG    1        1.173  -2.750  -0.106  0.00  0.00    +0.033 A 
ATOM     27  C   LIG    1        0.506  -3.836   0.473  0.00  0.00    +0.047 A 
ATOM     28  C   LIG    1       -0.731  -4.176  -0.039  0.00  0.00    +0.043 A 
ATOM     29  N   LIG    1       -1.568  -5.179   0.425  0.00  0.00    -0.281 N 
ATOM     30  H   LIG    1       -1.385  -5.802   1.197  0.00  0.00    +0.155 HD
ATOM     31  C   LIG    1       -2.762  -5.213  -0.277  0.00  0.00    +0.249 C 
ATOM     32  O   LIG    1       -3.685  -5.948  -0.041  0.00  0.00    -0.270 OA
ATOM     33  C   LIG    1       -2.651  -4.111  -1.310  0.00  0.00    +0.048 C 
ATOM     34  C   LIG    1       -3.541  -3.708  -2.234  0.00  0.00    +0.039 C 
ATOM     35  C   LIG    1       -1.325  -3.502  -1.110  0.00  0.00    +0.008 A 
ATOM     36  C   LIG    1       -0.655  -2.468  -1.729  0.00  0.00    +0.012 A 
ATOM     37  C   LIG    1        0.606  -2.117  -1.235  0.00  0.00    +0.024 A 
BRANCH  34  38
ATOM     38  C   LIG    1       -4.843  -4.230  -2.454  0.00  0.00    +0.040 A 
ATOM     39  N   LIG    1       -5.584  -4.771  -1.429  0.00  0.00    -0.361 N 
ATOM     40  H   LIG    1       -5.247  -4.924  -0.484  0.00  0.00    +0.165 HD
ATOM     41  C   LIG    1       -6.806  -5.186  -1.890  0.00  0.00    +0.083 A 
ATOM     42  C   LIG    1       -6.869  -4.894  -3.232  0.00  0.00    +0.019 A 
ATOM     43  C   LIG    1       -5.644  -4.273  -3.584  0.00  0.00    +0.027 A 
ENDBRANCH  34  38
ENDBRANCH  24  26
ENDBRANCH   3  24
TORSDOF 6
