REMARK  Name = pdb/CHEMBL3676004.pdb
REMARK                            x       y       z     vdW  Elec       q    Type
REMARK                         _______ _______ _______ _____ _____    ______ ____
ROOT
ATOM      1  C   LIG    1        2.918  -0.386   4.702  0.00  0.00    +0.100 A 
ATOM      2  C   LIG    1        3.583   0.327   5.682  0.00  0.00    +0.170 A 
ATOM      3  N   LIG    1        3.897   1.661   5.778  0.00  0.00    -0.212 NA
ATOM      4  C   LIG    1        4.552   2.074   6.842  0.00  0.00    +0.126 A 
ATOM      5  C   LIG    1        4.990   1.111   7.924  0.00  0.00    +0.063 A 
ATOM      6  C   LIG    1        4.644  -0.174   7.786  0.00  0.00    +0.118 A 
ATOM      7  N   LIG    1        3.937  -0.589   6.670  0.00  0.00    -0.221 N 
ATOM      8  N   LIG    1        3.525  -1.842   6.372  0.00  0.00    -0.173 NA
ATOM      9  C   LIG    1        2.929  -1.716   5.183  0.00  0.00    +0.150 A 
ENDROOT
BRANCH   4  10
ATOM     10  N   LIG    1        4.841   3.428   6.963  0.00  0.00    -0.308 N 
ATOM     11  C   LIG    1        4.952   4.110   8.261  0.00  0.00    +0.107 C 
ATOM     12  C   LIG    1        4.198   5.428   8.043  0.00  0.00    +0.029 C 
ATOM     13  C   LIG    1        4.478   5.756   6.587  0.00  0.00    +0.021 C 
ATOM     14  C   LIG    1        4.451   4.386   5.915  0.00  0.00    +0.107 C 
BRANCH  11  15
ATOM     15  C   LIG    1        6.390   4.328   8.680  0.00  0.00    -0.006 A 
ATOM     16  C   LIG    1        7.454   4.452   7.776  0.00  0.00    +0.046 A 
ATOM     17  C   LIG    1        8.734   4.705   8.249  0.00  0.00    +0.142 A 
ATOM     18  F   LIG    1        9.754   4.843   7.393  0.00  0.00    -0.204 F 
ATOM     19  C   LIG    1        8.935   4.822   9.611  0.00  0.00    +0.149 A 
ATOM     20  N   LIG    1        7.942   4.702  10.522  0.00  0.00    -0.260 NA
ATOM     21  C   LIG    1        6.700   4.463  10.036  0.00  0.00    +0.116 A 
ENDBRANCH  11  15
ENDBRANCH   4  10
BRANCH   1  24
ATOM     22  N   LIG    1        2.465   1.479   3.272  0.00  0.00    -0.300 N 
ATOM     23  H   LIG    1        2.959   2.000   3.999  0.00  0.00    +0.150 HD
ATOM     24  C   LIG    1        2.344   0.114   3.461  0.00  0.00    +0.250 C 
ATOM     25  O   LIG    1        1.800  -0.620   2.653  0.00  0.00    -0.270 OA
BRANCH  22  27
ATOM     26  C   LIG    1        0.470   2.519   2.223  0.00  0.00    +0.037 C 
ATOM     27  C   LIG    1        1.961   2.194   2.082  0.00  0.00    +0.174 C 
BRANCH  27  28
ATOM     28  C   LIG    1        2.779   3.451   1.693  0.00  0.00    +0.407 C 
ATOM     29  F   LIG    1        3.367   3.280   0.485  0.00  0.00    -0.169 F 
ATOM     30  F   LIG    1        3.764   3.712   2.585  0.00  0.00    -0.169 F 
ATOM     31  F   LIG    1        2.022   4.570   1.611  0.00  0.00    -0.169 F 
ENDBRANCH  27  28
ENDBRANCH  22  27
ENDBRANCH   1  24
TORSDOF 5
