REMARK  Name = pdb/CHEMBL3676046.pdb
REMARK                            x       y       z     vdW  Elec       q    Type
REMARK                         _______ _______ _______ _____ _____    ______ ____
ROOT
ATOM      1  C   LIG    1        9.483   2.214   2.013  0.00  0.00    +0.100 A 
ATOM      2  C   LIG    1       10.403   3.224   1.803  0.00  0.00    +0.170 A 
ATOM      3  N   LIG    1       10.249   4.577   1.600  0.00  0.00    -0.212 NA
ATOM      4  C   LIG    1       11.329   5.286   1.359  0.00  0.00    +0.126 A 
ATOM      5  C   LIG    1       12.710   4.674   1.368  0.00  0.00    +0.063 A 
ATOM      6  C   LIG    1       12.801   3.359   1.596  0.00  0.00    +0.118 A 
ATOM      7  N   LIG    1       11.656   2.611   1.803  0.00  0.00    -0.221 N 
ATOM      8  N   LIG    1       11.576   1.280   2.034  0.00  0.00    -0.173 NA
ATOM      9  C   LIG    1       10.267   1.046   2.146  0.00  0.00    +0.150 A 
ENDROOT
BRANCH   4  10
ATOM     10  N   LIG    1       11.235   6.646   1.097  0.00  0.00    -0.308 N 
ATOM     11  C   LIG    1       10.122   7.476   1.598  0.00  0.00    +0.108 C 
ATOM     12  C   LIG    1        9.594   8.141   0.318  0.00  0.00    +0.029 C 
ATOM     13  C   LIG    1       10.848   8.385  -0.503  0.00  0.00    +0.021 C 
ATOM     14  C   LIG    1       11.718   7.172  -0.190  0.00  0.00    +0.107 C 
BRANCH  11  15
ATOM     15  C   LIG    1       10.623   8.464   2.649  0.00  0.00    +0.011 A 
ATOM     16  C   LIG    1        9.756   9.416   3.208  0.00  0.00    +0.129 A 
ATOM     17  F   LIG    1        8.473   9.461   2.821  0.00  0.00    -0.205 F 
ATOM     18  C   LIG    1       10.187  10.332   4.174  0.00  0.00    +0.041 A 
ATOM     19  C   LIG    1       11.511  10.312   4.609  0.00  0.00    +0.041 A 
ATOM     20  C   LIG    1       12.379   9.369   4.079  0.00  0.00    +0.124 A 
ATOM     21  F   LIG    1       13.654   9.339   4.486  0.00  0.00    -0.205 F 
ATOM     22  C   LIG    1       11.947   8.449   3.126  0.00  0.00    +0.046 A 
ENDBRANCH  11  15
ENDBRANCH   4  10
BRANCH   1  25
ATOM     23  N   LIG    1        7.577   3.561   2.468  0.00  0.00    -0.306 N 
ATOM     24  H   LIG    1        8.275   4.275   2.650  0.00  0.00    +0.149 HD
ATOM     25  C   LIG    1        8.039   2.315   2.071  0.00  0.00    +0.249 C 
ATOM     26  O   LIG    1        7.319   1.369   1.817  0.00  0.00    -0.270 OA
BRANCH  23  27
ATOM     27  CA  LIG    1        6.155   3.862   2.632  0.00  0.00    +0.098 C 
BRANCH  27  29
ATOM     28  C   LIG    1        6.368   5.601   4.562  0.00  0.00    +0.006 C 
ATOM     29  C   LIG    1        5.828   4.252   4.092  0.00  0.00    +0.021 C 
ENDBRANCH  27  29
BRANCH  27  30
ATOM     30  C   LIG    1        5.669   4.919   1.619  0.00  0.00    +0.178 C 
BRANCH  30  31
ATOM     31  O   LIG    1        5.952   4.570   0.265  0.00  0.00    -0.393 OA
ATOM     32  H   LIG    1        6.913   4.435   0.190  0.00  0.00    +0.209 HD
ENDBRANCH  30  31
ENDBRANCH  27  30
ENDBRANCH  23  27
ENDBRANCH   1  25
TORSDOF 7
