REMARK  Name = pdb/CHEMBL3942627.pdb
REMARK                            x       y       z     vdW  Elec       q    Type
REMARK                         _______ _______ _______ _____ _____    ______ ____
ROOT
ATOM      1  C   LIG    1        2.221  -1.519   0.425  0.00  0.00    +0.149 A 
ATOM      2  N   LIG    1        2.031  -2.768  -0.025  0.00  0.00    -0.160 NA
ATOM      3  N   LIG    1        3.115  -3.475   0.368  0.00  0.00    -0.218 N 
ATOM      4  C   LIG    1        4.039  -2.676   1.049  0.00  0.00    +0.129 A 
ATOM      5  C   LIG    1        3.469  -1.416   1.097  0.00  0.00    +0.078 A 
ENDROOT
BRANCH   3   6
ATOM      6  C   LIG    1        3.196  -4.858   0.031  0.00  0.00    +0.067 A 
ATOM      7  C   LIG    1        3.985  -5.743   0.764  0.00  0.00    +0.028 A 
ATOM      8  C   LIG    1        4.105  -7.084   0.386  0.00  0.00    +0.002 A 
ATOM      9  C   LIG    1        3.389  -7.563  -0.705  0.00  0.00    +0.000 A 
ATOM     10  C   LIG    1        2.549  -6.702  -1.410  0.00  0.00    +0.002 A 
ATOM     11  C   LIG    1        2.443  -5.357  -1.040  0.00  0.00    +0.028 A 
ENDBRANCH   3   6
BRANCH   4  12
ATOM     12  N   LIG    1        5.331  -3.012   1.478  0.00  0.00    -0.266 N 
ATOM     13  H   LIG    1        5.728  -3.879   1.086  0.00  0.00    +0.157 HD
ATOM     14  C   LIG    1        6.101  -2.237   2.427  0.00  0.00    +0.251 C 
ATOM     15  O   LIG    1        5.671  -1.212   2.907  0.00  0.00    -0.270 OA
BRANCH  14  16
ATOM     16  C   LIG    1        7.489  -2.731   2.725  0.00  0.00    +0.056 A 
ATOM     17  C   LIG    1        7.915  -4.072   2.653  0.00  0.00    +0.056 A 
ATOM     18 CL   LIG    1        6.881  -5.404   2.369  0.00  0.00    -0.083 Cl
ATOM     19  C   LIG    1        9.242  -4.411   2.882  0.00  0.00    +0.059 A 
ATOM     20  C   LIG    1       10.159  -3.439   3.245  0.00  0.00    +0.134 A 
ATOM     21  F   LIG    1       11.414  -3.853   3.467  0.00  0.00    -0.205 F 
ATOM     22  C   LIG    1        9.781  -2.098   3.419  0.00  0.00    +0.039 A 
ATOM     23  C   LIG    1        8.441  -1.767   3.129  0.00  0.00    +0.027 A 
BRANCH  22  24
ATOM     24  C   LIG    1       10.754  -1.100   3.903  0.00  0.00    +0.109 A 
ATOM     25  C   LIG    1       10.411  -0.028   4.729  0.00  0.00    +0.149 A 
ATOM     26  F   LIG    1        9.142   0.190   5.106  0.00  0.00    -0.203 F 
ATOM     27  C   LIG    1       11.400   0.828   5.197  0.00  0.00    +0.042 A 
ATOM     28  C   LIG    1       12.721   0.602   4.831  0.00  0.00    +0.023 A 
ATOM     29  C   LIG    1       12.991  -0.468   3.996  0.00  0.00    +0.111 A 
ATOM     30  N   LIG    1       12.042  -1.306   3.522  0.00  0.00    -0.252 NA
ENDBRANCH  22  24
ENDBRANCH  14  16
ENDBRANCH   4  12
BRANCH   1  31
ATOM     31  C   LIG    1        1.253  -0.446   0.165  0.00  0.00    +0.236 C 
ATOM     32  N   LIG    1        1.548   0.765   0.476  0.00  0.00    -0.243 NA
BRANCH  31  33
ATOM     33  O   LIG    1        0.098  -0.838  -0.416  0.00  0.00    -0.491 OA
ATOM     34  H   LIG    1       -0.596  -0.163  -0.351  0.00  0.00    +0.294 HD
ENDBRANCH  31  33
BRANCH  32  35
ATOM     35  C   LIG    1        0.637   1.851   0.111  0.00  0.00    +0.202 C 
BRANCH  35  36
ATOM     36  C   LIG    1       -0.400   2.141   1.164  0.00  0.00    +0.081 A 
ATOM     37  N   LIG    1       -1.572   1.451   1.103  0.00  0.00    -0.255 NA
ATOM     38  C   LIG    1       -2.467   1.748   2.079  0.00  0.00    +0.131 A 
ATOM     39  C   LIG    1       -2.207   2.672   3.080  0.00  0.00    +0.130 A 
ATOM     40  N   LIG    1       -1.041   3.350   3.151  0.00  0.00    -0.260 NA
ATOM     41  C   LIG    1       -0.146   3.063   2.177  0.00  0.00    +0.135 A 
ENDBRANCH  35  36
ENDBRANCH  32  35
ENDBRANCH   1  31
TORSDOF 8
