REMARK  Name = pdb/CHEMBL3671472.pdb
REMARK                            x       y       z     vdW  Elec       q    Type
REMARK                         _______ _______ _______ _____ _____    ______ ____
ROOT
ATOM      1  C   LIG    1        5.903   1.243   0.377  0.00  0.00    +0.197 C 
ATOM      2  O   LIG    1        6.376   0.190  -0.065  0.00  0.00    -0.287 OA
ENDROOT
BRANCH   1   8
ATOM      3  C   LIG    1        1.983  -1.556   2.529  0.00  0.00    +0.214 A 
ATOM      4  N   LIG    1        1.800  -0.256   2.762  0.00  0.00    -0.197 NA
ATOM      5  C   LIG    1        2.765   0.516   2.237  0.00  0.00    +0.147 A 
ATOM      6  N   LIG    1        2.831   1.877   2.296  0.00  0.00    -0.325 N 
ATOM      7  C   LIG    1        3.878   2.332   1.538  0.00  0.00    +0.100 A 
ATOM      8  C   LIG    1        4.635   1.242   1.125  0.00  0.00    +0.051 A 
ATOM      9  C   LIG    1        3.873   0.083   1.521  0.00  0.00    +0.048 A 
ATOM     10  C   LIG    1        3.971  -1.297   1.353  0.00  0.00    +0.126 A 
ATOM     11  N   LIG    1        2.999  -2.105   1.848  0.00  0.00    -0.222 NA
BRANCH   6  12
ATOM     12  C   LIG    1        1.964   2.714   3.002  0.00  0.00    +0.048 C 
ATOM     13  C   LIG    1        2.192   4.223   3.382  0.00  0.00    +0.032 C 
ATOM     14  C   LIG    1        0.637   3.883   3.642  0.00  0.00    -0.004 C 
ATOM     15  C   LIG    1        0.903   2.355   4.092  0.00  0.00    +0.032 C 
ATOM     16  C   LIG    1        0.732   3.272   2.197  0.00  0.00    +0.032 C 
ENDBRANCH   6  12
BRANCH   3  17
ATOM     17  N   LIG    1        0.986  -2.405   2.972  0.00  0.00    -0.327 N 
ATOM     18  H   LIG    1        0.128  -1.878   3.062  0.00  0.00    +0.145 HD
ATOM     19  H   LIG    1        0.960  -3.224   2.381  0.00  0.00    +0.145 HD
ENDBRANCH   3  17
ENDBRANCH   1   8
BRANCH   1  20
ATOM     20  C   LIG    1        6.668   2.497   0.127  0.00  0.00    +0.042 A 
ATOM     21  C   LIG    1        7.523   2.607  -0.980  0.00  0.00    +0.038 A 
ATOM     22  C   LIG    1        8.266   3.779  -1.185  0.00  0.00    +0.052 A 
ATOM     23  C   LIG    1        8.094   4.818  -0.278  0.00  0.00    +0.134 A 
ATOM     24  N   LIG    1        7.295   4.740   0.811  0.00  0.00    -0.261 NA
ATOM     25  C   LIG    1        6.638   3.575   1.004  0.00  0.00    +0.122 A 
BRANCH  22  26
ATOM     26  N   LIG    1        9.145   3.822  -2.283  0.00  0.00    -0.284 N 
ATOM     27  H   LIG    1        9.174   2.995  -2.875  0.00  0.00    +0.155 HD
ATOM     28  C   LIG    1       10.010   4.857  -2.621  0.00  0.00    +0.223 C 
ATOM     29  O   LIG    1       10.111   5.936  -2.034  0.00  0.00    -0.275 OA
BRANCH  28  30
ATOM     30  C   LIG    1       10.838   4.589  -3.872  0.00  0.00    +0.151 C 
BRANCH  30  31
ATOM     31  C   LIG    1       11.184   3.137  -4.062  0.00  0.00    +0.050 A 
ATOM     32  N   LIG    1       10.235   2.366  -4.656  0.00  0.00    -0.258 NA
ATOM     33  C   LIG    1       10.498   1.042  -4.788  0.00  0.00    +0.131 A 
ATOM     34  C   LIG    1       11.649   0.439  -4.312  0.00  0.00    +0.059 A 
ATOM     35 CL   LIG    1       11.903  -1.247  -4.498  0.00  0.00    -0.082 Cl
ATOM     36  C   LIG    1       12.589   1.233  -3.668  0.00  0.00    +0.023 A 
ATOM     37  C   LIG    1       12.357   2.602  -3.537  0.00  0.00    +0.025 A 
ENDBRANCH  30  31
ENDBRANCH  28  30
ENDBRANCH  22  26
ENDBRANCH   1  20
TORSDOF 7
