REMARK  Name = pdb/CHEMBL3676082.pdb
REMARK                            x       y       z     vdW  Elec       q    Type
REMARK                         _______ _______ _______ _____ _____    ______ ____
ROOT
ATOM      1  C   LIG    1        4.950   1.448   3.313  0.00  0.00    +0.100 A 
ATOM      2  C   LIG    1        5.173   2.582   4.076  0.00  0.00    +0.170 A 
ATOM      3  N   LIG    1        4.719   3.875   3.970  0.00  0.00    -0.212 NA
ATOM      4  C   LIG    1        5.084   4.748   4.890  0.00  0.00    +0.126 A 
ATOM      5  C   LIG    1        5.967   4.351   6.051  0.00  0.00    +0.063 A 
ATOM      6  C   LIG    1        6.394   3.085   6.096  0.00  0.00    +0.118 A 
ATOM      7  N   LIG    1        6.024   2.188   5.111  0.00  0.00    -0.221 N 
ATOM      8  N   LIG    1        6.397   0.893   5.004  0.00  0.00    -0.173 NA
ATOM      9  C   LIG    1        5.759   0.460   3.917  0.00  0.00    +0.150 A 
ENDROOT
BRANCH   4  10
ATOM     10  N   LIG    1        4.640   6.057   4.772  0.00  0.00    -0.305 N 
ATOM     11  C   LIG    1        4.674   7.081   5.822  0.00  0.00    +0.108 C 
ATOM     12  C   LIG    1        3.310   7.756   5.653  0.00  0.00    +0.060 C 
ATOM     13  C   LIG    1        3.076   7.756   4.148  0.00  0.00    +0.134 C 
ATOM     14  C   LIG    1        3.817   6.508   3.643  0.00  0.00    +0.138 C 
BRANCH  11  15
ATOM     15  C   LIG    1        5.864   8.030   5.700  0.00  0.00    -0.024 A 
ATOM     16  C   LIG    1        6.861   7.860   4.725  0.00  0.00    +0.043 A 
ATOM     17  C   LIG    1        7.944   8.733   4.649  0.00  0.00    +0.124 A 
ATOM     18  F   LIG    1        8.867   8.551   3.696  0.00  0.00    -0.205 F 
ATOM     19  C   LIG    1        8.079   9.789   5.537  0.00  0.00    +0.038 A 
ATOM     20  C   LIG    1        7.113   9.974   6.522  0.00  0.00    +0.003 A 
ATOM     21  C   LIG    1        6.019   9.100   6.606  0.00  0.00    +0.005 A 
ENDBRANCH  11  15
BRANCH  13  22
ATOM     22  O   LIG    1        1.680   7.712   3.870  0.00  0.00    -0.390 OA
ATOM     23  H   LIG    1        1.316   6.893   4.253  0.00  0.00    +0.210 HD
ENDBRANCH  13  22
ENDBRANCH   4  10
BRANCH   1  26
ATOM     24  N   LIG    1        3.398   2.372   1.746  0.00  0.00    -0.309 N 
ATOM     25  H   LIG    1        3.473   3.206   2.324  0.00  0.00    +0.149 HD
ATOM     26  C   LIG    1        4.109   1.259   2.146  0.00  0.00    +0.249 C 
ATOM     27  O   LIG    1        4.045   0.183   1.571  0.00  0.00    -0.270 OA
BRANCH  24  29
ATOM     28  C   LIG    1        1.099   1.935   0.968  0.00  0.00    +0.027 C 
ATOM     29  C   LIG    1        2.519   2.350   0.588  0.00  0.00    +0.067 C 
ATOM     30  C   LIG    1        2.507   3.713  -0.098  0.00  0.00    +0.027 C 
ENDBRANCH  24  29
ENDBRANCH   1  26
TORSDOF 5
