REMARK  Name = pdb/CHEMBL3943636.pdb
REMARK                            x       y       z     vdW  Elec       q    Type
REMARK                         _______ _______ _______ _____ _____    ______ ____
ROOT
ATOM      1  C   LIG    1       -0.790  -6.517  -1.067  0.00  0.00    +0.323 A 
ATOM      2  N   LIG    1       -1.080  -5.998  -2.274  0.00  0.00    -0.201 NA
ATOM      3  C   LIG    1       -2.363  -6.150  -2.689  0.00  0.00    +0.145 A 
ATOM      4  C   LIG    1       -3.349  -6.820  -1.991  0.00  0.00    +0.105 A 
ATOM      5  C   LIG    1       -2.903  -7.340  -0.789  0.00  0.00    +0.145 A 
ATOM      6  N   LIG    1       -1.640  -7.220  -0.304  0.00  0.00    -0.201 NA
ENDROOT
BRANCH   4   7
ATOM      7  N   LIG    1       -4.688  -6.812  -2.433  0.00  0.00    -0.196 NA
ATOM      8  C   LIG    1       -5.450  -7.848  -2.350  0.00  0.00    +0.285 C 
BRANCH   8   9
ATOM      9  N   LIG    1       -6.770  -7.969  -2.685  0.00  0.00    -0.267 N 
ATOM     10  H   LIG    1       -7.200  -8.891  -2.634  0.00  0.00    +0.157 HD
BRANCH   9  11
ATOM     11  C   LIG    1       -7.748  -6.970  -2.917  0.00  0.00    +0.062 A 
ATOM     12  C   LIG    1       -9.073  -7.322  -3.297  0.00  0.00    +0.087 A 
ATOM     13  C   LIG    1      -10.047  -6.323  -3.510  0.00  0.00    +0.031 A 
ATOM     14  C   LIG    1       -9.719  -4.976  -3.388  0.00  0.00    +0.022 A 
ATOM     15  C   LIG    1       -8.415  -4.620  -3.077  0.00  0.00    +0.043 A 
ATOM     16 CL   LIG    1       -7.999  -2.953  -2.971  0.00  0.00    -0.083 Cl
ATOM     17  C   LIG    1       -7.444  -5.598  -2.845  0.00  0.00    +0.045 A 
BRANCH  12  18
ATOM     18  N   LIG    1       -9.477  -8.681  -3.469  0.00  0.00    -0.238 N 
ATOM     19  N   LIG    1       -8.823  -9.717  -2.860  0.00  0.00    -0.162 NA
ATOM     20  C   LIG    1       -9.597 -10.801  -3.109  0.00  0.00    +0.166 A 
ATOM     21  C   LIG    1      -10.634 -10.487  -4.019  0.00  0.00    +0.054 A 
ATOM     22  C   LIG    1      -10.534  -9.137  -4.226  0.00  0.00    +0.115 A 
BRANCH  20  23
ATOM     23  C   LIG    1       -9.370 -12.157  -2.482  0.00  0.00    +0.436 C 
ATOM     24  F   LIG    1       -9.631 -12.144  -1.149  0.00  0.00    -0.164 F 
ATOM     25  F   LIG    1       -8.093 -12.592  -2.635  0.00  0.00    -0.164 F 
ATOM     26  F   LIG    1      -10.177 -13.108  -3.025  0.00  0.00    -0.164 F 
ENDBRANCH  20  23
ENDBRANCH  12  18
ENDBRANCH   9  11
ENDBRANCH   8   9
BRANCH   8  27
ATOM     27  O   LIG    1       -4.957  -9.015  -1.881  0.00  0.00    -0.481 OA
ATOM     28  H   LIG    1       -5.641  -9.691  -1.791  0.00  0.00    +0.295 HD
ENDBRANCH   8  27
ENDBRANCH   4   7
BRANCH   1  29
ATOM     29  O   LIG    1        0.478  -6.338  -0.529  0.00  0.00    -0.424 OA
BRANCH  29  33
ATOM     30  C   LIG    1        2.561  -2.677  -0.950  0.00  0.00    -0.014 A 
ATOM     31  C   LIG    1        3.198  -3.897  -0.656  0.00  0.00    +0.012 A 
ATOM     32  C   LIG    1        2.480  -5.099  -0.539  0.00  0.00    +0.047 A 
ATOM     33  C   LIG    1        1.093  -5.114  -0.676  0.00  0.00    +0.132 A 
ATOM     34  C   LIG    1        0.431  -3.908  -0.878  0.00  0.00    +0.047 A 
ATOM     35  C   LIG    1        1.156  -2.720  -1.047  0.00  0.00    +0.012 A 
BRANCH  30  37
ATOM     36  C   LIG    1        4.593  -1.280  -1.700  0.00  0.00    +0.124 A 
ATOM     37  C   LIG    1        3.300  -1.392  -1.136  0.00  0.00    +0.023 A 
ATOM     38  C   LIG    1        2.699  -0.172  -0.758  0.00  0.00    +0.033 A 
ATOM     39  C   LIG    1        3.350   1.044  -0.944  0.00  0.00    +0.060 A 
ATOM     40 CL   LIG    1        2.582   2.519  -0.517  0.00  0.00    -0.082 Cl
ATOM     41  C   LIG    1        4.616   1.028  -1.487  0.00  0.00    +0.133 A 
ATOM     42  N   LIG    1        5.248  -0.105  -1.863  0.00  0.00    -0.239 NA
BRANCH  36  43
ATOM     43  N   LIG    1        5.322  -2.376  -2.152  0.00  0.00    -0.343 N 
ATOM     44  H   LIG    1        4.790  -2.906  -2.835  0.00  0.00    +0.144 HD
ATOM     45  H   LIG    1        6.185  -2.011  -2.545  0.00  0.00    +0.144 HD
ENDBRANCH  36  43
ENDBRANCH  30  37
ENDBRANCH  29  33
ENDBRANCH   1  29
TORSDOF 10
