REMARK  Name = pdb/CHEMBL3661502.pdb
REMARK                            x       y       z     vdW  Elec       q    Type
REMARK                         _______ _______ _______ _____ _____    ______ ____
ROOT
ATOM      1  C   LIG    1        4.285  -1.079  -4.672  0.00  0.00    +0.042 A 
ATOM      2  C   LIG    1        5.427  -0.897  -5.465  0.00  0.00    +0.038 A 
ATOM      3  C   LIG    1        5.357  -0.104  -6.620  0.00  0.00    +0.052 A 
ATOM      4  C   LIG    1        4.137   0.505  -6.905  0.00  0.00    +0.134 A 
ATOM      5  N   LIG    1        3.029   0.386  -6.133  0.00  0.00    -0.261 NA
ATOM      6  C   LIG    1        3.134  -0.391  -5.033  0.00  0.00    +0.122 A 
ENDROOT
BRANCH   3   7
ATOM      7  N   LIG    1        6.517   0.034  -7.413  0.00  0.00    -0.283 N 
ATOM      8  H   LIG    1        7.387  -0.267  -6.978  0.00  0.00    +0.155 HD
ATOM      9  C   LIG    1        6.577   0.538  -8.702  0.00  0.00    +0.240 C 
ATOM     10  O   LIG    1        5.591   0.927  -9.333  0.00  0.00    -0.273 OA
BRANCH   9  11
ATOM     11  C   LIG    1        7.925   0.569  -9.393  0.00  0.00    +0.262 C 
BRANCH  11  12
ATOM     12  N   LIG    1        9.030   0.062  -8.609  0.00  0.00    -0.173 N 
ATOM     13  N   LIG    1        9.365   0.647  -7.446  0.00  0.00    -0.152 NA
ATOM     14  C   LIG    1       10.438  -0.065  -7.064  0.00  0.00    +0.113 A 
ATOM     15  C   LIG    1       11.267   0.106  -5.944  0.00  0.00    +0.032 A 
ATOM     16  C   LIG    1       12.311  -0.834  -5.850  0.00  0.00    +0.002 A 
ATOM     17  C   LIG    1       12.514  -1.875  -6.799  0.00  0.00    +0.002 A 
ATOM     18  C   LIG    1       11.689  -2.070  -7.923  0.00  0.00    +0.032 A 
ATOM     19  C   LIG    1       10.644  -1.140  -8.041  0.00  0.00    +0.113 A 
ATOM     20  N   LIG    1        9.692  -1.042  -8.982  0.00  0.00    -0.152 NA
ENDBRANCH  11  12
ENDBRANCH   9  11
ENDBRANCH   3   7
BRANCH   1  21
ATOM     21  C   LIG    1        4.322  -1.934  -3.456  0.00  0.00    +0.197 C 
ATOM     22  O   LIG    1        5.393  -2.055  -2.860  0.00  0.00    -0.287 OA
BRANCH  21  30
ATOM     23  N   LIG    1        1.046  -3.508  -2.920  0.00  0.00    -0.329 N 
ATOM     24  C   LIG    1        1.524  -3.545  -1.634  0.00  0.00    +0.145 A 
ATOM     25  N   LIG    1        0.880  -4.049  -0.566  0.00  0.00    -0.218 NA
ATOM     26  C   LIG    1        1.612  -3.955   0.556  0.00  0.00    +0.223 A 
ATOM     27  N   LIG    1        2.833  -3.408   0.704  0.00  0.00    -0.243 NA
ATOM     28  C   LIG    1        3.436  -2.905  -0.398  0.00  0.00    +0.124 A 
ATOM     29  C   LIG    1        2.794  -2.975  -1.635  0.00  0.00    +0.048 A 
ATOM     30  C   LIG    1        3.101  -2.587  -2.978  0.00  0.00    +0.051 A 
ATOM     31  C   LIG    1        2.026  -3.007  -3.749  0.00  0.00    +0.100 A 
BRANCH  23  33
ATOM     32  C   LIG    1       -0.496  -5.447  -3.058  0.00  0.00    +0.030 C 
ATOM     33  C   LIG    1       -0.255  -3.978  -3.394  0.00  0.00    +0.083 C 
ATOM     34  C   LIG    1       -1.422  -3.093  -2.948  0.00  0.00    +0.030 C 
ENDBRANCH  23  33
ENDBRANCH  21  30
ENDBRANCH   1  21
TORSDOF 6
