REMARK  Name = pdb/CHEMBL3985003.pdb
REMARK                            x       y       z     vdW  Elec       q    Type
REMARK                         _______ _______ _______ _____ _____    ______ ____
ROOT
ATOM      1  C   LIG    1       11.137  -1.511  -0.988  0.00  0.00    +0.149 A 
ATOM      2  N   LIG    1       11.700  -1.010   0.119  0.00  0.00    -0.160 NA
ATOM      3  N   LIG    1       11.760   0.339  -0.081  0.00  0.00    -0.218 N 
ATOM      4  C   LIG    1       11.241   0.691  -1.343  0.00  0.00    +0.129 A 
ATOM      5  C   LIG    1       10.844  -0.500  -1.919  0.00  0.00    +0.078 A 
ENDROOT
BRANCH   3   6
ATOM      6  C   LIG    1       12.248   1.154   0.991  0.00  0.00    +0.067 A 
ATOM      7  C   LIG    1       12.701   2.461   0.813  0.00  0.00    +0.028 A 
ATOM      8  C   LIG    1       13.109   3.237   1.905  0.00  0.00    +0.002 A 
ATOM      9  C   LIG    1       13.098   2.702   3.188  0.00  0.00    +0.000 A 
ATOM     10  C   LIG    1       12.690   1.386   3.379  0.00  0.00    +0.002 A 
ATOM     11  C   LIG    1       12.275   0.614   2.290  0.00  0.00    +0.028 A 
ENDBRANCH   3   6
BRANCH   4  12
ATOM     12  N   LIG    1       11.056   1.961  -1.908  0.00  0.00    -0.266 N 
ATOM     13  H   LIG    1       11.361   2.764  -1.373  0.00  0.00    +0.157 HD
ATOM     14  C   LIG    1       10.447   2.219  -3.193  0.00  0.00    +0.251 C 
ATOM     15  O   LIG    1        9.996   1.306  -3.883  0.00  0.00    -0.270 OA
BRANCH  14  16
ATOM     16  C   LIG    1       10.331   3.628  -3.637  0.00  0.00    +0.056 A 
ATOM     17  C   LIG    1       11.249   4.624  -3.292  0.00  0.00    +0.054 A 
ATOM     18 CL   LIG    1       12.646   4.362  -2.327  0.00  0.00    -0.083 Cl
ATOM     19  C   LIG    1       11.070   5.926  -3.748  0.00  0.00    +0.041 A 
ATOM     20  C   LIG    1        9.970   6.274  -4.540  0.00  0.00    +0.052 A 
ATOM     21 CL   LIG    1        9.848   7.966  -4.879  0.00  0.00    -0.083 Cl
ATOM     22  C   LIG    1        9.032   5.304  -4.946  0.00  0.00    +0.019 A 
ATOM     23  C   LIG    1        9.253   3.980  -4.477  0.00  0.00    +0.026 A 
BRANCH  22  24
ATOM     24  C   LIG    1        7.824   5.580  -5.770  0.00  0.00    +0.072 A 
ATOM     25  N   LIG    1        6.758   4.784  -5.489  0.00  0.00    -0.255 NA
ATOM     26  C   LIG    1        5.611   4.980  -6.183  0.00  0.00    +0.111 A 
ATOM     27  C   LIG    1        5.452   5.953  -7.151  0.00  0.00    +0.020 A 
ATOM     28  C   LIG    1        6.543   6.753  -7.447  0.00  0.00    +0.004 A 
ATOM     29  C   LIG    1        7.746   6.548  -6.771  0.00  0.00    +0.028 A 
ENDBRANCH  22  24
ENDBRANCH  14  16
ENDBRANCH   4  12
BRANCH   1  31
ATOM     30  N   LIG    1       10.283  -3.424  -2.134  0.00  0.00    -0.243 NA
ATOM     31  C   LIG    1       10.885  -2.941  -1.106  0.00  0.00    +0.236 C 
BRANCH  31  32
ATOM     32  O   LIG    1       11.327  -3.674  -0.059  0.00  0.00    -0.491 OA
ATOM     33  H   LIG    1       11.724  -3.073   0.601  0.00  0.00    +0.294 HD
ENDBRANCH  31  32
BRANCH  30  34
ATOM     34  C   LIG    1       10.082  -4.873  -2.122  0.00  0.00    +0.200 C 
BRANCH  34  39
ATOM     35  C   LIG    1        5.150  -4.788  -1.409  0.00  0.00    +0.086 C 
ATOM     36  C   LIG    1        6.568  -5.162  -1.206  0.00  0.00    +0.104 A 
ATOM     37  N   LIG    1        7.575  -4.712  -2.022  0.00  0.00    -0.344 N 
ATOM     38  H   LIG    1        7.467  -4.112  -2.828  0.00  0.00    +0.167 HD
ATOM     39  C   LIG    1        8.763  -5.184  -1.525  0.00  0.00    +0.057 A 
ATOM     40  C   LIG    1        8.408  -5.939  -0.431  0.00  0.00    +0.135 A 
ATOM     41  N   LIG    1        7.051  -5.920  -0.243  0.00  0.00    -0.241 NA
ENDBRANCH  34  39
ENDBRANCH  30  34
ENDBRANCH   1  31
TORSDOF 8
