REMARK  Name = pdb/CHEMBL3980190.pdb
REMARK                            x       y       z     vdW  Elec       q    Type
REMARK                         _______ _______ _______ _____ _____    ______ ____
ROOT
ATOM      1  C   LIG    1        4.290   1.929  -4.796  0.00  0.00    +0.027 A 
ATOM      2  C   LIG    1        5.552   2.246  -5.311  0.00  0.00    +0.060 A 
ATOM      3  C   LIG    1        5.744   3.479  -5.916  0.00  0.00    +0.157 A 
ATOM      4  N   LIG    1        4.757   4.398  -6.034  0.00  0.00    -0.236 NA
ATOM      5  C   LIG    1        3.545   4.069  -5.532  0.00  0.00    +0.114 A 
ATOM      6  C   LIG    1        3.268   2.871  -4.897  0.00  0.00    +0.031 A 
ENDROOT
BRANCH   1   7
ATOM      7  C   LIG    1        4.114   0.635  -4.073  0.00  0.00    +0.195 C 
ATOM      8  O   LIG    1        5.109   0.137  -3.543  0.00  0.00    -0.287 OA
BRANCH   7  16
ATOM      9  N   LIG    1        0.692  -0.682  -4.365  0.00  0.00    -0.343 N 
ATOM     10  C   LIG    1        1.025  -1.202  -3.127  0.00  0.00    +0.053 A 
ATOM     11  C   LIG    1        0.302  -1.971  -2.206  0.00  0.00    +0.046 A 
ATOM     12  C   LIG    1        0.996  -2.365  -1.070  0.00  0.00    +0.113 A 
ATOM     13  N   LIG    1        2.283  -2.065  -0.811  0.00  0.00    -0.263 NA
ATOM     14  C   LIG    1        2.970  -1.309  -1.703  0.00  0.00    +0.121 A 
ATOM     15  C   LIG    1        2.356  -0.841  -2.876  0.00  0.00    +0.029 A 
ATOM     16  C   LIG    1        2.797   0.003  -3.952  0.00  0.00    +0.049 A 
ATOM     17  C   LIG    1        1.755   0.040  -4.862  0.00  0.00    +0.099 A 
BRANCH   9  19
ATOM     18  C   LIG    1       -1.270   0.387  -5.463  0.00  0.00    +0.030 C 
ATOM     19  C   LIG    1       -0.560  -0.917  -5.091  0.00  0.00    +0.081 C 
ATOM     20  C   LIG    1       -0.330  -1.774  -6.338  0.00  0.00    +0.030 C 
ENDBRANCH   9  19
ENDBRANCH   7  16
ENDBRANCH   1   7
BRANCH   3  21
ATOM     21  N   LIG    1        6.996   3.795  -6.446  0.00  0.00    -0.197 NA
ATOM     22  C   LIG    1        7.430   5.010  -6.534  0.00  0.00    +0.193 C 
BRANCH  22  23
ATOM     23  O   LIG    1        6.720   6.102  -6.181  0.00  0.00    -0.495 OA
ATOM     24  H   LIG    1        5.810   5.821  -5.957  0.00  0.00    +0.293 HD
ENDBRANCH  22  23
BRANCH  22  25
ATOM     25  C   LIG    1        8.791   5.358  -7.084  0.00  0.00    +0.130 C 
BRANCH  25  26
ATOM     26  C   LIG    1        9.931   4.754  -6.298  0.00  0.00    -0.038 A 
ATOM     27  C   LIG    1       10.515   5.458  -5.237  0.00  0.00    +0.004 A 
ATOM     28  C   LIG    1       11.578   4.903  -4.519  0.00  0.00    +0.012 A 
ATOM     29  C   LIG    1       12.073   3.630  -4.842  0.00  0.00    +0.055 A 
ATOM     30  C   LIG    1       11.476   2.922  -5.894  0.00  0.00    +0.012 A 
ATOM     31  C   LIG    1       10.413   3.477  -6.612  0.00  0.00    +0.004 A 
BRANCH  29  32
ATOM     32  C   LIG    1       13.226   3.051  -4.061  0.00  0.00    +0.417 C 
ATOM     33  F   LIG    1       12.948   2.925  -2.733  0.00  0.00    -0.166 F 
ATOM     34  F   LIG    1       14.345   3.826  -4.134  0.00  0.00    -0.166 F 
ATOM     35  F   LIG    1       13.606   1.812  -4.481  0.00  0.00    -0.166 F 
ENDBRANCH  29  32
ENDBRANCH  25  26
ENDBRANCH  22  25
ENDBRANCH   3  21
TORSDOF 8
