REMARK  Name = pdb/CHEMBL3675965.pdb
REMARK                            x       y       z     vdW  Elec       q    Type
REMARK                         _______ _______ _______ _____ _____    ______ ____
ROOT
ATOM      1  C   LIG    1        5.859  -0.359  -1.792  0.00  0.00    +0.109 C 
ATOM      2  N   LIG    1        6.342  -0.463  -0.377  0.00  0.00    -0.308 N 
ATOM      3  C   LIG    1        6.200  -1.871   0.068  0.00  0.00    +0.107 C 
ATOM      4  C   LIG    1        5.256  -2.519  -0.920  0.00  0.00    +0.021 C 
ATOM      5  C   LIG    1        5.676  -1.841  -2.197  0.00  0.00    +0.029 C 
ENDROOT
BRANCH   2   6
ATOM      6  C   LIG    1        6.154   0.515   0.608  0.00  0.00    +0.126 A 
ATOM      7  N   LIG    1        5.440   1.602   0.406  0.00  0.00    -0.212 NA
ATOM      8  C   LIG    1        5.211   2.441   1.476  0.00  0.00    +0.170 A 
ATOM      9  C   LIG    1        4.564   3.662   1.602  0.00  0.00    +0.100 A 
ATOM     10  C   LIG    1        4.576   3.931   2.987  0.00  0.00    +0.150 A 
ATOM     11  N   LIG    1        5.230   3.011   3.693  0.00  0.00    -0.173 NA
ATOM     12  N   LIG    1        5.652   2.124   2.765  0.00  0.00    -0.221 N 
ATOM     13  C   LIG    1        6.461   1.026   2.980  0.00  0.00    +0.118 A 
ATOM     14  C   LIG    1        6.792   0.235   1.958  0.00  0.00    +0.063 A 
BRANCH   9  15
ATOM     15  C   LIG    1        3.982   4.521   0.591  0.00  0.00    +0.249 C 
ATOM     16  N   LIG    1        4.568   4.411  -0.653  0.00  0.00    -0.308 N 
ATOM     17  H   LIG    1        5.300   3.724  -0.764  0.00  0.00    +0.149 HD
ATOM     18  O   LIG    1        3.101   5.324   0.858  0.00  0.00    -0.270 OA
BRANCH  16  19
ATOM     19  C   LIG    1        4.211   5.244  -1.750  0.00  0.00    +0.073 C 
ATOM     20  C   LIG    1        2.999   4.911  -2.573  0.00  0.00    +0.024 C 
ATOM     21  C   LIG    1        4.368   4.768  -3.167  0.00  0.00    +0.024 C 
ENDBRANCH  16  19
ENDBRANCH   9  15
ENDBRANCH   2   6
BRANCH   1  23
ATOM     22  C   LIG    1        7.297   0.053  -3.965  0.00  0.00    +0.126 A 
ATOM     23  C   LIG    1        6.751   0.477  -2.726  0.00  0.00    +0.017 A 
ATOM     24  C   LIG    1        6.956   1.830  -2.393  0.00  0.00    +0.047 A 
ATOM     25  C   LIG    1        7.687   2.698  -3.196  0.00  0.00    +0.124 A 
ATOM     26  F   LIG    1        7.827   3.978  -2.826  0.00  0.00    -0.205 F 
ATOM     27  C   LIG    1        8.259   2.257  -4.370  0.00  0.00    +0.042 A 
ATOM     28  C   LIG    1        8.073   0.931  -4.749  0.00  0.00    +0.049 A 
BRANCH  22  29
ATOM     29  O   LIG    1        7.074  -1.233  -4.375  0.00  0.00    -0.489 OA
BRANCH  29  30
ATOM     30  C   LIG    1        7.059  -1.499  -5.780  0.00  0.00    +0.257 C 
BRANCH  30  31
ATOM     31  C   LIG    1        6.152  -2.702  -6.032  0.00  0.00    +0.200 C 
BRANCH  31  33
ATOM     32  C   LIG    1        5.257  -4.102  -7.702  0.00  0.00    +0.194 C 
ATOM     33  O   LIG    1        6.112  -2.997  -7.428  0.00  0.00    -0.380 OA
ENDBRANCH  31  33
ENDBRANCH  30  31
ENDBRANCH  29  30
ENDBRANCH  22  29
ENDBRANCH   1  23
TORSDOF 8
