REMARK  Name = pdb/CHEMBL3960672.pdb
REMARK                            x       y       z     vdW  Elec       q    Type
REMARK                         _______ _______ _______ _____ _____    ______ ____
ROOT
ATOM      1  C   LIG    1        2.046  -1.567   0.884  0.00  0.00    +0.149 A 
ATOM      2  N   LIG    1        2.004  -2.870   0.585  0.00  0.00    -0.160 NA
ATOM      3  N   LIG    1        3.098  -3.418   1.169  0.00  0.00    -0.218 N 
ATOM      4  C   LIG    1        3.934  -2.437   1.720  0.00  0.00    +0.129 A 
ATOM      5  C   LIG    1        3.218  -1.258   1.619  0.00  0.00    +0.078 A 
ENDROOT
BRANCH   3   6
ATOM      6  C   LIG    1        3.280  -4.830   1.086  0.00  0.00    +0.067 A 
ATOM      7  C   LIG    1        4.083  -5.530   1.988  0.00  0.00    +0.028 A 
ATOM      8  C   LIG    1        4.250  -6.913   1.859  0.00  0.00    +0.002 A 
ATOM      9  C   LIG    1        3.600  -7.607   0.840  0.00  0.00    +0.000 A 
ATOM     10  C   LIG    1        2.768  -6.923  -0.042  0.00  0.00    +0.002 A 
ATOM     11  C   LIG    1        2.598  -5.544   0.086  0.00  0.00    +0.028 A 
ENDBRANCH   3   6
BRANCH   4  12
ATOM     12  N   LIG    1        5.253  -2.588   2.181  0.00  0.00    -0.266 N 
ATOM     13  H   LIG    1        5.661  -3.515   2.121  0.00  0.00    +0.157 HD
ATOM     14  C   LIG    1        6.102  -1.496   2.610  0.00  0.00    +0.251 C 
ATOM     15  O   LIG    1        5.703  -0.364   2.623  0.00  0.00    -0.270 OA
BRANCH  14  16
ATOM     16  C   LIG    1        7.528  -1.810   2.935  0.00  0.00    +0.056 A 
ATOM     17  C   LIG    1        7.954  -3.039   3.438  0.00  0.00    +0.054 A 
ATOM     18 CL   LIG    1        6.887  -4.279   3.964  0.00  0.00    -0.083 Cl
ATOM     19  C   LIG    1        9.315  -3.286   3.597  0.00  0.00    +0.041 A 
ATOM     20  C   LIG    1       10.267  -2.289   3.345  0.00  0.00    +0.052 A 
ATOM     21 CL   LIG    1       11.910  -2.799   3.544  0.00  0.00    -0.083 Cl
ATOM     22  C   LIG    1        9.868  -0.980   2.992  0.00  0.00    +0.022 A 
ATOM     23  C   LIG    1        8.487  -0.791   2.741  0.00  0.00    +0.026 A 
BRANCH  22  24
ATOM     24  C   LIG    1       10.804   0.178   2.971  0.00  0.00    +0.107 A 
ATOM     25  C   LIG    1       10.460   1.439   3.474  0.00  0.00    +0.149 A 
ATOM     26  F   LIG    1        9.213   1.710   3.890  0.00  0.00    -0.203 F 
ATOM     27  C   LIG    1       11.426   2.435   3.588  0.00  0.00    +0.042 A 
ATOM     28  C   LIG    1       12.727   2.162   3.189  0.00  0.00    +0.023 A 
ATOM     29  C   LIG    1       12.992   0.912   2.660  0.00  0.00    +0.111 A 
ATOM     30  N   LIG    1       12.062  -0.064   2.527  0.00  0.00    -0.252 NA
ENDBRANCH  22  24
ENDBRANCH  14  16
ENDBRANCH   4  12
BRANCH   1  31
ATOM     31  C   LIG    1        1.016  -0.634   0.424  0.00  0.00    +0.236 C 
ATOM     32  N   LIG    1        0.832   0.472   1.045  0.00  0.00    -0.247 NA
BRANCH  31  33
ATOM     33  O   LIG    1        0.340  -1.024  -0.677  0.00  0.00    -0.491 OA
ATOM     34  H   LIG    1       -0.338  -0.392  -0.942  0.00  0.00    +0.294 HD
ENDBRANCH  31  33
BRANCH  32  35
ATOM     35  C   LIG    1       -0.125   1.457   0.540  0.00  0.00    +0.168 C 
BRANCH  35  36
ATOM     36  C   LIG    1       -0.197   2.644   1.500  0.00  0.00    +0.168 C 
BRANCH  36  37
ATOM     37  N   LIG    1        1.070   3.328   1.620  0.00  0.00    -0.250 N 
ATOM     38  N   LIG    1        1.401   4.335   0.790  0.00  0.00    -0.158 NA
ATOM     39  C   LIG    1        2.621   4.647   1.236  0.00  0.00    +0.244 A 
ATOM     40  N   LIG    1        3.068   3.899   2.289  0.00  0.00    -0.223 NA
ATOM     41  C   LIG    1        2.067   3.079   2.511  0.00  0.00    +0.219 A 
ENDBRANCH  36  37
ENDBRANCH  35  36
ENDBRANCH  32  35
ENDBRANCH   1  31
TORSDOF 9
