REMARK  Name = pdb/CHEMBL3675938.pdb
REMARK                            x       y       z     vdW  Elec       q    Type
REMARK                         _______ _______ _______ _____ _____    ______ ____
ROOT
ATOM      1  C   LIG    1        6.797   4.819   0.729  0.00  0.00    +0.100 A 
ATOM      2  C   LIG    1        6.023   5.964   0.600  0.00  0.00    +0.170 A 
ATOM      3  N   LIG    1        4.670   6.170   0.479  0.00  0.00    -0.212 NA
ATOM      4  C   LIG    1        4.226   7.406   0.335  0.00  0.00    +0.126 A 
ATOM      5  C   LIG    1        5.175   8.576   0.242  0.00  0.00    +0.063 A 
ATOM      6  C   LIG    1        6.481   8.324   0.383  0.00  0.00    +0.118 A 
ATOM      7  N   LIG    1        6.926   7.030   0.588  0.00  0.00    -0.221 N 
ATOM      8  N   LIG    1        8.206   6.624   0.765  0.00  0.00    -0.173 NA
ATOM      9  C   LIG    1        8.117   5.298   0.859  0.00  0.00    +0.150 A 
ENDROOT
BRANCH   4  10
ATOM     10  N   LIG    1        2.852   7.620   0.245  0.00  0.00    -0.308 N 
ATOM     11  C   LIG    1        2.166   8.893   0.586  0.00  0.00    +0.106 C 
ATOM     12  C   LIG    1        0.891   8.394   1.294  0.00  0.00    +0.029 C 
ATOM     13  C   LIG    1        0.544   7.116   0.545  0.00  0.00    +0.021 C 
ATOM     14  C   LIG    1        1.917   6.484   0.343  0.00  0.00    +0.107 C 
BRANCH  11  15
ATOM     15  C   LIG    1        1.869   9.747  -0.663  0.00  0.00    -0.013 A 
ATOM     16  C   LIG    1        1.715  11.163  -0.668  0.00  0.00    +0.060 A 
ATOM     17  C   LIG    1        1.446  11.833  -1.894  0.00  0.00    +0.015 A 
ATOM     18  C   LIG    1        1.294  11.143  -3.090  0.00  0.00    +0.039 A 
ATOM     19  C   LIG    1        1.416   9.769  -3.080  0.00  0.00    +0.124 A 
ATOM     20  F   LIG    1        1.250   9.082  -4.216  0.00  0.00    -0.205 F 
ATOM     21  C   LIG    1        1.706   9.085  -1.904  0.00  0.00    +0.044 A 
BRANCH  16  22
ATOM     22  C   LIG    1        1.782  12.098   0.526  0.00  0.00    +0.418 C 
ATOM     23  F   LIG    1        0.600  12.752   0.718  0.00  0.00    -0.166 F 
ATOM     24  F   LIG    1        2.711  13.082   0.346  0.00  0.00    -0.166 F 
ATOM     25  F   LIG    1        2.081  11.512   1.711  0.00  0.00    -0.166 F 
ENDBRANCH  16  22
ENDBRANCH  11  15
ENDBRANCH   4  10
BRANCH   1  28
ATOM     26  N   LIG    1        5.257   3.145   0.029  0.00  0.00    -0.309 N 
ATOM     27  H   LIG    1        4.821   3.897  -0.499  0.00  0.00    +0.149 HD
ATOM     28  C   LIG    1        6.399   3.431   0.725  0.00  0.00    +0.249 C 
ATOM     29  O   LIG    1        7.090   2.555   1.260  0.00  0.00    -0.270 OA
BRANCH  26  30
ATOM     30  C   LIG    1        4.776   1.790  -0.148  0.00  0.00    +0.138 C 
BRANCH  30  31
ATOM     31  C   LIG    1        5.409   1.059  -1.342  0.00  0.00    +0.157 C 
BRANCH  31  32
ATOM     32  O   LIG    1        5.095   1.750  -2.563  0.00  0.00    -0.388 OA
ATOM     33  H   LIG    1        5.658   1.339  -3.245  0.00  0.00    +0.210 HD
ENDBRANCH  31  32
BRANCH  31  34
ATOM     34  C   LIG    1        4.841  -0.362  -1.424  0.00  0.00    +0.188 C 
BRANCH  34  35
ATOM     35  O   LIG    1        5.403  -1.060  -2.535  0.00  0.00    -0.392 OA
ATOM     36  H   LIG    1        4.815  -0.902  -3.295  0.00  0.00    +0.210 HD
ENDBRANCH  34  35
ENDBRANCH  31  34
ENDBRANCH  30  31
ENDBRANCH  26  30
ENDBRANCH   1  28
TORSDOF 9
