REMARK  Name = pdb/CHEMBL3976305.pdb
REMARK                            x       y       z     vdW  Elec       q    Type
REMARK                         _______ _______ _______ _____ _____    ______ ____
ROOT
ATOM      1  C   LIG    1       -0.793  -6.218  -0.679  0.00  0.00    +0.323 A 
ATOM      2  N   LIG    1       -1.521  -5.193  -1.158  0.00  0.00    -0.201 NA
ATOM      3  C   LIG    1       -2.490  -5.505  -2.041  0.00  0.00    +0.145 A 
ATOM      4  C   LIG    1       -2.711  -6.762  -2.559  0.00  0.00    +0.105 A 
ATOM      5  C   LIG    1       -1.895  -7.732  -2.001  0.00  0.00    +0.145 A 
ATOM      6  N   LIG    1       -0.930  -7.497  -1.068  0.00  0.00    -0.201 NA
ENDROOT
BRANCH   4   7
ATOM      7  N   LIG    1       -3.762  -7.061  -3.448  0.00  0.00    -0.196 NA
ATOM      8  C   LIG    1       -4.119  -6.303  -4.421  0.00  0.00    +0.285 C 
BRANCH   8   9
ATOM      9  N   LIG    1       -5.205  -6.443  -5.238  0.00  0.00    -0.269 N 
ATOM     10  H   LIG    1       -5.191  -5.850  -6.058  0.00  0.00    +0.157 HD
BRANCH   9  11
ATOM     11  C   LIG    1       -6.417  -7.087  -4.948  0.00  0.00    +0.047 A 
ATOM     12  C   LIG    1       -7.200  -7.674  -5.963  0.00  0.00    +0.077 A 
ATOM     13  C   LIG    1       -8.392  -8.352  -5.616  0.00  0.00    +0.026 A 
ATOM     14  C   LIG    1       -8.811  -8.477  -4.286  0.00  0.00    +0.055 A 
ATOM     15  C   LIG    1       -8.029  -7.898  -3.287  0.00  0.00    +0.014 A 
ATOM     16  C   LIG    1       -6.852  -7.221  -3.617  0.00  0.00    +0.024 A 
BRANCH  12  17
ATOM     17  C   LIG    1       -6.838  -7.656  -7.430  0.00  0.00    +0.419 C 
ATOM     18  F   LIG    1       -7.727  -6.927  -8.163  0.00  0.00    -0.166 F 
ATOM     19  F   LIG    1       -6.848  -8.904  -7.979  0.00  0.00    -0.166 F 
ATOM     20  F   LIG    1       -5.614  -7.131  -7.716  0.00  0.00    -0.166 F 
ENDBRANCH  12  17
BRANCH  14  21
ATOM     21  C   LIG    1      -10.072  -9.238  -3.956  0.00  0.00    +0.417 C 
ATOM     22  F   LIG    1      -10.019 -10.531  -4.380  0.00  0.00    -0.166 F 
ATOM     23  F   LIG    1      -11.171  -8.695  -4.547  0.00  0.00    -0.166 F 
ATOM     24  F   LIG    1      -10.346  -9.289  -2.624  0.00  0.00    -0.166 F 
ENDBRANCH  14  21
ENDBRANCH   9  11
ENDBRANCH   8   9
BRANCH   8  25
ATOM     25  O   LIG    1       -3.420  -5.227  -4.839  0.00  0.00    -0.481 OA
ATOM     26  H   LIG    1       -2.500  -5.264  -4.538  0.00  0.00    +0.295 HD
ENDBRANCH   8  25
ENDBRANCH   4   7
BRANCH   1  27
ATOM     27  O   LIG    1        0.164  -5.958   0.306  0.00  0.00    -0.424 OA
BRANCH  27  31
ATOM     28  C   LIG    1       -0.524  -2.621   2.831  0.00  0.00    -0.014 A 
ATOM     29  C   LIG    1       -1.577  -3.453   2.404  0.00  0.00    +0.012 A 
ATOM     30  C   LIG    1       -1.359  -4.584   1.613  0.00  0.00    +0.047 A 
ATOM     31  C   LIG    1       -0.083  -4.891   1.147  0.00  0.00    +0.132 A 
ATOM     32  C   LIG    1        0.991  -4.119   1.586  0.00  0.00    +0.047 A 
ATOM     33  C   LIG    1        0.769  -3.007   2.423  0.00  0.00    +0.012 A 
BRANCH  28  35
ATOM     34  C   LIG    1       -0.018  -0.255   3.739  0.00  0.00    +0.124 A 
ATOM     35  C   LIG    1       -0.796  -1.433   3.700  0.00  0.00    +0.023 A 
ATOM     36  C   LIG    1       -1.909  -1.446   4.572  0.00  0.00    +0.033 A 
ATOM     37  C   LIG    1       -2.194  -0.366   5.401  0.00  0.00    +0.060 A 
ATOM     38 CL   LIG    1       -3.551  -0.399   6.450  0.00  0.00    -0.082 Cl
ATOM     39  C   LIG    1       -1.353   0.724   5.359  0.00  0.00    +0.133 A 
ATOM     40  N   LIG    1       -0.275   0.798   4.550  0.00  0.00    -0.239 NA
BRANCH  34  41
ATOM     41  N   LIG    1        1.094  -0.036   2.930  0.00  0.00    -0.343 N 
ATOM     42  H   LIG    1        0.838  -0.085   1.950  0.00  0.00    +0.144 HD
ATOM     43  H   LIG    1        1.436   0.891   3.175  0.00  0.00    +0.144 HD
ENDBRANCH  34  41
ENDBRANCH  28  35
ENDBRANCH  27  31
ENDBRANCH   1  27
TORSDOF 10
