REMARK  Name = pdb/CHEMBL3909331.pdb
REMARK                            x       y       z     vdW  Elec       q    Type
REMARK                         _______ _______ _______ _____ _____    ______ ____
ROOT
ATOM      1  C   LIG    1       -0.675  -6.504  -0.875  0.00  0.00    +0.323 A 
ATOM      2  N   LIG    1       -0.994  -5.679  -1.886  0.00  0.00    -0.201 NA
ATOM      3  C   LIG    1       -2.288  -5.650  -2.259  0.00  0.00    +0.145 A 
ATOM      4  C   LIG    1       -3.270  -6.467  -1.740  0.00  0.00    +0.105 A 
ATOM      5  C   LIG    1       -2.793  -7.327  -0.761  0.00  0.00    +0.145 A 
ATOM      6  N   LIG    1       -1.519  -7.371  -0.300  0.00  0.00    -0.201 NA
ENDROOT
BRANCH   4   7
ATOM      7  N   LIG    1       -4.630  -6.514  -2.091  0.00  0.00    -0.196 NA
ATOM      8  C   LIG    1       -5.103  -6.004  -3.170  0.00  0.00    +0.285 C 
BRANCH   8   9
ATOM      9  N   LIG    1       -6.411  -6.149  -3.531  0.00  0.00    -0.269 N 
ATOM     10  H   LIG    1       -6.892  -6.761  -2.876  0.00  0.00    +0.157 HD
BRANCH   9  11
ATOM     11  C   LIG    1       -6.863  -6.378  -4.854  0.00  0.00    +0.043 A 
ATOM     12  C   LIG    1       -6.397  -7.399  -5.729  0.00  0.00    +0.005 A 
ATOM     13  C   LIG    1       -7.041  -7.473  -6.990  0.00  0.00    +0.011 A 
ATOM     14  C   LIG    1       -8.073  -6.606  -7.373  0.00  0.00    +0.013 A 
ATOM     15  C   LIG    1       -8.534  -5.626  -6.498  0.00  0.00    +0.057 A 
ATOM     16  C   LIG    1       -7.934  -5.538  -5.241  0.00  0.00    +0.036 A 
BRANCH  12  17
ATOM     17  C   LIG    1       -5.305  -8.382  -5.435  0.00  0.00    +0.002 A 
ATOM     18  C   LIG    1       -4.445  -8.857  -6.438  0.00  0.00    +0.119 A 
ATOM     19  N   LIG    1       -3.445  -9.765  -6.276  0.00  0.00    -0.263 NA
ATOM     20  C   LIG    1       -3.246 -10.228  -5.030  0.00  0.00    +0.111 A 
ATOM     21  C   LIG    1       -4.019  -9.841  -3.954  0.00  0.00    +0.020 A 
ATOM     22  C   LIG    1       -5.067  -8.940  -4.172  0.00  0.00    +0.011 A 
ENDBRANCH  12  17
BRANCH  15  23
ATOM     23  C   LIG    1       -9.653  -4.695  -6.895  0.00  0.00    +0.417 C 
ATOM     24  F   LIG    1      -10.800  -5.362  -7.199  0.00  0.00    -0.166 F 
ATOM     25  F   LIG    1       -9.346  -3.951  -7.992  0.00  0.00    -0.166 F 
ATOM     26  F   LIG    1       -9.986  -3.803  -5.921  0.00  0.00    -0.166 F 
ENDBRANCH  15  23
ENDBRANCH   9  11
ENDBRANCH   8   9
BRANCH   8  27
ATOM     27  O   LIG    1       -4.388  -5.267  -4.037  0.00  0.00    -0.481 OA
ATOM     28  H   LIG    1       -4.957  -4.923  -4.742  0.00  0.00    +0.295 HD
ENDBRANCH   8  27
ENDBRANCH   4   7
BRANCH   1  29
ATOM     29  O   LIG    1        0.588  -6.402  -0.299  0.00  0.00    -0.424 OA
BRANCH  29  33
ATOM     30  C   LIG    1        2.645  -2.726  -0.672  0.00  0.00    -0.014 A 
ATOM     31  C   LIG    1        1.243  -2.763  -0.563  0.00  0.00    +0.012 A 
ATOM     32  C   LIG    1        0.550  -3.957  -0.367  0.00  0.00    +0.047 A 
ATOM     33  C   LIG    1        1.221  -5.179  -0.384  0.00  0.00    +0.132 A 
ATOM     34  C   LIG    1        2.609  -5.178  -0.455  0.00  0.00    +0.047 A 
ATOM     35  C   LIG    1        3.309  -3.965  -0.576  0.00  0.00    +0.012 A 
BRANCH  30  37
ATOM     36  C   LIG    1        4.571  -1.251  -1.541  0.00  0.00    +0.124 A 
ATOM     37  C   LIG    1        3.351  -1.425  -0.850  0.00  0.00    +0.024 A 
ATOM     38  C   LIG    1        2.782  -0.246  -0.321  0.00  0.00    +0.051 A 
ATOM     39  C   LIG    1        3.398   0.983  -0.491  0.00  0.00    +0.142 A 
ATOM     40  F   LIG    1        2.832   2.095  -0.007  0.00  0.00    -0.204 F 
ATOM     41  C   LIG    1        4.594   1.033  -1.167  0.00  0.00    +0.151 A 
ATOM     42  N   LIG    1        5.195  -0.057  -1.689  0.00  0.00    -0.237 NA
BRANCH  36  43
ATOM     43  N   LIG    1        5.260  -2.298  -2.148  0.00  0.00    -0.343 N 
ATOM     44  H   LIG    1        4.665  -2.790  -2.807  0.00  0.00    +0.144 HD
ATOM     45  H   LIG    1        6.070  -1.885  -2.606  0.00  0.00    +0.144 HD
ENDBRANCH  36  43
ENDBRANCH  30  37
ENDBRANCH  29  33
ENDBRANCH   1  29
TORSDOF 10
