REMARK  Name = pdb/CHEMBL3932808.pdb
REMARK                            x       y       z     vdW  Elec       q    Type
REMARK                         _______ _______ _______ _____ _____    ______ ____
ROOT
ATOM      1  C   LIG    1       -1.425  -5.496   2.305  0.00  0.00    +0.149 A 
ATOM      2  N   LIG    1       -1.745  -6.490   1.463  0.00  0.00    -0.160 NA
ATOM      3  N   LIG    1       -0.582  -7.106   1.119  0.00  0.00    -0.218 N 
ATOM      4  C   LIG    1        0.501  -6.537   1.817  0.00  0.00    +0.129 A 
ATOM      5  C   LIG    1       -0.038  -5.503   2.558  0.00  0.00    +0.078 A 
ENDROOT
BRANCH   3   6
ATOM      6  C   LIG    1       -0.644  -8.166   0.143  0.00  0.00    +0.067 A 
ATOM      7  C   LIG    1       -1.901  -8.533  -0.379  0.00  0.00    +0.028 A 
ATOM      8  C   LIG    1       -2.022  -9.552  -1.334  0.00  0.00    +0.002 A 
ATOM      9  C   LIG    1       -0.896 -10.237  -1.774  0.00  0.00    +0.000 A 
ATOM     10  C   LIG    1        0.350  -9.887  -1.275  0.00  0.00    +0.002 A 
ATOM     11  C   LIG    1        0.476  -8.848  -0.343  0.00  0.00    +0.028 A 
ENDBRANCH   3   6
BRANCH   4  12
ATOM     12  N   LIG    1        1.851  -6.899   1.796  0.00  0.00    -0.266 N 
ATOM     13  H   LIG    1        2.117  -7.716   1.277  0.00  0.00    +0.157 HD
ATOM     14  C   LIG    1        2.908  -6.234   2.496  0.00  0.00    +0.251 C 
ATOM     15  O   LIG    1        2.684  -5.268   3.221  0.00  0.00    -0.270 OA
BRANCH  14  16
ATOM     16  C   LIG    1        4.294  -6.709   2.272  0.00  0.00    +0.056 A 
ATOM     17  C   LIG    1        4.626  -8.031   1.972  0.00  0.00    +0.056 A 
ATOM     18 CL   LIG    1        3.484  -9.316   1.853  0.00  0.00    -0.083 Cl
ATOM     19  C   LIG    1        5.959  -8.376   1.794  0.00  0.00    +0.059 A 
ATOM     20  C   LIG    1        6.964  -7.423   1.940  0.00  0.00    +0.134 A 
ATOM     21  F   LIG    1        8.202  -7.892   1.770  0.00  0.00    -0.205 F 
ATOM     22  C   LIG    1        6.701  -6.080   2.252  0.00  0.00    +0.039 A 
ATOM     23  C   LIG    1        5.329  -5.755   2.402  0.00  0.00    +0.027 A 
BRANCH  22  24
ATOM     24  C   LIG    1        7.750  -5.036   2.445  0.00  0.00    +0.109 A 
ATOM     25  C   LIG    1        9.132  -5.234   2.369  0.00  0.00    +0.149 A 
ATOM     26  F   LIG    1        9.694  -6.412   2.086  0.00  0.00    -0.203 F 
ATOM     27  C   LIG    1       10.012  -4.182   2.594  0.00  0.00    +0.042 A 
ATOM     28  C   LIG    1        9.513  -2.926   2.890  0.00  0.00    +0.023 A 
ATOM     29  C   LIG    1        8.140  -2.779   2.947  0.00  0.00    +0.111 A 
ATOM     30  N   LIG    1        7.261  -3.791   2.734  0.00  0.00    -0.252 NA
ENDBRANCH  22  24
ENDBRANCH  14  16
ENDBRANCH   4  12
BRANCH   1  32
ATOM     31  N   LIG    1       -2.087  -3.583   3.604  0.00  0.00    -0.208 NA
ATOM     32  C   LIG    1       -2.437  -4.569   2.836  0.00  0.00    +0.241 C 
BRANCH  31  35
ATOM     33  C   LIG    1       -2.263  -2.194   6.499  0.00  0.00    +0.070 C 
ATOM     34  C   LIG    1       -3.106  -2.013   5.290  0.00  0.00    +0.085 A 
ATOM     35  C   LIG    1       -3.046  -2.639   4.010  0.00  0.00    +0.111 A 
ATOM     36  C   LIG    1       -3.984  -1.976   3.244  0.00  0.00    +0.059 A 
ATOM     37  C   LIG    1       -4.395  -2.035   1.822  0.00  0.00    +0.067 C 
ATOM     38  N   LIG    1       -4.580  -1.084   4.095  0.00  0.00    -0.279 N 
ATOM     39  H   LIG    1       -5.317  -0.418   3.887  0.00  0.00    +0.189 HD
ATOM     40  N   LIG    1       -4.080  -1.093   5.334  0.00  0.00    -0.177 NA
ENDBRANCH  31  35
BRANCH  32  41
ATOM     41  O   LIG    1       -3.698  -4.865   2.443  0.00  0.00    -0.491 OA
ATOM     42  H   LIG    1       -4.343  -4.325   2.914  0.00  0.00    +0.294 HD
ENDBRANCH  32  41
ENDBRANCH   1  32
TORSDOF 7
