REMARK  Name = pdb/CHEMBL427901.pdb
REMARK                            x       y       z     vdW  Elec       q    Type
REMARK                         _______ _______ _______ _____ _____    ______ ____
ROOT
ATOM      1  C   LIG    1        7.733  -4.529  -3.829  0.00  0.00    +0.093 C 
ATOM      2  C   LIG    1        6.784  -5.216  -4.803  0.00  0.00    -0.004 A 
ATOM      3  C   LIG    1        6.276  -6.485  -4.819  0.00  0.00    +0.052 A 
ATOM      4  C   LIG    1        5.223  -6.886  -5.593  0.00  0.00    +0.013 A 
ATOM      5  C   LIG    1        4.620  -5.968  -6.479  0.00  0.00    -0.008 A 
ATOM      6  C   LIG    1        5.219  -4.677  -6.560  0.00  0.00    +0.050 A 
ATOM      7  C   LIG    1        4.460  -3.917  -7.523  0.00  0.00    +0.245 C 
ATOM      8  O   LIG    1        4.527  -2.772  -7.951  0.00  0.00    -0.270 OA
ATOM      9  N   LIG    1        3.477  -4.796  -7.968  0.00  0.00    -0.307 N 
ATOM     10  H   LIG    1        2.801  -4.475  -8.646  0.00  0.00    +0.149 HD
ATOM     11  C   LIG    1        3.472  -6.113  -7.369  0.00  0.00    +0.141 C 
ATOM     12  C   LIG    1        4.858  -8.221  -5.424  0.00  0.00    +0.008 A 
ATOM     13  C   LIG    1        3.872  -9.123  -5.876  0.00  0.00    +0.010 A 
ATOM     14  C   LIG    1        3.928 -10.466  -5.474  0.00  0.00    +0.001 A 
ATOM     15  C   LIG    1        4.962 -10.924  -4.662  0.00  0.00    +0.002 A 
ATOM     16  C   LIG    1        5.944 -10.050  -4.189  0.00  0.00    +0.026 A 
ATOM     17  C   LIG    1        5.852  -8.698  -4.549  0.00  0.00    +0.047 A 
ATOM     18  N   LIG    1        6.649  -7.623  -4.160  0.00  0.00    -0.354 N 
ATOM     19  H   LIG    1        7.441  -7.694  -3.539  0.00  0.00    +0.166 HD
ATOM     20  C   LIG    1        6.302  -4.312  -5.769  0.00  0.00    +0.001 A 
ATOM     21  C   LIG    1        7.043  -3.082  -5.638  0.00  0.00    -0.013 A 
ATOM     22  C   LIG    1        7.148  -1.984  -6.480  0.00  0.00    +0.009 A 
ATOM     23  C   LIG    1        8.008  -0.935  -6.137  0.00  0.00    +0.001 A 
ATOM     24  C   LIG    1        8.711  -0.959  -4.926  0.00  0.00    +0.000 A 
ATOM     25  C   LIG    1        8.602  -2.052  -4.063  0.00  0.00    +0.005 A 
ATOM     26  C   LIG    1        7.829  -3.137  -4.464  0.00  0.00    -0.029 A 
ENDROOT
BRANCH   1  27
ATOM     27  C   LIG    1        9.113  -5.193  -3.591  0.00  0.00    +0.187 C 
ATOM     28  C   LIG    1        9.942  -5.421  -4.852  0.00  0.00    +0.053 C 
BRANCH  27  29
ATOM     29  O   LIG    1        8.985  -6.500  -2.969  0.00  0.00    -0.446 OA
BRANCH  29  32
ATOM     30  N   LIG    1        8.699  -7.861  -1.265  0.00  0.00    -0.281 N 
ATOM     31  H   LIG    1        8.912  -8.549  -1.975  0.00  0.00    +0.152 HD
ATOM     32  C   LIG    1        8.884  -6.561  -1.625  0.00  0.00    +0.401 C 
ATOM     33  O   LIG    1        8.919  -5.598  -0.868  0.00  0.00    -0.226 OA
BRANCH  30  35
ATOM     34  C   LIG    1        7.635  -9.491   0.214  0.00  0.00    +0.024 C 
ATOM     35  C   LIG    1        8.552  -8.286   0.109  0.00  0.00    +0.104 C 
ENDBRANCH  30  35
ENDBRANCH  29  32
ENDBRANCH  27  29
ENDBRANCH   1  27
TORSDOF 4
