REMARK  Name = pdb/CHEMBL3676042.pdb
REMARK                            x       y       z     vdW  Elec       q    Type
REMARK                         _______ _______ _______ _____ _____    ______ ____
ROOT
ATOM      1  C   UNK A  0        7.496   0.256   2.410  0.00  0.00    +0.100 A 
ATOM      2  C   UNK A  0        8.342   1.345   2.263  0.00  0.00    +0.170 A 
ATOM      3  N   UNK A  0        8.114   2.693   2.092  0.00  0.00    -0.212 NA
ATOM      4  C   UNK A  0        9.164   3.489   2.072  0.00  0.00    +0.126 A 
ATOM      5  C   UNK A  0       10.577   2.976   2.165  0.00  0.00    +0.063 A 
ATOM      6  C   UNK A  0       10.741   1.657   2.304  0.00  0.00    +0.118 A 
ATOM      7  N   UNK A  0        9.639   0.824   2.368  0.00  0.00    -0.221 N 
ATOM      8  N   UNK A  0        9.646  -0.518   2.544  0.00  0.00    -0.173 NA
ATOM      9  C   UNK A  0        8.359  -0.843   2.603  0.00  0.00    +0.150 A 
ENDROOT
BRANCH   4  10
ATOM     10  N   UNK A  0        9.021   4.865   1.942  0.00  0.00    -0.308 N 
ATOM     11  C   UNK A  0        8.692   5.664   3.147  0.00  0.00    +0.108 C 
ATOM     12  C   UNK A  0        7.369   6.351   2.783  0.00  0.00    +0.029 C 
ATOM     13  C   UNK A  0        7.487   6.598   1.290  0.00  0.00    +0.021 C 
ATOM     14  C   UNK A  0        8.274   5.393   0.788  0.00  0.00    +0.107 C 
BRANCH  11  15
ATOM     15  C   UNK A  0        9.816   6.638   3.479  0.00  0.00    +0.011 A 
ATOM     16  C   UNK A  0        9.971   7.097   4.796  0.00  0.00    +0.129 A 
ATOM     17  F   UNK A  0        9.129   6.677   5.750  0.00  0.00    -0.205 F 
ATOM     18  C   UNK A  0       10.987   7.990   5.154  0.00  0.00    +0.041 A 
ATOM     19  C   UNK A  0       11.877   8.451   4.187  0.00  0.00    +0.041 A 
ATOM     20  C   UNK A  0       11.735   8.013   2.878  0.00  0.00    +0.124 A 
ATOM     21  F   UNK A  0       12.582   8.453   1.939  0.00  0.00    -0.205 F 
ATOM     22  C   UNK A  0       10.722   7.123   2.519  0.00  0.00    +0.046 A 
ENDBRANCH  11  15
ENDBRANCH   4  10
BRANCH   1  25
ATOM     23  N   SER A  1        5.401   1.135   1.673  0.00  0.00    -0.304 N 
ATOM     24  H   SER A  1        5.969   1.884   1.282  0.00  0.00    +0.149 HD
ATOM     25  C   UNK A  0        6.060   0.182   2.398  0.00  0.00    +0.250 C 
ATOM     26  O   UNK A  0        5.476  -0.762   2.942  0.00  0.00    -0.270 OA
BRANCH  23  27
ATOM     27  CA  SER A  1        3.947   1.150   1.419  0.00  0.00    +0.124 C 
BRANCH  27  28
ATOM     28  C   SER A  1        3.405  -0.127   0.732  0.00  0.00    +0.180 C 
BRANCH  28  29
ATOM     29  O   SER A  1        3.408  -1.291   1.549  0.00  0.00    -0.393 OA
ATOM     30  H   SER A  1        4.308  -1.395   1.924  0.00  0.00    +0.209 HD
ENDBRANCH  28  29
ENDBRANCH  27  28
BRANCH  27  31
ATOM     31  CB  SER A  1        3.134   1.491   2.679  0.00  0.00    +0.180 C 
BRANCH  31  32
ATOM     32  OG  SER A  1        3.627   2.693   3.275  0.00  0.00    -0.393 OA
ATOM     33  H   SER A  1        4.575   2.539   3.444  0.00  0.00    +0.209 HD
ENDBRANCH  31  32
ENDBRANCH  27  31
ENDBRANCH  23  27
ENDBRANCH   1  25
TORSDOF 8
