REMARK  Name = pdb/CHEMBL3937419.pdb
REMARK                            x       y       z     vdW  Elec       q    Type
REMARK                         _______ _______ _______ _____ _____    ______ ____
ROOT
ATOM      1  C   LIG    1        2.685  -5.177  -0.109  0.00  0.00    +0.126 A 
ATOM      2  N   LIG    1        2.209  -4.141  -0.773  0.00  0.00    -0.212 NA
ATOM      3  C   LIG    1        1.539  -4.375  -1.952  0.00  0.00    +0.170 A 
ATOM      4  C   LIG    1        0.858  -3.524  -2.813  0.00  0.00    +0.100 A 
ATOM      5  C   LIG    1        0.519  -4.356  -3.900  0.00  0.00    +0.150 A 
ATOM      6  N   LIG    1        0.838  -5.637  -3.711  0.00  0.00    -0.173 NA
ATOM      7  N   LIG    1        1.424  -5.653  -2.494  0.00  0.00    -0.221 N 
ATOM      8  C   LIG    1        1.871  -6.754  -1.788  0.00  0.00    +0.118 A 
ATOM      9  C   LIG    1        2.461  -6.594  -0.599  0.00  0.00    +0.063 A 
ENDROOT
BRANCH   1  11
ATOM     10  C   LIG    1        3.703  -3.631   1.608  0.00  0.00    +0.110 C 
ATOM     11  N   LIG    1        3.405  -4.980   1.068  0.00  0.00    -0.308 N 
ATOM     12  C   LIG    1        4.395  -5.940   1.565  0.00  0.00    +0.107 C 
ATOM     13  C   LIG    1        5.517  -5.089   2.141  0.00  0.00    +0.021 C 
ATOM     14  C   LIG    1        4.774  -3.886   2.684  0.00  0.00    +0.029 C 
BRANCH  10  19
ATOM     15  C   LIG    1        1.265   0.632   2.533  0.00  0.00    +0.152 C 
ATOM     16  N   LIG    1        1.355  -0.816   2.634  0.00  0.00    -0.315 N 
ATOM     17  C   LIG    1        2.507  -1.459   2.170  0.00  0.00    +0.256 A 
ATOM     18  O   LIG    1        3.503  -0.867   1.759  0.00  0.00    -0.267 OA
ATOM     19  C   LIG    1        2.492  -2.964   2.202  0.00  0.00    +0.040 A 
ATOM     20  C   LIG    1        1.417  -3.590   2.718  0.00  0.00    +0.050 A 
ATOM     21  C   LIG    1        0.281  -2.851   3.186  0.00  0.00    +0.140 A 
ATOM     22  F   LIG    1       -0.778  -3.533   3.663  0.00  0.00    -0.204 F 
ATOM     23  C   LIG    1        0.264  -1.518   3.117  0.00  0.00    +0.127 A 
ENDBRANCH  10  19
ENDBRANCH   1  11
BRANCH   4  24
ATOM     24  C   LIG    1        0.656  -2.105  -2.612  0.00  0.00    +0.221 C 
ATOM     25  N   LIG    1       -0.270  -1.357  -3.067  0.00  0.00    -0.247 NA
BRANCH  25  26
ATOM     26  C   LIG    1       -1.435  -1.768  -3.840  0.00  0.00    +0.109 C 
ATOM     27  C   LIG    1       -1.383  -1.081  -5.210  0.00  0.00    +0.029 C 
ATOM     28  C   LIG    1       -1.525   0.441  -5.106  0.00  0.00    +0.033 C 
ATOM     29  C   LIG    1       -2.774   0.854  -4.327  0.00  0.00    +0.115 C 
ATOM     30  C   LIG    1       -2.866   0.161  -2.970  0.00  0.00    +0.033 C 
ATOM     31  C   LIG    1       -2.701  -1.356  -3.077  0.00  0.00    +0.029 C 
BRANCH  29  32
ATOM     32  O   LIG    1       -3.937   0.525  -5.088  0.00  0.00    -0.392 OA
ATOM     33  H   LIG    1       -3.896   1.042  -5.911  0.00  0.00    +0.210 HD
ENDBRANCH  29  32
ENDBRANCH  25  26
BRANCH  24  34
ATOM     34  O   LIG    1        1.579  -1.508  -1.818  0.00  0.00    -0.492 OA
ATOM     35  H   LIG    1        2.169  -2.164  -1.400  0.00  0.00    +0.294 HD
ENDBRANCH  24  34
ENDBRANCH   4  24
TORSDOF 6
