REMARK  Name = pdb/CHEMBL3914864.pdb
REMARK                            x       y       z     vdW  Elec       q    Type
REMARK                         _______ _______ _______ _____ _____    ______ ____
ROOT
ATOM      1  C   LIG    1        4.159   1.506  -5.233  0.00  0.00    +0.042 A 
ATOM      2  C   LIG    1        4.740   0.645  -6.218  0.00  0.00    +0.042 A 
ATOM      3  C   LIG    1        4.826   1.032  -7.582  0.00  0.00    +0.086 A 
ATOM      4  C   LIG    1        4.299   2.281  -7.880  0.00  0.00    +0.138 A 
ATOM      5  N   LIG    1        3.800   3.153  -6.977  0.00  0.00    -0.260 NA
ATOM      6  C   LIG    1        3.744   2.727  -5.694  0.00  0.00    +0.122 A 
ENDROOT
BRANCH   1   7
ATOM      7  C   LIG    1        3.998   1.017  -3.799  0.00  0.00    +0.197 C 
ATOM      8  O   LIG    1        4.313  -0.123  -3.536  0.00  0.00    -0.287 OA
BRANCH   7  17
ATOM      9  N   LIG    1        3.132   3.734  -1.390  0.00  0.00    -0.336 N 
ATOM     10  C   LIG    1        2.419   2.692  -0.803  0.00  0.00    +0.089 A 
ATOM     11  C   LIG    1        1.583   2.586   0.321  0.00  0.00    +0.165 A 
ATOM     12  F   LIG    1        1.194   3.622   1.062  0.00  0.00    -0.202 F 
ATOM     13  C   LIG    1        1.072   1.337   0.632  0.00  0.00    +0.151 A 
ATOM     14  N   LIG    1        1.321   0.214  -0.066  0.00  0.00    -0.260 NA
ATOM     15  C   LIG    1        2.108   0.302  -1.166  0.00  0.00    +0.121 A 
ATOM     16  C   LIG    1        2.661   1.529  -1.584  0.00  0.00    +0.032 A 
ATOM     17  C   LIG    1        3.426   1.912  -2.753  0.00  0.00    +0.049 A 
ATOM     18  C   LIG    1        3.560   3.274  -2.624  0.00  0.00    +0.099 A 
BRANCH   9  20
ATOM     19  C   LIG    1        4.470   5.814  -1.865  0.00  0.00    +0.036 C 
ATOM     20  C   LIG    1        3.569   5.053  -0.830  0.00  0.00    +0.063 C 
ATOM     21  C   LIG    1        4.433   4.842   0.431  0.00  0.00    +0.036 C 
BRANCH  20  22
ATOM     22  C   LIG    1        2.414   6.052  -0.550  0.00  0.00    +0.183 C 
BRANCH  22  23
ATOM     23  O   LIG    1        1.751   5.854   0.682  0.00  0.00    -0.393 OA
ATOM     24  H   LIG    1        0.792   5.919   0.522  0.00  0.00    +0.209 HD
ENDBRANCH  22  23
ENDBRANCH  20  22
ENDBRANCH   9  20
ENDBRANCH   7  17
ENDBRANCH   1   7
BRANCH   3  25
ATOM     25  N   LIG    1        5.380   0.123  -8.514  0.00  0.00    -0.216 NA
ATOM     26  C   LIG    1        5.570   0.335  -9.778  0.00  0.00    +0.192 C 
BRANCH  26  27
ATOM     27  O   LIG    1        5.410   1.513 -10.423  0.00  0.00    -0.495 OA
ATOM     28  H   LIG    1        5.924   2.209  -9.983  0.00  0.00    +0.293 HD
ENDBRANCH  26  27
BRANCH  26  29
ATOM     29  C   LIG    1        6.150  -0.680 -10.732  0.00  0.00    +0.130 C 
BRANCH  29  30
ATOM     30  C   LIG    1        5.413  -1.987 -10.789  0.00  0.00    -0.038 A 
ATOM     31  C   LIG    1        4.067  -2.043 -11.170  0.00  0.00    +0.004 A 
ATOM     32  C   LIG    1        3.401  -3.268 -11.220  0.00  0.00    +0.012 A 
ATOM     33  C   LIG    1        4.074  -4.459 -10.903  0.00  0.00    +0.055 A 
ATOM     34  C   LIG    1        5.429  -4.400 -10.550  0.00  0.00    +0.012 A 
ATOM     35  C   LIG    1        6.092  -3.175 -10.496  0.00  0.00    +0.004 A 
BRANCH  33  36
ATOM     36  C   LIG    1        3.337  -5.773 -10.940  0.00  0.00    +0.417 C 
ATOM     37  F   LIG    1        2.823  -6.048 -12.171  0.00  0.00    -0.166 F 
ATOM     38  F   LIG    1        2.281  -5.802 -10.080  0.00  0.00    -0.166 F 
ATOM     39  F   LIG    1        4.113  -6.844 -10.613  0.00  0.00    -0.166 F 
ENDBRANCH  33  36
ENDBRANCH  29  30
ENDBRANCH  26  29
ENDBRANCH   3  25
TORSDOF 10
