REMARK  Name = pdb/CHEMBL3972009.pdb
REMARK                            x       y       z     vdW  Elec       q    Type
REMARK                         _______ _______ _______ _____ _____    ______ ____
ROOT
ATOM      1  C   LIG    1       -4.157  -1.946  -2.740  0.00  0.00    +0.131 A 
ATOM      2  C   LIG    1       -4.853  -3.093  -2.379  0.00  0.00    +0.183 A 
ATOM      3  N   LIG    1       -4.486  -4.402  -2.101  0.00  0.00    -0.211 NA
ATOM      4  C   LIG    1       -5.423  -5.282  -1.817  0.00  0.00    +0.126 A 
ATOM      5  C   LIG    1       -6.875  -4.870  -1.699  0.00  0.00    +0.063 A 
ATOM      6  C   LIG    1       -7.184  -3.613  -2.013  0.00  0.00    +0.118 A 
ATOM      7  N   LIG    1       -6.199  -2.713  -2.386  0.00  0.00    -0.220 N 
ATOM      8  N   LIG    1       -6.374  -1.432  -2.795  0.00  0.00    -0.171 NA
ATOM      9  C   LIG    1       -5.140  -1.011  -3.083  0.00  0.00    +0.164 A 
ENDROOT
BRANCH   4  10
ATOM     10  N   LIG    1       -5.095  -6.627  -1.619  0.00  0.00    -0.308 N 
ATOM     11  C   LIG    1       -6.034  -7.742  -1.836  0.00  0.00    +0.108 C 
ATOM     12  C   LIG    1       -5.217  -8.724  -2.686  0.00  0.00    +0.029 C 
ATOM     13  C   LIG    1       -3.814  -8.586  -2.124  0.00  0.00    +0.021 C 
ATOM     14  C   LIG    1       -3.707  -7.100  -1.771  0.00  0.00    +0.107 C 
BRANCH  11  15
ATOM     15  C   LIG    1       -6.540  -8.324  -0.524  0.00  0.00    +0.011 A 
ATOM     16  C   LIG    1       -7.782  -8.980  -0.492  0.00  0.00    +0.129 A 
ATOM     17  F   LIG    1       -8.497  -9.099  -1.620  0.00  0.00    -0.205 F 
ATOM     18  C   LIG    1       -8.306  -9.510   0.688  0.00  0.00    +0.041 A 
ATOM     19  C   LIG    1       -7.587  -9.402   1.873  0.00  0.00    +0.041 A 
ATOM     20  C   LIG    1       -6.351  -8.770   1.858  0.00  0.00    +0.124 A 
ATOM     21  F   LIG    1       -5.650  -8.667   2.995  0.00  0.00    -0.205 F 
ATOM     22  C   LIG    1       -5.829  -8.235   0.681  0.00  0.00    +0.046 A 
ENDBRANCH  11  15
ENDBRANCH   4  10
BRANCH   1  24
ATOM     23  C   LIG    1       -1.972  -0.940  -2.659  0.00  0.00    +0.193 C 
ATOM     24  N   LIG    1       -2.782  -1.896  -2.974  0.00  0.00    -0.212 NA
BRANCH  23  26
ATOM     25  C   LIG    1       -2.350   1.545  -3.060  0.00  0.00    +0.020 C 
ATOM     26  C   LIG    1       -2.126   0.465  -1.982  0.00  0.00    +0.038 C 
ATOM     27  C   LIG    1       -3.261   0.528  -0.944  0.00  0.00    +0.020 C 
ATOM     28  C   LIG    1       -0.839   0.900  -1.216  0.00  0.00    +0.020 C 
ENDBRANCH  23  26
BRANCH  23  29
ATOM     29  O   LIG    1       -0.702  -1.211  -3.052  0.00  0.00    -0.495 OA
ATOM     30  H   LIG    1       -0.035  -0.554  -2.834  0.00  0.00    +0.293 HD
ENDBRANCH  23  29
ENDBRANCH   1  24
TORSDOF 5
