REMARK  Name = pdb/CHEMBL251795.pdb
REMARK                            x       y       z     vdW  Elec       q    Type
REMARK                         _______ _______ _______ _____ _____    ______ ____
ROOT
ATOM      1  C   LIG    1       12.336   0.564  -5.740  0.00  0.00    +0.041 A 
ATOM      2  C   LIG    1       12.727   1.636  -6.569  0.00  0.00    -0.038 A 
ATOM      3  C   LIG    1       13.738   1.580  -7.686  0.00  0.00    +0.044 C 
ATOM      4  C   LIG    1       12.227   2.927  -6.269  0.00  0.00    +0.005 A 
ATOM      5  C   LIG    1       11.394   3.171  -5.172  0.00  0.00    +0.015 A 
ATOM      6  C   LIG    1       11.066   2.134  -4.310  0.00  0.00    +0.014 A 
ATOM      7  C   LIG    1       11.528   0.846  -4.607  0.00  0.00    +0.028 A 
ENDROOT
BRANCH   1  13
ATOM      8  C   LIG    1       10.032  -4.440  -8.353  0.00  0.00    +0.232 C 
ATOM      9  N   LIG    1       11.083  -3.588  -7.973  0.00  0.00    -0.297 N 
ATOM     10  C   LIG    1       10.929  -2.176  -8.359  0.00  0.00    +0.127 C 
ATOM     11  C   LIG    1       12.206  -1.329  -8.231  0.00  0.00    +0.127 C 
ATOM     12  N   LIG    1       12.918  -1.593  -6.986  0.00  0.00    -0.295 N 
ATOM     13  C   LIG    1       12.770  -0.877  -5.790  0.00  0.00    +0.247 C 
ATOM     14  O   LIG    1       12.939  -1.435  -4.715  0.00  0.00    -0.270 OA
ATOM     15  C   LIG    1       13.244  -3.018  -6.839  0.00  0.00    +0.127 C 
ATOM     16  C   LIG    1       11.960  -3.855  -6.830  0.00  0.00    +0.127 C 
ATOM     17  O   LIG    1        9.298  -4.186  -9.304  0.00  0.00    -0.274 OA
BRANCH   8  19
ATOM     18  C   LIG    1        9.043  -6.785  -8.069  0.00  0.00    +0.033 C 
ATOM     19  C   LIG    1        9.717  -5.625  -7.375  0.00  0.00    +0.135 C 
BRANCH  19  20
ATOM     20  N   LIG    1        8.822  -5.105  -6.310  0.00  0.00    -0.320 NA
ATOM     21  H   LIG    1        9.285  -4.351  -5.805  0.00  0.00    +0.119 HD
ATOM     22  H   LIG    1        8.014  -4.669  -6.763  0.00  0.00    +0.119 HD
ENDBRANCH  19  20
ENDBRANCH   8  19
ENDBRANCH   1  13
BRANCH   6  23
ATOM     23  S   LIG    1       10.120   2.446  -2.820  0.00  0.00    -0.081 S 
BRANCH  23  24
ATOM     24  C   LIG    1       11.346   2.061  -1.613  0.00  0.00    +0.071 A 
ATOM     25  S   LIG    1       10.990   1.469  -0.036  0.00  0.00    -0.045 S 
ATOM     26  C   LIG    1       12.681   1.391   0.330  0.00  0.00    +0.164 A 
ATOM     27  N   LIG    1       13.447   1.807  -0.654  0.00  0.00    -0.232 NA
ATOM     28  C   LIG    1       12.711   2.172  -1.747  0.00  0.00    +0.135 A 
BRANCH  26  29
ATOM     29  N   LIG    1       13.150   0.928   1.519  0.00  0.00    -0.279 N 
ATOM     30  H   LIG    1       12.583   0.283   2.054  0.00  0.00    +0.155 HD
BRANCH  29  31
ATOM     31  C   LIG    1       14.523   0.750   1.786  0.00  0.00    +0.126 A 
ATOM     32  N   LIG    1       14.894  -0.296   2.556  0.00  0.00    -0.225 NA
ATOM     33  C   LIG    1       16.226  -0.477   2.764  0.00  0.00    +0.108 A 
ATOM     34 BR   LIG    1       16.770  -1.978   3.794  0.00  0.00    -0.029 Br
ATOM     35  C   LIG    1       17.219   0.359   2.272  0.00  0.00    +0.035 A 
ATOM     36  C   LIG    1       16.829   1.448   1.517  0.00  0.00    +0.006 A 
ATOM     37  C   LIG    1       15.476   1.640   1.279  0.00  0.00    +0.044 A 
ENDBRANCH  29  31
ENDBRANCH  26  29
ENDBRANCH  23  24
ENDBRANCH   6  23
TORSDOF 7
