REMARK  Name = pdb/CHEMBL3666248.pdb
REMARK                            x       y       z     vdW  Elec       q    Type
REMARK                         _______ _______ _______ _____ _____    ______ ____
ROOT
ATOM      1  C   LIG    1        4.654   4.737   3.096  0.00  0.00    +0.042 A 
ATOM      2  C   LIG    1        4.112   5.719   2.230  0.00  0.00    +0.038 A 
ATOM      3  C   LIG    1        4.554   7.045   2.278  0.00  0.00    +0.052 A 
ATOM      4  C   LIG    1        5.535   7.336   3.231  0.00  0.00    +0.134 A 
ATOM      5  N   LIG    1        6.022   6.446   4.132  0.00  0.00    -0.261 NA
ATOM      6  C   LIG    1        5.564   5.174   4.064  0.00  0.00    +0.122 A 
ENDROOT
BRANCH   3   7
ATOM      7  N   LIG    1        4.003   8.036   1.414  0.00  0.00    -0.284 N 
ATOM      8  H   LIG    1        3.144   7.800   0.918  0.00  0.00    +0.155 HD
ATOM      9  C   LIG    1        4.602   9.261   1.127  0.00  0.00    +0.222 C 
ATOM     10  O   LIG    1        5.712   9.610   1.526  0.00  0.00    -0.275 OA
BRANCH   9  11
ATOM     11  C   LIG    1        3.813  10.180   0.206  0.00  0.00    +0.131 C 
BRANCH  11  12
ATOM     12  C   LIG    1        2.889  11.165   0.888  0.00  0.00    -0.039 A 
ATOM     13  C   LIG    1        3.176  11.732   2.138  0.00  0.00    +0.004 A 
ATOM     14  C   LIG    1        2.342  12.715   2.684  0.00  0.00    +0.012 A 
ATOM     15  C   LIG    1        1.215  13.168   1.983  0.00  0.00    +0.055 A 
ATOM     16  C   LIG    1        0.936  12.612   0.728  0.00  0.00    +0.012 A 
ATOM     17  C   LIG    1        1.767  11.629   0.185  0.00  0.00    +0.004 A 
BRANCH  15  18
ATOM     18  C   LIG    1        0.344  14.253   2.567  0.00  0.00    +0.417 C 
ATOM     19  F   LIG    1        1.031  15.406   2.798  0.00  0.00    -0.166 F 
ATOM     20  F   LIG    1       -0.203  13.897   3.761  0.00  0.00    -0.166 F 
ATOM     21  F   LIG    1       -0.703  14.599   1.766  0.00  0.00    -0.166 F 
ENDBRANCH  15  18
ENDBRANCH  11  12
ENDBRANCH   9  11
ENDBRANCH   3   7
BRANCH   1  22
ATOM     22  C   LIG    1        4.281   3.309   3.046  0.00  0.00    +0.197 C 
ATOM     23  O   LIG    1        3.123   3.021   2.743  0.00  0.00    -0.287 OA
BRANCH  22  31
ATOM     24  N   LIG    1        7.273   1.164   3.425  0.00  0.00    -0.329 N 
ATOM     25  C   LIG    1        6.300   0.250   3.747  0.00  0.00    +0.147 A 
ATOM     26  N   LIG    1        6.515  -1.052   4.016  0.00  0.00    -0.197 NA
ATOM     27  C   LIG    1        5.398  -1.713   4.331  0.00  0.00    +0.214 A 
ATOM     28  N   LIG    1        4.161  -1.198   4.382  0.00  0.00    -0.222 NA
ATOM     29  C   LIG    1        3.981   0.116   4.085  0.00  0.00    +0.126 A 
ATOM     30  C   LIG    1        5.082   0.899   3.735  0.00  0.00    +0.048 A 
ATOM     31  C   LIG    1        5.302   2.283   3.316  0.00  0.00    +0.051 A 
ATOM     32  C   LIG    1        6.684   2.393   3.167  0.00  0.00    +0.100 A 
BRANCH  24  34
ATOM     33  C   LIG    1        9.110   0.499   1.907  0.00  0.00    +0.030 C 
ATOM     34  C   LIG    1        8.703   0.862   3.337  0.00  0.00    +0.083 C 
ATOM     35  C   LIG    1        9.578   1.993   3.880  0.00  0.00    +0.030 C 
ENDBRANCH  24  34
BRANCH  27  36
ATOM     36  N   LIG    1        5.517  -3.071   4.578  0.00  0.00    -0.327 N 
ATOM     37  H   LIG    1        6.336  -3.434   4.111  0.00  0.00    +0.145 HD
ATOM     38  H   LIG    1        4.638  -3.528   4.380  0.00  0.00    +0.145 HD
ENDBRANCH  27  36
ENDBRANCH  22  31
ENDBRANCH   1  22
TORSDOF 8
