REMARK  Name = pdb/CHEMBL3671149.pdb
REMARK                            x       y       z     vdW  Elec       q    Type
REMARK                         _______ _______ _______ _____ _____    ______ ____
ROOT
ATOM      1  C   LIG    1        6.021  -5.838   0.491  0.00  0.00    +0.100 A 
ATOM      2  C   LIG    1        6.613  -7.089   0.445  0.00  0.00    +0.170 A 
ATOM      3  N   LIG    1        7.930  -7.491   0.441  0.00  0.00    -0.212 NA
ATOM      4  C   LIG    1        8.187  -8.783   0.463  0.00  0.00    +0.126 A 
ATOM      5  C   LIG    1        7.080  -9.811   0.504  0.00  0.00    +0.063 A 
ATOM      6  C   LIG    1        5.820  -9.366   0.492  0.00  0.00    +0.118 A 
ATOM      7  N   LIG    1        5.563  -8.008   0.451  0.00  0.00    -0.221 N 
ATOM      8  N   LIG    1        4.351  -7.407   0.446  0.00  0.00    -0.173 NA
ATOM      9  C   LIG    1        4.636  -6.105   0.493  0.00  0.00    +0.150 A 
ENDROOT
BRANCH   4  10
ATOM     10  N   LIG    1        9.502  -9.219   0.481  0.00  0.00    -0.308 N 
ATOM     11  C   LIG    1       10.638  -8.360   0.852  0.00  0.00    +0.108 C 
ATOM     12  C   LIG    1       11.847  -9.091   0.244  0.00  0.00    +0.029 C 
ATOM     13  C   LIG    1       11.452 -10.555   0.339  0.00  0.00    +0.021 C 
ATOM     14  C   LIG    1        9.962 -10.527   0.022  0.00  0.00    +0.107 C 
BRANCH  11  15
ATOM     15  C   LIG    1       10.755  -8.213   2.359  0.00  0.00    +0.011 A 
ATOM     16  C   LIG    1       11.468  -7.128   2.881  0.00  0.00    +0.129 A 
ATOM     17  F   LIG    1       12.143  -6.323   2.049  0.00  0.00    -0.205 F 
ATOM     18  C   LIG    1       11.545  -6.888   4.253  0.00  0.00    +0.041 A 
ATOM     19  C   LIG    1       10.965  -7.789   5.144  0.00  0.00    +0.041 A 
ATOM     20  C   LIG    1       10.315  -8.910   4.645  0.00  0.00    +0.124 A 
ATOM     21  F   LIG    1        9.806  -9.812   5.494  0.00  0.00    -0.205 F 
ATOM     22  C   LIG    1       10.194  -9.121   3.273  0.00  0.00    +0.046 A 
ENDBRANCH  11  15
ENDBRANCH   4  10
BRANCH   1  25
ATOM     23  N   LIG    1        8.009  -4.535   0.454  0.00  0.00    -0.306 N 
ATOM     24  H   LIG    1        8.488  -5.432   0.443  0.00  0.00    +0.149 HD
ATOM     25  C   LIG    1        6.639  -4.527   0.543  0.00  0.00    +0.250 C 
ATOM     26  O   LIG    1        5.982  -3.505   0.646  0.00  0.00    -0.270 OA
BRANCH  23  27
ATOM     27  C   LIG    1        8.770  -3.314   0.543  0.00  0.00    +0.161 C 
BRANCH  27  31
ATOM     28  C   LIG    1       13.098  -4.668  -1.602  0.00  0.00    +0.150 C 
ATOM     29  N   LIG    1       12.084  -4.188  -0.699  0.00  0.00    -0.340 N 
ATOM     30  C   LIG    1       10.739  -4.152  -0.917  0.00  0.00    +0.111 A 
ATOM     31  C   LIG    1       10.199  -3.599   0.230  0.00  0.00    +0.076 A 
ATOM     32  N   LIG    1       11.202  -3.309   1.131  0.00  0.00    -0.239 NA
ATOM     33  C   LIG    1       12.318  -3.679   0.545  0.00  0.00    +0.199 A 
ENDBRANCH  27  31
ENDBRANCH  23  27
ENDBRANCH   1  25
TORSDOF 5
