REMARK  Name = pdb/CHEMBL3947206.pdb
REMARK                            x       y       z     vdW  Elec       q    Type
REMARK                         _______ _______ _______ _____ _____    ______ ____
ROOT
ATOM      1  C   LIG    1        3.290   0.346   2.016  0.00  0.00    +0.285 C 
ATOM      2  N   LIG    1        3.436   1.608   1.764  0.00  0.00    -0.196 NA
ENDROOT
BRANCH   2   3
ATOM      3  C   LIG    1        2.467   2.600   1.866  0.00  0.00    +0.105 A 
ATOM      4  C   LIG    1        2.472   3.657   0.980  0.00  0.00    +0.145 A 
ATOM      5  N   LIG    1        1.645   4.717   1.059  0.00  0.00    -0.201 NA
ATOM      6  C   LIG    1        0.838   4.774   2.140  0.00  0.00    +0.323 A 
ATOM      7  N   LIG    1        0.728   3.803   3.063  0.00  0.00    -0.201 NA
ATOM      8  C   LIG    1        1.565   2.745   2.897  0.00  0.00    +0.145 A 
BRANCH   6   9
ATOM      9  O   LIG    1        0.127   5.946   2.392  0.00  0.00    -0.424 OA
BRANCH   9  10
ATOM     10  C   LIG    1        0.698   7.130   1.964  0.00  0.00    +0.132 A 
ATOM     11  C   LIG    1        2.081   7.323   1.889  0.00  0.00    +0.047 A 
ATOM     12  C   LIG    1        2.618   8.489   1.350  0.00  0.00    +0.012 A 
ATOM     13  C   LIG    1        1.780   9.533   0.960  0.00  0.00    -0.013 A 
ATOM     14  C   LIG    1        0.393   9.373   1.115  0.00  0.00    +0.012 A 
ATOM     15  C   LIG    1       -0.149   8.180   1.615  0.00  0.00    +0.047 A 
BRANCH  13  16
ATOM     16  C   LIG    1        2.356  10.748   0.408  0.00  0.00    +0.046 A 
ATOM     17  C   LIG    1        1.839  12.022   0.561  0.00  0.00    +0.163 A 
ATOM     18  N   LIG    1        0.729  12.498   1.214  0.00  0.00    -0.236 NA
ATOM     19  C   LIG    1        0.523  13.777   1.134  0.00  0.00    +0.114 A 
ATOM     20  C   LIG    1        1.372  14.760   0.413  0.00  0.00    +0.039 A 
ATOM     21  C   LIG    1        2.451  14.244  -0.191  0.00  0.00    +0.116 A 
ATOM     22  N   LIG    1        2.708  12.878  -0.128  0.00  0.00    -0.221 N 
ATOM     23  N   LIG    1        3.750  12.211  -0.681  0.00  0.00    -0.173 NA
ATOM     24  C   LIG    1        3.530  10.937  -0.355  0.00  0.00    +0.145 A 
ENDBRANCH  13  16
ENDBRANCH   9  10
ENDBRANCH   6   9
ENDBRANCH   2   3
BRANCH   1  25
ATOM     25  O   LIG    1        2.107  -0.207   2.339  0.00  0.00    -0.481 OA
ATOM     26  H   LIG    1        1.370   0.378   2.117  0.00  0.00    +0.295 HD
ENDBRANCH   1  25
BRANCH   1  27
ATOM     27  N   LIG    1        4.250  -0.615   2.004  0.00  0.00    -0.269 N 
ATOM     28  H   LIG    1        3.922  -1.545   2.226  0.00  0.00    +0.157 HD
BRANCH  27  29
ATOM     29  C   LIG    1        5.623  -0.487   1.682  0.00  0.00    +0.043 A 
ATOM     30  C   LIG    1        6.603  -1.397   2.179  0.00  0.00    +0.005 A 
ATOM     31  C   LIG    1        7.952  -1.143   1.822  0.00  0.00    +0.011 A 
ATOM     32  C   LIG    1        8.338  -0.066   1.011  0.00  0.00    +0.013 A 
ATOM     33  C   LIG    1        7.386   0.828   0.527  0.00  0.00    +0.057 A 
ATOM     34  C   LIG    1        6.051   0.608   0.887  0.00  0.00    +0.036 A 
BRANCH  30  35
ATOM     35  C   LIG    1        6.303  -2.589   3.035  0.00  0.00    +0.002 A 
ATOM     36  C   LIG    1        7.049  -3.774   2.947  0.00  0.00    +0.119 A 
ATOM     37  N   LIG    1        6.846  -4.900   3.681  0.00  0.00    -0.263 NA
ATOM     38  C   LIG    1        5.820  -4.879   4.550  0.00  0.00    +0.111 A 
ATOM     39  C   LIG    1        5.008  -3.778   4.731  0.00  0.00    +0.020 A 
ATOM     40  C   LIG    1        5.278  -2.623   3.993  0.00  0.00    +0.011 A 
ENDBRANCH  30  35
BRANCH  33  41
ATOM     41  C   LIG    1        7.772   1.981  -0.376  0.00  0.00    +0.417 C 
ATOM     42  F   LIG    1        8.350   1.560  -1.538  0.00  0.00    -0.166 F 
ATOM     43  F   LIG    1        8.667   2.837   0.196  0.00  0.00    -0.166 F 
ATOM     44  F   LIG    1        6.717   2.757  -0.760  0.00  0.00    -0.166 F 
ENDBRANCH  33  41
ENDBRANCH  27  29
ENDBRANCH   1  27
TORSDOF 9
