REMARK  Name = pdb/CHEMBL3942203.pdb
REMARK                            x       y       z     vdW  Elec       q    Type
REMARK                         _______ _______ _______ _____ _____    ______ ____
ROOT
ATOM      1  C   UNK A  0        5.345   2.629  -0.127  0.00  0.00    +0.149 A 
ATOM      2  N   UNK A  0        6.302   3.240  -0.833  0.00  0.00    -0.160 NA
ATOM      3  N   UNK A  0        6.039   4.566  -0.738  0.00  0.00    -0.218 N 
ATOM      4  C   UNK A  0        4.796   4.800  -0.129  0.00  0.00    +0.129 A 
ATOM      5  C   UNK A  0        4.366   3.556   0.286  0.00  0.00    +0.078 A 
ENDROOT
BRANCH   3   6
ATOM      6  C   UNK A  0        6.996   5.474  -1.276  0.00  0.00    +0.067 A 
ATOM      7  C   UNK A  0        7.185   6.759  -0.759  0.00  0.00    +0.028 A 
ATOM      8  C   UNK A  0        8.169   7.592  -1.312  0.00  0.00    +0.002 A 
ATOM      9  C   UNK A  0        8.960   7.152  -2.375  0.00  0.00    +0.000 A 
ATOM     10  C   UNK A  0        8.791   5.867  -2.878  0.00  0.00    +0.002 A 
ATOM     11  C   UNK A  0        7.826   5.027  -2.322  0.00  0.00    +0.028 A 
ENDBRANCH   3   6
BRANCH   4  12
ATOM     12  N   UNK A  0        4.070   5.999  -0.021  0.00  0.00    -0.266 N 
ATOM     13  H   UNK A  0        4.474   6.831  -0.442  0.00  0.00    +0.157 HD
ATOM     14  C   UNK A  0        2.777   6.094   0.614  0.00  0.00    +0.251 C 
ATOM     15  O   UNK A  0        2.236   5.100   1.105  0.00  0.00    -0.270 OA
BRANCH  14  16
ATOM     16  C   UNK A  0        2.060   7.385   0.659  0.00  0.00    +0.056 A 
ATOM     17  C   UNK A  0        2.700   8.619   0.754  0.00  0.00    +0.054 A 
ATOM     18 CL   UNK A  0        4.410   8.802   0.826  0.00  0.00    -0.083 Cl
ATOM     19  C   UNK A  0        1.937   9.781   0.827  0.00  0.00    +0.041 A 
ATOM     20  C   UNK A  0        0.532   9.741   0.822  0.00  0.00    +0.052 A 
ATOM     21 CL   UNK A  0       -0.220  11.299   0.771  0.00  0.00    -0.083 Cl
ATOM     22  C   UNK A  0       -0.164   8.516   0.786  0.00  0.00    +0.022 A 
ATOM     23  C   UNK A  0        0.644   7.352   0.686  0.00  0.00    +0.026 A 
BRANCH  22  24
ATOM     24  C   UNK A  0       -1.648   8.361   0.818  0.00  0.00    +0.107 A 
ATOM     25  C   UNK A  0       -2.526   9.172   1.543  0.00  0.00    +0.149 A 
ATOM     26  F   UNK A  0       -2.092  10.136   2.365  0.00  0.00    -0.203 F 
ATOM     27  C   UNK A  0       -3.900   8.961   1.475  0.00  0.00    +0.042 A 
ATOM     28  C   UNK A  0       -4.387   7.897   0.733  0.00  0.00    +0.023 A 
ATOM     29  C   UNK A  0       -3.469   7.090   0.085  0.00  0.00    +0.111 A 
ATOM     30  N   UNK A  0       -2.126   7.299   0.102  0.00  0.00    -0.252 NA
ENDBRANCH  22  24
ENDBRANCH  14  16
ENDBRANCH   4  12
BRANCH   1  32
ATOM     31  N   ALA A  1        4.642   0.713   1.081  0.00  0.00    -0.244 NA
ATOM     32  C   UNK A  0        5.329   1.189   0.106  0.00  0.00    +0.236 C 
BRANCH  31  34
ATOM     33  CB  ALA A  1        3.980  -0.880   2.777  0.00  0.00    +0.035 C 
ATOM     34  CA  ALA A  1        4.636  -0.721   1.401  0.00  0.00    +0.131 C 
BRANCH  34  35
ATOM     35  C   ALA A  1        3.817  -1.510   0.370  0.00  0.00    +0.182 C 
BRANCH  35  36
ATOM     36  O   ALA A  1        4.412  -1.417  -0.925  0.00  0.00    -0.393 OA
ATOM     37  H   ALA A  1        3.795  -0.894  -1.475  0.00  0.00    +0.209 HD
ENDBRANCH  35  36
ENDBRANCH  34  35
ENDBRANCH  31  34
BRANCH  32  38
ATOM     38  O   UNK A  0        6.029   0.465  -0.789  0.00  0.00    -0.491 OA
ATOM     39  H   UNK A  0        5.777  -0.476  -0.748  0.00  0.00    +0.294 HD
ENDBRANCH  32  38
ENDBRANCH   1  32
TORSDOF 9
