REMARK  Name = pdb/CHEMBL3942546.pdb
REMARK                            x       y       z     vdW  Elec       q    Type
REMARK                         _______ _______ _______ _____ _____    ______ ____
ROOT
ATOM      1  C   LIG    1       -0.665  -4.779   0.363  0.00  0.00    +0.149 A 
ATOM      2  N   LIG    1       -1.232  -5.911  -0.085  0.00  0.00    -0.160 NA
ATOM      3  N   LIG    1       -0.319  -6.894   0.127  0.00  0.00    -0.218 N 
ATOM      4  C   LIG    1        0.874  -6.372   0.651  0.00  0.00    +0.129 A 
ATOM      5  C   LIG    1        0.656  -5.023   0.802  0.00  0.00    +0.078 A 
ENDROOT
BRANCH   3   6
ATOM      6  C   LIG    1       -0.654  -8.243  -0.223  0.00  0.00    +0.067 A 
ATOM      7  C   LIG    1       -1.630  -8.465  -1.215  0.00  0.00    +0.028 A 
ATOM      8  C   LIG    1       -1.967  -9.767  -1.612  0.00  0.00    +0.002 A 
ATOM      9  C   LIG    1       -1.363 -10.865  -1.012  0.00  0.00    +0.000 A 
ATOM     10  C   LIG    1       -0.421 -10.656   0.001  0.00  0.00    +0.002 A 
ATOM     11  C   LIG    1       -0.067  -9.355   0.398  0.00  0.00    +0.028 A 
ENDBRANCH   3   6
BRANCH   4  12
ATOM     12  N   LIG    1        2.076  -7.051   0.885  0.00  0.00    -0.266 N 
ATOM     13  H   LIG    1        2.110  -8.021   0.599  0.00  0.00    +0.157 HD
ATOM     14  C   LIG    1        3.291  -6.464   1.392  0.00  0.00    +0.251 C 
ATOM     15  O   LIG    1        3.361  -5.278   1.672  0.00  0.00    -0.270 OA
BRANCH  14  16
ATOM     16  C   LIG    1        4.453  -7.381   1.595  0.00  0.00    +0.056 A 
ATOM     17  C   LIG    1        4.666  -8.525   0.827  0.00  0.00    +0.054 A 
ATOM     18 CL   LIG    1        3.666  -8.994  -0.501  0.00  0.00    -0.083 Cl
ATOM     19  C   LIG    1        5.737  -9.368   1.117  0.00  0.00    +0.041 A 
ATOM     20  C   LIG    1        6.617  -9.089   2.172  0.00  0.00    +0.052 A 
ATOM     21 CL   LIG    1        7.802 -10.321   2.453  0.00  0.00    -0.083 Cl
ATOM     22  C   LIG    1        6.475  -7.923   2.952  0.00  0.00    +0.019 A 
ATOM     23  C   LIG    1        5.370  -7.082   2.630  0.00  0.00    +0.026 A 
BRANCH  22  24
ATOM     24  C   LIG    1        7.362  -7.546   4.090  0.00  0.00    +0.072 A 
ATOM     25  N   LIG    1        6.749  -6.857   5.089  0.00  0.00    -0.255 NA
ATOM     26  C   LIG    1        7.493  -6.490   6.164  0.00  0.00    +0.111 A 
ATOM     27  C   LIG    1        8.834  -6.785   6.315  0.00  0.00    +0.020 A 
ATOM     28  C   LIG    1        9.460  -7.475   5.291  0.00  0.00    +0.004 A 
ATOM     29  C   LIG    1        8.726  -7.834   4.161  0.00  0.00    +0.028 A 
ENDBRANCH  22  24
ENDBRANCH  14  16
ENDBRANCH   4  12
BRANCH   1  31
ATOM     30  N   LIG    1       -0.697  -2.401   0.129  0.00  0.00    -0.208 NA
ATOM     31  C   LIG    1       -1.365  -3.489   0.347  0.00  0.00    +0.241 C 
BRANCH  30  34
ATOM     32  C   LIG    1        0.461   0.431   0.992  0.00  0.00    +0.070 C 
ATOM     33  C   LIG    1       -0.825   0.091   0.335  0.00  0.00    +0.085 A 
ATOM     34  C   LIG    1       -1.363  -1.177  -0.032  0.00  0.00    +0.111 A 
ATOM     35  C   LIG    1       -2.508  -0.888  -0.746  0.00  0.00    +0.059 A 
ATOM     36  C   LIG    1       -3.497  -1.693  -1.502  0.00  0.00    +0.067 C 
ATOM     37  N   LIG    1       -2.624   0.477  -0.703  0.00  0.00    -0.279 N 
ATOM     38  H   LIG    1       -3.337   1.057  -1.134  0.00  0.00    +0.189 HD
ATOM     39  N   LIG    1       -1.634   1.089  -0.046  0.00  0.00    -0.177 NA
ENDBRANCH  30  34
BRANCH  31  40
ATOM     40  O   LIG    1       -2.688  -3.584   0.614  0.00  0.00    -0.491 OA
ATOM     41  H   LIG    1       -3.070  -2.709   0.755  0.00  0.00    +0.294 HD
ENDBRANCH  31  40
ENDBRANCH   1  31
TORSDOF 7
