REMARK  Name = pdb/CHEMBL3596892.pdb
REMARK                            x       y       z     vdW  Elec       q    Type
REMARK                         _______ _______ _______ _____ _____    ______ ____
ROOT
ATOM      1  C   LIG    1        8.263   0.381   0.191  0.00  0.00    +0.002 A 
ATOM      2  C   LIG    1        8.936  -0.845   0.325  0.00  0.00    +0.012 A 
ATOM      3  C   LIG    1       10.235  -1.006  -0.171  0.00  0.00    +0.024 A 
ATOM      4  C   LIG    1       10.889   0.058  -0.799  0.00  0.00    +0.035 A 
ATOM      5  C   LIG    1       10.236   1.276  -0.939  0.00  0.00    +0.024 A 
ATOM      6  C   LIG    1        8.955   1.439  -0.423  0.00  0.00    +0.012 A 
ENDROOT
BRANCH   1   9
ATOM      7  C   LIG    1        5.181   0.062   2.117  0.00  0.00    +0.093 A 
ATOM      8  N   LIG    1        6.462  -0.146   1.713  0.00  0.00    -0.244 NA
ATOM      9  C   LIG    1        6.873   0.563   0.632  0.00  0.00    +0.090 A 
ATOM     10  C   LIG    1        5.996   1.428  -0.029  0.00  0.00    +0.139 A 
ATOM     11  N   LIG    1        4.720   1.648   0.359  0.00  0.00    -0.259 NA
ATOM     12  C   LIG    1        4.339   0.947   1.448  0.00  0.00    +0.139 A 
BRANCH   7  17
ATOM     13  C   LIG    1        5.028  -3.033   5.985  0.00  0.00    +0.172 C 
ATOM     14  N   LIG    1        4.680  -2.060   4.979  0.00  0.00    -0.274 N 
ATOM     15  N   LIG    1        3.441  -1.536   4.966  0.00  0.00    -0.179 NA
ATOM     16  C   LIG    1        3.471  -0.696   3.928  0.00  0.00    +0.144 A 
ATOM     17  C   LIG    1        4.722  -0.681   3.272  0.00  0.00    +0.039 A 
ATOM     18  C   LIG    1        5.485  -1.578   3.992  0.00  0.00    +0.118 A 
ENDBRANCH   7  17
ENDBRANCH   1   9
BRANCH   4  19
ATOM     19  N   LIG    1       12.187  -0.152  -1.277  0.00  0.00    -0.269 N 
ATOM     20  H   LIG    1       12.503  -1.115  -1.253  0.00  0.00    +0.156 HD
ATOM     21  C   LIG    1       13.127   0.783  -1.610  0.00  0.00    +0.310 C 
ATOM     22  N   LIG    1       14.333   0.312  -2.052  0.00  0.00    -0.238 N 
ATOM     23  H   LIG    1       15.005   1.032  -2.277  0.00  0.00    +0.159 HD
ATOM     24  O   LIG    1       12.986   2.014  -1.543  0.00  0.00    -0.252 OA
BRANCH  22  25
ATOM     25  C   LIG    1       14.708  -0.998  -2.189  0.00  0.00    +0.225 A 
ATOM     26  C   LIG    1       15.848  -1.548  -2.707  0.00  0.00    +0.093 A 
ATOM     27  C   LIG    1       15.703  -2.940  -2.474  0.00  0.00    +0.091 A 
ATOM     28  N   LIG    1       14.515  -3.208  -1.918  0.00  0.00    -0.081 NA
ATOM     29  O   LIG    1       13.901  -1.993  -1.746  0.00  0.00    -0.339 OA
BRANCH  27  30
ATOM     30  C   LIG    1       16.671  -4.055  -2.790  0.00  0.00    +0.008 C 
ATOM     31  C   LIG    1       18.125  -3.542  -2.732  0.00  0.00    +0.017 C 
ATOM     32  C   LIG    1       16.383  -4.594  -4.202  0.00  0.00    +0.017 C 
ATOM     33  C   LIG    1       16.536  -5.213  -1.778  0.00  0.00    +0.017 C 
ENDBRANCH  27  30
ENDBRANCH  22  25
ENDBRANCH   4  19
TORSDOF 5
