REMARK  Name = pdb/CHEMBL3661462.pdb
REMARK                            x       y       z     vdW  Elec       q    Type
REMARK                         _______ _______ _______ _____ _____    ______ ____
ROOT
ATOM      1  C   LIG    1        4.004   2.351   4.074  0.00  0.00    +0.042 A 
ATOM      2  C   LIG    1        4.566   3.299   3.214  0.00  0.00    +0.038 A 
ATOM      3  C   LIG    1        4.107   4.623   3.222  0.00  0.00    +0.052 A 
ATOM      4  C   LIG    1        3.147   4.955   4.177  0.00  0.00    +0.134 A 
ATOM      5  N   LIG    1        2.620   4.078   5.063  0.00  0.00    -0.261 NA
ATOM      6  C   LIG    1        3.056   2.790   4.991  0.00  0.00    +0.122 A 
ENDROOT
BRANCH   3   7
ATOM      7  N   LIG    1        4.601   5.528   2.249  0.00  0.00    -0.284 N 
ATOM      8  H   LIG    1        5.359   5.194   1.661  0.00  0.00    +0.155 HD
ATOM      9  C   LIG    1        4.006   6.728   1.901  0.00  0.00    +0.222 C 
ATOM     10  O   LIG    1        3.024   7.217   2.486  0.00  0.00    -0.275 OA
BRANCH   9  11
ATOM     11  C   LIG    1        4.631   7.517   0.768  0.00  0.00    +0.131 C 
BRANCH  11  12
ATOM     12  C   LIG    1        5.246   6.708  -0.349  0.00  0.00    -0.039 A 
ATOM     13  C   LIG    1        4.480   6.261  -1.434  0.00  0.00    +0.004 A 
ATOM     14  C   LIG    1        5.052   5.432  -2.404  0.00  0.00    +0.012 A 
ATOM     15  C   LIG    1        6.402   5.059  -2.322  0.00  0.00    +0.055 A 
ATOM     16  C   LIG    1        7.177   5.559  -1.266  0.00  0.00    +0.012 A 
ATOM     17  C   LIG    1        6.604   6.374  -0.291  0.00  0.00    +0.004 A 
BRANCH  15  18
ATOM     18  C   LIG    1        6.996   4.137  -3.358  0.00  0.00    +0.417 C 
ATOM     19  F   LIG    1        6.893   4.633  -4.621  0.00  0.00    -0.166 F 
ATOM     20  F   LIG    1        6.384   2.919  -3.383  0.00  0.00    -0.166 F 
ATOM     21  F   LIG    1        8.320   3.881  -3.163  0.00  0.00    -0.166 F 
ENDBRANCH  15  18
ENDBRANCH  11  12
ENDBRANCH   9  11
ENDBRANCH   3   7
BRANCH   1  22
ATOM     22  C   LIG    1        4.389   0.900   4.108  0.00  0.00    +0.197 C 
ATOM     23  O   LIG    1        4.282   0.288   5.176  0.00  0.00    -0.287 OA
BRANCH  22  31
ATOM     24  N   LIG    1        6.214  -1.090   1.623  0.00  0.00    -0.329 N 
ATOM     25  C   LIG    1        5.485  -0.301   0.760  0.00  0.00    +0.145 A 
ATOM     26  N   LIG    1        5.582  -0.311  -0.583  0.00  0.00    -0.218 NA
ATOM     27  C   LIG    1        4.688   0.511  -1.160  0.00  0.00    +0.223 A 
ATOM     28  N   LIG    1        3.753   1.270  -0.556  0.00  0.00    -0.243 NA
ATOM     29  C   LIG    1        3.696   1.242   0.791  0.00  0.00    +0.124 A 
ATOM     30  C   LIG    1        4.614   0.472   1.516  0.00  0.00    +0.048 A 
ATOM     31  C   LIG    1        4.917   0.265   2.899  0.00  0.00    +0.051 A 
ATOM     32  C   LIG    1        5.832  -0.792   2.915  0.00  0.00    +0.100 A 
BRANCH  24  34
ATOM     33  C   LIG    1        8.297  -2.379   2.224  0.00  0.00    +0.030 C 
ATOM     34  C   LIG    1        7.189  -2.100   1.200  0.00  0.00    +0.083 C 
ATOM     35  C   LIG    1        6.503  -3.414   0.818  0.00  0.00    +0.030 C 
ENDBRANCH  24  34
ENDBRANCH  22  31
ENDBRANCH   1  22
TORSDOF 7
