REMARK  Name = pdb/CHEMBL3894183.pdb
REMARK                            x       y       z     vdW  Elec       q    Type
REMARK                         _______ _______ _______ _____ _____    ______ ____
ROOT
ATOM      1  C   LIG    1       -0.781  -7.213  -0.836  0.00  0.00    +0.221 A 
ATOM      2  N   LIG    1       -1.581  -6.139  -0.930  0.00  0.00    -0.219 NA
ATOM      3  C   LIG    1       -2.746  -6.277  -1.610  0.00  0.00    +0.142 A 
ATOM      4  C   LIG    1       -3.135  -7.403  -2.322  0.00  0.00    +0.087 A 
ATOM      5  C   LIG    1       -2.265  -8.492  -2.226  0.00  0.00    +0.034 A 
ATOM      6  C   LIG    1       -1.067  -8.400  -1.489  0.00  0.00    +0.070 A 
ENDROOT
BRANCH   4   7
ATOM      7  N   LIG    1       -4.339  -7.521  -3.063  0.00  0.00    -0.198 NA
ATOM      8  C   LIG    1       -4.928  -6.522  -3.619  0.00  0.00    +0.285 C 
BRANCH   8   9
ATOM      9  N   LIG    1       -6.096  -6.494  -4.365  0.00  0.00    -0.267 N 
ATOM     10  H   LIG    1       -6.232  -5.739  -5.035  0.00  0.00    +0.157 HD
BRANCH   9  11
ATOM     11  C   LIG    1       -7.029  -7.543  -4.537  0.00  0.00    +0.061 A 
ATOM     12  C   LIG    1       -7.903  -7.650  -5.655  0.00  0.00    +0.087 A 
ATOM     13  C   LIG    1       -8.798  -8.742  -5.721  0.00  0.00    +0.030 A 
ATOM     14  C   LIG    1       -8.824  -9.728  -4.741  0.00  0.00    +0.014 A 
ATOM     15  C   LIG    1       -7.967  -9.652  -3.649  0.00  0.00    +0.057 A 
ATOM     16  C   LIG    1       -7.099  -8.558  -3.556  0.00  0.00    +0.037 A 
BRANCH  12  17
ATOM     17  N   LIG    1       -7.958  -6.706  -6.734  0.00  0.00    -0.238 N 
ATOM     18  N   LIG    1       -7.238  -5.544  -6.733  0.00  0.00    -0.175 NA
ATOM     19  C   LIG    1       -7.707  -4.866  -7.790  0.00  0.00    +0.135 A 
ATOM     20  C   LIG    1       -8.664  -5.577  -8.525  0.00  0.00    +0.041 A 
ATOM     21  C   LIG    1       -8.759  -6.775  -7.867  0.00  0.00    +0.114 A 
ENDBRANCH  12  17
BRANCH  15  22
ATOM     22  C   LIG    1       -7.987 -10.735  -2.604  0.00  0.00    +0.417 C 
ATOM     23  F   LIG    1       -7.703 -11.960  -3.129  0.00  0.00    -0.166 F 
ATOM     24  F   LIG    1       -9.211 -10.859  -2.018  0.00  0.00    -0.166 F 
ATOM     25  F   LIG    1       -7.102 -10.547  -1.588  0.00  0.00    -0.166 F 
ENDBRANCH  15  22
ENDBRANCH   9  11
ENDBRANCH   8   9
BRANCH   8  26
ATOM     26  O   LIG    1       -4.417  -5.274  -3.542  0.00  0.00    -0.481 OA
ATOM     27  H   LIG    1       -5.047  -4.601  -3.815  0.00  0.00    +0.295 HD
ENDBRANCH   8  26
ENDBRANCH   4   7
BRANCH   1  28
ATOM     28  O   LIG    1        0.379  -7.166  -0.064  0.00  0.00    -0.438 OA
BRANCH  28  32
ATOM     29  C   LIG    1        0.985  -4.519   3.208  0.00  0.00    -0.014 A 
ATOM     30  C   LIG    1        1.958  -5.429   2.758  0.00  0.00    +0.012 A 
ATOM     31  C   LIG    1        1.725  -6.288   1.663  0.00  0.00    +0.047 A 
ATOM     32  C   LIG    1        0.496  -6.291   0.999  0.00  0.00    +0.130 A 
ATOM     33  C   LIG    1       -0.496  -5.451   1.493  0.00  0.00    +0.047 A 
ATOM     34  C   LIG    1       -0.249  -4.566   2.544  0.00  0.00    +0.012 A 
BRANCH  29  36
ATOM     35  C   LIG    1        2.418  -2.966   4.680  0.00  0.00    +0.124 A 
ATOM     36  C   LIG    1        1.189  -3.564   4.335  0.00  0.00    +0.023 A 
ATOM     37  C   LIG    1        0.086  -3.187   5.136  0.00  0.00    +0.033 A 
ATOM     38  C   LIG    1        0.226  -2.281   6.180  0.00  0.00    +0.060 A 
ATOM     39 CL   LIG    1       -1.126  -1.824   7.132  0.00  0.00    -0.082 Cl
ATOM     40  C   LIG    1        1.479  -1.769   6.427  0.00  0.00    +0.133 A 
ATOM     41  N   LIG    1        2.573  -2.096   5.705  0.00  0.00    -0.239 NA
BRANCH  35  42
ATOM     42  N   LIG    1        3.605  -3.190   3.988  0.00  0.00    -0.343 N 
ATOM     43  H   LIG    1        3.504  -2.926   3.013  0.00  0.00    +0.144 HD
ATOM     44  H   LIG    1        4.309  -2.620   4.452  0.00  0.00    +0.144 HD
ENDBRANCH  35  42
ENDBRANCH  29  36
ENDBRANCH  28  32
ENDBRANCH   1  28
TORSDOF 10
