REMARK  Name = pdb/CHEMBL3928224.pdb
REMARK                            x       y       z     vdW  Elec       q    Type
REMARK                         _______ _______ _______ _____ _____    ______ ____
ROOT
ATOM      1  C   LIG    1        6.353  -6.773   5.574  0.00  0.00    +0.323 A 
ATOM      2  N   LIG    1        5.237  -6.338   4.972  0.00  0.00    -0.201 NA
ATOM      3  C   LIG    1        4.586  -7.232   4.201  0.00  0.00    +0.145 A 
ATOM      4  C   LIG    1        4.991  -8.534   3.987  0.00  0.00    +0.105 A 
ATOM      5  C   LIG    1        6.191  -8.840   4.609  0.00  0.00    +0.145 A 
ATOM      6  N   LIG    1        6.891  -7.992   5.407  0.00  0.00    -0.201 NA
ENDROOT
BRANCH   4   7
ATOM      7  N   LIG    1        4.338  -9.485   3.165  0.00  0.00    -0.196 NA
ATOM      8  C   LIG    1        3.069  -9.459   2.958  0.00  0.00    +0.285 C 
BRANCH   8   9
ATOM      9  N   LIG    1        2.332 -10.283   2.156  0.00  0.00    -0.267 N 
ATOM     10  H   LIG    1        1.440  -9.932   1.818  0.00  0.00    +0.157 HD
BRANCH   9  11
ATOM     11  C   LIG    1        2.405 -11.691   2.070  0.00  0.00    +0.061 A 
ATOM     12  C   LIG    1        1.372 -12.444   1.459  0.00  0.00    +0.087 A 
ATOM     13  C   LIG    1        1.500 -13.838   1.321  0.00  0.00    +0.030 A 
ATOM     14  C   LIG    1        2.644 -14.491   1.782  0.00  0.00    +0.014 A 
ATOM     15  C   LIG    1        3.678 -13.768   2.384  0.00  0.00    +0.057 A 
ATOM     16  C   LIG    1        3.537 -12.382   2.534  0.00  0.00    +0.037 A 
BRANCH  12  17
ATOM     17  N   LIG    1        0.179 -11.819   0.989  0.00  0.00    -0.238 N 
ATOM     18  N   LIG    1       -0.213 -10.590   1.449  0.00  0.00    -0.175 NA
ATOM     19  C   LIG    1       -1.363 -10.349   0.808  0.00  0.00    +0.135 A 
ATOM     20  C   LIG    1       -1.684 -11.349  -0.119  0.00  0.00    +0.041 A 
ATOM     21  C   LIG    1       -0.695 -12.291   0.031  0.00  0.00    +0.114 A 
ENDBRANCH  12  17
BRANCH  15  22
ATOM     22  C   LIG    1        4.932 -14.463   2.851  0.00  0.00    +0.417 C 
ATOM     23  F   LIG    1        5.565 -15.116   1.837  0.00  0.00    -0.166 F 
ATOM     24  F   LIG    1        4.679 -15.405   3.802  0.00  0.00    -0.166 F 
ATOM     25  F   LIG    1        5.859 -13.626   3.392  0.00  0.00    -0.166 F 
ENDBRANCH  15  22
ENDBRANCH   9  11
ENDBRANCH   8   9
BRANCH   8  26
ATOM     26  O   LIG    1        2.263  -8.554   3.541  0.00  0.00    -0.481 OA
ATOM     27  H   LIG    1        1.333  -8.763   3.375  0.00  0.00    +0.295 HD
ENDBRANCH   8  26
ENDBRANCH   4   7
BRANCH   1  28
ATOM     28  O   LIG    1        7.040  -5.901   6.411  0.00  0.00    -0.424 OA
BRANCH  28  32
ATOM     29  C   LIG    1        4.925  -2.919   8.501  0.00  0.00    +0.002 A 
ATOM     30  C   LIG    1        6.210  -2.690   7.980  0.00  0.00    +0.013 A 
ATOM     31  C   LIG    1        6.894  -3.693   7.273  0.00  0.00    +0.047 A 
ATOM     32  C   LIG    1        6.300  -4.939   7.068  0.00  0.00    +0.132 A 
ATOM     33  C   LIG    1        5.036  -5.183   7.605  0.00  0.00    +0.047 A 
ATOM     34  C   LIG    1        4.360  -4.184   8.307  0.00  0.00    +0.013 A 
BRANCH  29  38
ATOM     35  C   LIG    1        0.677  -2.174   9.045  0.00  0.00    +0.233 A 
ATOM     36  N   LIG    1        1.878  -2.557   8.781  0.00  0.00    -0.127 NA
ATOM     37  N   LIG    1        2.828  -1.740   9.348  0.00  0.00    -0.209 N 
ATOM     38  C   LIG    1        4.209  -1.876   9.249  0.00  0.00    +0.093 A 
ATOM     39  C   LIG    1        4.697  -0.828  10.016  0.00  0.00    +0.141 A 
ATOM     40  N   LIG    1        3.694  -0.070  10.565  0.00  0.00    -0.234 NA
ATOM     41  C   LIG    1        2.582  -0.629  10.146  0.00  0.00    +0.155 A 
ATOM     42  C   LIG    1        1.232  -0.276  10.383  0.00  0.00    +0.053 A 
ATOM     43  C   LIG    1        0.253  -1.007   9.836  0.00  0.00    +0.072 A 
BRANCH  35  45
ATOM     44  C   LIG    1       -0.267  -4.224   8.326  0.00  0.00    +0.279 C 
ATOM     45  O   LIG    1       -0.433  -2.838   8.643  0.00  0.00    -0.479 OA
ENDBRANCH  35  45
ENDBRANCH  29  38
ENDBRANCH  28  32
ENDBRANCH   1  28
TORSDOF 10
