REMARK  Name = pdb/CHEMBL3917758.pdb
REMARK                            x       y       z     vdW  Elec       q    Type
REMARK                         _______ _______ _______ _____ _____    ______ ____
ROOT
ATOM      1  C   LIG    1        2.257  -1.307   0.750  0.00  0.00    +0.149 A 
ATOM      2  N   LIG    1        2.282  -2.610   0.436  0.00  0.00    -0.160 NA
ATOM      3  N   LIG    1        3.222  -3.160   1.253  0.00  0.00    -0.218 N 
ATOM      4  C   LIG    1        3.924  -2.173   1.966  0.00  0.00    +0.129 A 
ATOM      5  C   LIG    1        3.270  -0.990   1.684  0.00  0.00    +0.078 A 
ENDROOT
BRANCH   3   6
ATOM      6  C   LIG    1        3.435  -4.569   1.195  0.00  0.00    +0.067 A 
ATOM      7  C   LIG    1        3.988  -5.284   2.261  0.00  0.00    +0.028 A 
ATOM      8  C   LIG    1        4.205  -6.663   2.148  0.00  0.00    +0.002 A 
ATOM      9  C   LIG    1        3.846  -7.339   0.984  0.00  0.00    +0.000 A 
ATOM     10  C   LIG    1        3.262  -6.642  -0.069  0.00  0.00    +0.002 A 
ATOM     11  C   LIG    1        3.048  -5.266   0.037  0.00  0.00    +0.028 A 
ENDBRANCH   3   6
BRANCH   4  12
ATOM     12  N   LIG    1        5.108  -2.334   2.708  0.00  0.00    -0.266 N 
ATOM     13  H   LIG    1        5.508  -3.264   2.745  0.00  0.00    +0.157 HD
ATOM     14  C   LIG    1        5.831  -1.259   3.352  0.00  0.00    +0.251 C 
ATOM     15  O   LIG    1        5.438  -0.114   3.290  0.00  0.00    -0.270 OA
BRANCH  14  16
ATOM     16  C   LIG    1        7.132  -1.589   4.013  0.00  0.00    +0.056 A 
ATOM     17  C   LIG    1        7.424  -2.820   4.594  0.00  0.00    +0.054 A 
ATOM     18 CL   LIG    1        6.259  -4.066   4.814  0.00  0.00    -0.083 Cl
ATOM     19  C   LIG    1        8.707  -3.076   5.080  0.00  0.00    +0.041 A 
ATOM     20  C   LIG    1        9.699  -2.087   5.054  0.00  0.00    +0.052 A 
ATOM     21 CL   LIG    1       11.278  -2.612   5.537  0.00  0.00    -0.083 Cl
ATOM     22  C   LIG    1        9.411  -0.781   4.608  0.00  0.00    +0.022 A 
ATOM     23  C   LIG    1        8.116  -0.575   4.061  0.00  0.00    +0.026 A 
BRANCH  22  24
ATOM     24  C   LIG    1       10.360   0.356   4.748  0.00  0.00    +0.107 A 
ATOM     25  C   LIG    1       10.420   1.436   3.865  0.00  0.00    +0.149 A 
ATOM     26  F   LIG    1        9.669   1.472   2.754  0.00  0.00    -0.203 F 
ATOM     27  C   LIG    1       11.270   2.507   4.127  0.00  0.00    +0.042 A 
ATOM     28  C   LIG    1       12.087   2.467   5.249  0.00  0.00    +0.023 A 
ATOM     29  C   LIG    1       12.001   1.360   6.072  0.00  0.00    +0.111 A 
ATOM     30  N   LIG    1       11.140   0.336   5.863  0.00  0.00    -0.252 NA
ENDBRANCH  22  24
ENDBRANCH  14  16
ENDBRANCH   4  12
BRANCH   1  31
ATOM     31  C   LIG    1        1.346  -0.412   0.041  0.00  0.00    +0.236 C 
ATOM     32  N   LIG    1        1.046   0.754   0.494  0.00  0.00    -0.246 NA
BRANCH  32  33
ATOM     33  C   LIG    1        0.156   1.572  -0.358  0.00  0.00    +0.113 C 
ATOM     34  C   LIG    1        1.011   2.434  -1.290  0.00  0.00    +0.055 C 
ATOM     35  C   LIG    1        1.684   3.576  -0.540  0.00  0.00    +0.162 C 
ATOM     36  O   LIG    1        0.721   4.360   0.162  0.00  0.00    -0.380 OA
ATOM     37  C   LIG    1        0.047   3.594   1.160  0.00  0.00    +0.162 C 
ATOM     38  C   LIG    1       -0.734   2.453   0.524  0.00  0.00    +0.055 C 
ENDBRANCH  32  33
BRANCH  31  39
ATOM     39  O   LIG    1        0.894  -0.906  -1.137  0.00  0.00    -0.491 OA
ATOM     40  H   LIG    1        1.244  -1.809  -1.257  0.00  0.00    +0.294 HD
ENDBRANCH  31  39
ENDBRANCH   1  31
TORSDOF 7
