REMARK  Name = pdb/CHEMBL3949341.pdb
REMARK                            x       y       z     vdW  Elec       q    Type
REMARK                         _______ _______ _______ _____ _____    ______ ____
ROOT
ATOM      1  C   LIG    1        4.231   2.490   1.892  0.00  0.00    +0.201 A 
ATOM      2  N   LIG    1        3.342   3.014   0.961  0.00  0.00    -0.102 N 
ATOM      3  N   LIG    1        2.194   2.420   0.504  0.00  0.00    +0.059 NA
ATOM      4  C   LIG    1        1.344   3.220  -0.081  0.00  0.00    +0.323 C 
ATOM      5  C   LIG    1        1.662   4.665  -0.340  0.00  0.00    +0.152 C 
ATOM      6  C   LIG    1        2.852   5.150   0.030  0.00  0.00    +0.040 C 
ATOM      7  C   LIG    1        3.752   4.313   0.717  0.00  0.00    +0.176 A 
ATOM      8  N   LIG    1        4.935   4.564   1.230  0.00  0.00    -0.231 NA
ATOM      9  C   LIG    1        5.251   3.427   1.927  0.00  0.00    +0.163 A 
ENDROOT
BRANCH   4  10
ATOM     10  N   LIG    1        0.105   2.713  -0.431  0.00  0.00    -0.215 N 
ATOM     11  C   LIG    1       -0.203   1.274  -0.395  0.00  0.00    +0.201 C 
ATOM     12  C   LIG    1       -1.686   1.259   0.004  0.00  0.00    +0.056 C 
ATOM     13  C   LIG    1       -2.247   2.488  -0.694  0.00  0.00    +0.048 C 
ATOM     14  C   LIG    1       -1.114   3.506  -0.581  0.00  0.00    +0.226 C 
BRANCH  11  15
ATOM     15  C   LIG    1        0.069   0.643  -1.748  0.00  0.00    +0.033 A 
ATOM     16  C   LIG    1        0.336  -0.728  -1.837  0.00  0.00    +0.131 A 
ATOM     17  F   LIG    1        0.315  -1.485  -0.730  0.00  0.00    -0.205 F 
ATOM     18  C   LIG    1        0.627  -1.337  -3.060  0.00  0.00    +0.041 A 
ATOM     19  C   LIG    1        0.638  -0.579  -4.230  0.00  0.00    +0.041 A 
ATOM     20  C   LIG    1        0.354   0.777  -4.160  0.00  0.00    +0.124 A 
ATOM     21  F   LIG    1        0.349   1.516  -5.277  0.00  0.00    -0.205 F 
ATOM     22  C   LIG    1        0.075   1.386  -2.943  0.00  0.00    +0.048 A 
ENDBRANCH  11  15
ENDBRANCH   4  10
BRANCH   1  24
ATOM     23  C   LIG    1        3.065   0.825   3.041  0.00  0.00    +0.285 C 
ATOM     24  N   LIG    1        4.132   1.284   2.519  0.00  0.00    -0.176 NA
BRANCH  23  28
ATOM     25  C   LIG    1        0.705   2.960   5.825  0.00  0.00    +0.044 C 
ATOM     26  C   LIG    1        0.448   2.286   4.488  0.00  0.00    +0.095 C 
ATOM     27  C   LIG    1        0.994   0.856   4.367  0.00  0.00    +0.145 C 
ATOM     28  N   LIG    1        1.756   1.266   3.218  0.00  0.00    -0.280 N 
ATOM     29  C   LIG    1        1.480   2.661   3.418  0.00  0.00    +0.145 C 
BRANCH  26  30
ATOM     30  O   LIG    1       -0.946   2.471   4.127  0.00  0.00    -0.386 OA
ATOM     31  H   LIG    1       -1.004   2.196   3.195  0.00  0.00    +0.210 HD
ENDBRANCH  26  30
ENDBRANCH  23  28
BRANCH  23  32
ATOM     32  O   LIG    1        3.220  -0.443   3.500  0.00  0.00    -0.481 OA
ATOM     33  H   LIG    1        2.370  -0.884   3.608  0.00  0.00    +0.295 HD
ENDBRANCH  23  32
ENDBRANCH   1  24
TORSDOF 6
