REMARK  Name = pdb/CHEMBL3661627.pdb
REMARK                            x       y       z     vdW  Elec       q    Type
REMARK                         _______ _______ _______ _____ _____    ______ ____
ROOT
ATOM      1  C   LIG    1        2.765   4.365  -3.607  0.00  0.00    +0.042 A 
ATOM      2  C   LIG    1        3.664   5.425  -3.397  0.00  0.00    +0.038 A 
ATOM      3  C   LIG    1        3.196   6.744  -3.332  0.00  0.00    +0.052 A 
ATOM      4  C   LIG    1        1.820   6.931  -3.454  0.00  0.00    +0.134 A 
ATOM      5  N   LIG    1        0.923   5.924  -3.617  0.00  0.00    -0.261 NA
ATOM      6  C   LIG    1        1.414   4.667  -3.678  0.00  0.00    +0.122 A 
ENDROOT
BRANCH   3   7
ATOM      7  N   LIG    1        4.139   7.789  -3.170  0.00  0.00    -0.284 N 
ATOM      8  H   LIG    1        5.113   7.515  -3.104  0.00  0.00    +0.155 HD
ATOM      9  C   LIG    1        3.849   9.150  -3.123  0.00  0.00    +0.222 C 
ATOM     10  O   LIG    1        2.724   9.626  -3.187  0.00  0.00    -0.275 OA
BRANCH   9  11
ATOM     11  C   LIG    1        5.099  10.018  -3.002  0.00  0.00    +0.131 C 
BRANCH  11  12
ATOM     12  C   LIG    1        4.802  11.501  -2.946  0.00  0.00    -0.038 A 
ATOM     13  C   LIG    1        4.693  12.245  -4.131  0.00  0.00    +0.016 A 
ATOM     14  C   LIG    1        4.370  13.613  -4.104  0.00  0.00    +0.055 A 
ATOM     15  C   LIG    1        4.152  14.234  -2.866  0.00  0.00    +0.012 A 
ATOM     16  C   LIG    1        4.252  13.501  -1.683  0.00  0.00    +0.001 A 
ATOM     17  C   LIG    1        4.571  12.143  -1.722  0.00  0.00    +0.004 A 
BRANCH  14  18
ATOM     18  C   LIG    1        4.258  14.381  -5.397  0.00  0.00    +0.417 C 
ATOM     19  F   LIG    1        3.314  13.869  -6.234  0.00  0.00    -0.166 F 
ATOM     20  F   LIG    1        5.423  14.373  -6.104  0.00  0.00    -0.166 F 
ATOM     21  F   LIG    1        3.936  15.695  -5.230  0.00  0.00    -0.166 F 
ENDBRANCH  14  18
ENDBRANCH  11  12
ENDBRANCH   9  11
ENDBRANCH   3   7
BRANCH   1  22
ATOM     22  C   LIG    1        3.260   2.971  -3.707  0.00  0.00    +0.197 C 
ATOM     23  O   LIG    1        4.273   2.669  -3.068  0.00  0.00    -0.287 OA
BRANCH  22  31
ATOM     24  N   LIG    1        1.456   1.092  -6.311  0.00  0.00    -0.321 N 
ATOM     25  C   LIG    1        1.896   0.043  -5.525  0.00  0.00    +0.145 A 
ATOM     26  N   LIG    1        1.682  -1.267  -5.752  0.00  0.00    -0.218 NA
ATOM     27  C   LIG    1        2.216  -2.043  -4.789  0.00  0.00    +0.223 A 
ATOM     28  N   LIG    1        2.922  -1.661  -3.708  0.00  0.00    -0.243 NA
ATOM     29  C   LIG    1        3.133  -0.337  -3.536  0.00  0.00    +0.124 A 
ATOM     30  C   LIG    1        2.607   0.576  -4.451  0.00  0.00    +0.048 A 
ATOM     31  C   LIG    1        2.593   1.998  -4.571  0.00  0.00    +0.051 A 
ATOM     32  C   LIG    1        1.845   2.271  -5.702  0.00  0.00    +0.100 A 
BRANCH  24  34
ATOM     33  C   LIG    1        0.352   2.403  -8.148  0.00  0.00    +0.039 C 
ATOM     34  C   LIG    1        0.691   0.994  -7.582  0.00  0.00    +0.090 C 
BRANCH  34  35
ATOM     35  C   LIG    1        1.530   0.260  -8.666  0.00  0.00    +0.186 C 
BRANCH  35  36
ATOM     36  O   LIG    1        0.819   0.184  -9.907  0.00  0.00    -0.393 OA
ATOM     37  H   LIG    1        1.428  -0.182 -10.573  0.00  0.00    +0.209 HD
ENDBRANCH  35  36
ENDBRANCH  34  35
BRANCH  34  38
ATOM     38  C   LIG    1       -0.643   0.237  -7.363  0.00  0.00    +0.186 C 
BRANCH  38  39
ATOM     39  O   LIG    1       -1.489   0.922  -6.437  0.00  0.00    -0.393 OA
ATOM     40  H   LIG    1       -2.285   0.373  -6.330  0.00  0.00    +0.209 HD
ENDBRANCH  38  39
ENDBRANCH  34  38
ENDBRANCH  24  34
ENDBRANCH  22  31
ENDBRANCH   1  22
TORSDOF 11
