REMARK  Name = pdb/CHEMBL3938428.pdb
REMARK                            x       y       z     vdW  Elec       q    Type
REMARK                         _______ _______ _______ _____ _____    ______ ____
ROOT
ATOM      1  C   LIG    1        3.912  -2.081  -1.352  0.00  0.00    +0.105 A 
ATOM      2  C   LIG    1        4.176  -3.121  -2.223  0.00  0.00    +0.145 A 
ATOM      3  N   LIG    1        5.035  -4.135  -1.963  0.00  0.00    -0.201 NA
ATOM      4  C   LIG    1        5.673  -4.088  -0.776  0.00  0.00    +0.323 A 
ATOM      5  N   LIG    1        5.491  -3.147   0.158  0.00  0.00    -0.201 NA
ATOM      6  C   LIG    1        4.589  -2.188  -0.148  0.00  0.00    +0.145 A 
ENDROOT
BRANCH   1   8
ATOM      7  C   LIG    1        2.976   0.099  -1.186  0.00  0.00    +0.285 C 
ATOM      8  N   LIG    1        2.948  -1.114  -1.655  0.00  0.00    -0.196 NA
BRANCH   7   9
ATOM      9  N   LIG    1        3.912   0.769  -0.458  0.00  0.00    -0.269 N 
ATOM     10  H   LIG    1        4.855   0.399  -0.459  0.00  0.00    +0.157 HD
BRANCH   9  12
ATOM     11  C   LIG    1        4.663   2.810   0.739  0.00  0.00    +0.021 A 
ATOM     12  C   LIG    1        3.708   1.775   0.525  0.00  0.00    +0.045 A 
ATOM     13  C   LIG    1        2.479   1.807   1.232  0.00  0.00    +0.036 A 
ATOM     14  C   LIG    1        2.149   2.845   2.113  0.00  0.00    +0.057 A 
ATOM     15  C   LIG    1        3.063   3.882   2.273  0.00  0.00    +0.013 A 
ATOM     16  C   LIG    1        4.283   3.865   1.591  0.00  0.00    +0.012 A 
BRANCH  11  19
ATOM     17  C   LIG    1        7.400   4.179   1.752  0.00  0.00    +0.173 C 
ATOM     18  N   LIG    1        7.150   3.467   0.518  0.00  0.00    -0.267 N 
ATOM     19  C   LIG    1        5.986   2.857   0.055  0.00  0.00    +0.070 A 
ATOM     20  C   LIG    1        6.368   2.342  -1.180  0.00  0.00    +0.049 A 
ATOM     21  C   LIG    1        7.720   2.664  -1.352  0.00  0.00    +0.135 A 
ATOM     22  N   LIG    1        8.196   3.358  -0.327  0.00  0.00    -0.179 NA
ENDBRANCH  11  19
BRANCH  14  23
ATOM     23  C   LIG    1        0.819   2.859   2.830  0.00  0.00    +0.417 C 
ATOM     24  F   LIG    1        0.648   1.783   3.646  0.00  0.00    -0.166 F 
ATOM     25  F   LIG    1       -0.232   2.851   1.964  0.00  0.00    -0.166 F 
ATOM     26  F   LIG    1        0.643   3.956   3.617  0.00  0.00    -0.166 F 
ENDBRANCH  14  23
ENDBRANCH   9  12
ENDBRANCH   7   9
BRANCH   7  27
ATOM     27  O   LIG    1        1.929   0.863  -1.547  0.00  0.00    -0.481 OA
ATOM     28  H   LIG    1        2.093   1.788  -1.310  0.00  0.00    +0.295 HD
ENDBRANCH   7  27
ENDBRANCH   1   8
BRANCH   4  29
ATOM     29  O   LIG    1        6.561  -5.097  -0.427  0.00  0.00    -0.424 OA
BRANCH  29  30
ATOM     30  C   LIG    1        7.320  -5.643  -1.433  0.00  0.00    +0.132 A 
ATOM     31  C   LIG    1        7.675  -6.984  -1.314  0.00  0.00    +0.047 A 
ATOM     32  C   LIG    1        8.422  -7.597  -2.326  0.00  0.00    +0.012 A 
ATOM     33  C   LIG    1        8.830  -6.886  -3.464  0.00  0.00    -0.013 A 
ATOM     34  C   LIG    1        8.502  -5.525  -3.539  0.00  0.00    +0.012 A 
ATOM     35  C   LIG    1        7.780  -4.905  -2.522  0.00  0.00    +0.047 A 
BRANCH  33  36
ATOM     36  C   LIG    1        9.562  -7.512  -4.562  0.00  0.00    +0.046 A 
ATOM     37  C   LIG    1        9.970  -8.837  -4.649  0.00  0.00    +0.165 A 
ATOM     38  N   LIG    1        9.841  -9.915  -3.808  0.00  0.00    -0.213 NA
ATOM     39  C   LIG    1       10.348 -11.073  -4.171  0.00  0.00    +0.125 A 
ATOM     40  C   LIG    1       11.102 -11.227  -5.472  0.00  0.00    +0.063 A 
ATOM     41  C   LIG    1       11.179 -10.160  -6.271  0.00  0.00    +0.118 A 
ATOM     42  N   LIG    1       10.621  -8.955  -5.880  0.00  0.00    -0.221 N 
ATOM     43  N   LIG    1       10.631  -7.798  -6.577  0.00  0.00    -0.173 NA
ATOM     44  C   LIG    1       10.001  -6.939  -5.780  0.00  0.00    +0.145 A 
BRANCH  39  45
ATOM     45  N   LIG    1       10.232 -12.189  -3.348  0.00  0.00    -0.315 N 
ATOM     46  C   LIG    1        9.949 -13.455  -3.957  0.00  0.00    +0.108 C 
ATOM     47  C   LIG    1        9.083 -13.783  -2.746  0.00  0.00    +0.038 C 
ATOM     48  C   LIG    1        9.105 -12.280  -2.457  0.00  0.00    +0.108 C 
ENDBRANCH  39  45
ENDBRANCH  33  36
ENDBRANCH  29  30
ENDBRANCH   4  29
TORSDOF 10
