REMARK  Name = pdb/CHEMBL3666395.pdb
REMARK                            x       y       z     vdW  Elec       q    Type
REMARK                         _______ _______ _______ _____ _____    ______ ____
ROOT
ATOM      1  C   LIG    1        2.809   5.058   1.350  0.00  0.00    +0.042 A 
ATOM      2  C   LIG    1        2.601   6.441   1.479  0.00  0.00    +0.038 A 
ATOM      3  C   LIG    1        2.671   7.269   0.348  0.00  0.00    +0.053 A 
ATOM      4  C   LIG    1        2.957   6.656  -0.871  0.00  0.00    +0.134 A 
ATOM      5  N   LIG    1        3.177   5.325  -1.022  0.00  0.00    -0.261 NA
ATOM      6  C   LIG    1        3.110   4.564   0.091  0.00  0.00    +0.122 A 
ENDROOT
BRANCH   3   7
ATOM      7  N   LIG    1        2.442   8.652   0.512  0.00  0.00    -0.280 N 
ATOM      8  H   LIG    1        2.215   8.966   1.451  0.00  0.00    +0.155 HD
ATOM      9  C   LIG    1        2.405   9.615  -0.484  0.00  0.00    +0.250 C 
ATOM     10  O   LIG    1        2.568   9.398  -1.674  0.00  0.00    -0.270 OA
BRANCH   9  11
ATOM     11  C   LIG    1        2.098  10.963   0.004  0.00  0.00    +0.064 A 
ATOM     12  C   LIG    1        1.468  12.014  -0.746  0.00  0.00    +0.031 A 
ATOM     13  C   LIG    1        0.951  12.159  -2.047  0.00  0.00    +0.017 A 
ATOM     14  C   LIG    1        0.402  13.397  -2.410  0.00  0.00    -0.032 A 
ATOM     15  C   LIG    1       -0.121  13.620  -3.795  0.00  0.00    +0.045 C 
ATOM     16  C   LIG    1        0.388  14.414  -1.458  0.00  0.00    +0.116 A 
ATOM     17  N   LIG    1        0.858  14.327  -0.191  0.00  0.00    -0.237 NA
ATOM     18  C   LIG    1        1.380  13.121   0.090  0.00  0.00    +0.139 A 
ATOM     19  N   LIG    1        1.937  12.789   1.291  0.00  0.00    -0.345 N 
ATOM     20  H   LIG    1        2.012  13.437   2.063  0.00  0.00    +0.167 HD
ATOM     21  C   LIG    1        2.383  11.492   1.257  0.00  0.00    +0.098 A 
ENDBRANCH   9  11
ENDBRANCH   3   7
BRANCH   1  22
ATOM     22  C   LIG    1        2.785   4.158   2.530  0.00  0.00    +0.197 C 
ATOM     23  O   LIG    1        3.124   4.618   3.619  0.00  0.00    -0.287 OA
BRANCH  22  31
ATOM     24  N   LIG    1        1.497   0.829   1.636  0.00  0.00    -0.329 N 
ATOM     25  C   LIG    1        2.297   0.493   2.699  0.00  0.00    +0.145 A 
ATOM     26  N   LIG    1        2.480  -0.747   3.185  0.00  0.00    -0.218 NA
ATOM     27  C   LIG    1        3.321  -0.760   4.231  0.00  0.00    +0.223 A 
ATOM     28  N   LIG    1        3.962   0.284   4.791  0.00  0.00    -0.243 NA
ATOM     29  C   LIG    1        3.743   1.511   4.265  0.00  0.00    +0.124 A 
ATOM     30  C   LIG    1        2.880   1.659   3.180  0.00  0.00    +0.048 A 
ATOM     31  C   LIG    1        2.416   2.747   2.376  0.00  0.00    +0.051 A 
ATOM     32  C   LIG    1        1.529   2.197   1.459  0.00  0.00    +0.100 A 
BRANCH  24  34
ATOM     33  C   LIG    1        1.582  -1.150   0.125  0.00  0.00    +0.030 C 
ATOM     34  C   LIG    1        0.713  -0.098   0.820  0.00  0.00    +0.083 C 
ATOM     35  C   LIG    1       -0.422  -0.741   1.615  0.00  0.00    +0.030 C 
ENDBRANCH  24  34
ENDBRANCH  22  31
ENDBRANCH   1  22
TORSDOF 5
