REMARK  Name = pdb/CHEMBL3661606.pdb
REMARK                            x       y       z     vdW  Elec       q    Type
REMARK                         _______ _______ _______ _____ _____    ______ ____
ROOT
ATOM      1  C   LIG    1        2.773  -4.717  -3.555  0.00  0.00    +0.042 A 
ATOM      2  C   LIG    1        3.451  -5.938  -3.665  0.00  0.00    +0.038 A 
ATOM      3  C   LIG    1        3.502  -6.618  -4.887  0.00  0.00    +0.052 A 
ATOM      4  C   LIG    1        2.878  -6.015  -5.976  0.00  0.00    +0.134 A 
ATOM      5  N   LIG    1        2.163  -4.865  -5.892  0.00  0.00    -0.261 NA
ATOM      6  C   LIG    1        2.095  -4.270  -4.678  0.00  0.00    +0.122 A 
ENDROOT
BRANCH   3   7
ATOM      7  N   LIG    1        4.170  -7.862  -4.912  0.00  0.00    -0.284 N 
ATOM      8  H   LIG    1        4.528  -8.194  -4.023  0.00  0.00    +0.155 HD
ATOM      9  C   LIG    1        4.307  -8.709  -5.999  0.00  0.00    +0.222 C 
ATOM     10  O   LIG    1        3.875  -8.494  -7.127  0.00  0.00    -0.275 OA
BRANCH   9  11
ATOM     11  C   LIG    1        5.039 -10.005  -5.664  0.00  0.00    +0.131 C 
BRANCH  11  12
ATOM     12  C   LIG    1        4.166 -11.165  -5.231  0.00  0.00    -0.038 A 
ATOM     13  C   LIG    1        2.767 -11.091  -5.193  0.00  0.00    +0.016 A 
ATOM     14  C   LIG    1        1.984 -12.190  -4.793  0.00  0.00    +0.055 A 
ATOM     15  C   LIG    1        2.617 -13.386  -4.436  0.00  0.00    +0.012 A 
ATOM     16  C   LIG    1        4.008 -13.480  -4.476  0.00  0.00    +0.001 A 
ATOM     17  C   LIG    1        4.774 -12.379  -4.868  0.00  0.00    +0.004 A 
BRANCH  14  18
ATOM     18  C   LIG    1        0.482 -12.046  -4.761  0.00  0.00    +0.417 C 
ATOM     19  F   LIG    1       -0.036 -11.720  -5.977  0.00  0.00    -0.166 F 
ATOM     20  F   LIG    1        0.080 -11.063  -3.908  0.00  0.00    -0.166 F 
ATOM     21  F   LIG    1       -0.171 -13.173  -4.364  0.00  0.00    -0.166 F 
ENDBRANCH  14  18
ENDBRANCH  11  12
ENDBRANCH   9  11
ENDBRANCH   3   7
BRANCH   1  22
ATOM     22  C   LIG    1        2.800  -3.992  -2.256  0.00  0.00    +0.197 C 
ATOM     23  O   LIG    1        2.889  -4.669  -1.229  0.00  0.00    -0.287 OA
BRANCH  22  31
ATOM     24  N   LIG    1        2.688  -0.339  -2.727  0.00  0.00    -0.326 N 
ATOM     25  C   LIG    1        2.914  -0.392  -1.382  0.00  0.00    +0.147 A 
ATOM     26  N   LIG    1        3.057   0.672  -0.581  0.00  0.00    -0.197 NA
ATOM     27  C   LIG    1        3.248   0.343   0.697  0.00  0.00    +0.214 A 
ATOM     28  N   LIG    1        3.256  -0.899   1.203  0.00  0.00    -0.222 NA
ATOM     29  C   LIG    1        3.114  -1.952   0.359  0.00  0.00    +0.126 A 
ATOM     30  C   LIG    1        2.949  -1.726  -1.006  0.00  0.00    +0.048 A 
ATOM     31  C   LIG    1        2.805  -2.525  -2.195  0.00  0.00    +0.051 A 
ATOM     32  C   LIG    1        2.737  -1.614  -3.241  0.00  0.00    +0.100 A 
BRANCH  27  33
ATOM     33  N   LIG    1        3.406   1.391   1.581  0.00  0.00    -0.327 N 
ATOM     34  H   LIG    1        2.979   2.222   1.199  0.00  0.00    +0.145 HD
ATOM     35  H   LIG    1        3.113   1.101   2.503  0.00  0.00    +0.145 HD
ENDBRANCH  27  33
BRANCH  24  37
ATOM     36  C   LIG    1        1.182   1.605  -3.025  0.00  0.00    +0.033 C 
ATOM     37  C   LIG    1        2.429   0.865  -3.517  0.00  0.00    +0.111 C 
BRANCH  37  38
ATOM     38  C   LIG    1        3.637   1.808  -3.571  0.00  0.00    +0.180 C 
BRANCH  38  39
ATOM     39  O   LIG    1        4.798   1.149  -4.070  0.00  0.00    -0.393 OA
ATOM     40  H   LIG    1        5.116   0.557  -3.363  0.00  0.00    +0.209 HD
ENDBRANCH  38  39
ENDBRANCH  37  38
ENDBRANCH  24  37
ENDBRANCH  22  31
ENDBRANCH   1  22
TORSDOF 10
