REMARK  Name = pdb/CHEMBL3891891.pdb
REMARK                            x       y       z     vdW  Elec       q    Type
REMARK                         _______ _______ _______ _____ _____    ______ ____
ROOT
ATOM      1  C   LIG    1        2.122   1.829   1.822  0.00  0.00    +0.131 A 
ATOM      2  C   LIG    1        1.107   1.915   2.749  0.00  0.00    +0.183 A 
ATOM      3  N   LIG    1        0.369   0.963   3.401  0.00  0.00    -0.211 NA
ATOM      4  C   LIG    1       -0.566   1.357   4.241  0.00  0.00    +0.126 A 
ATOM      5  C   LIG    1       -0.794   2.824   4.533  0.00  0.00    +0.063 A 
ATOM      6  C   LIG    1       -0.027   3.710   3.888  0.00  0.00    +0.118 A 
ATOM      7  N   LIG    1        0.931   3.279   2.986  0.00  0.00    -0.220 N 
ATOM      8  N   LIG    1        1.790   4.042   2.265  0.00  0.00    -0.171 NA
ATOM      9  C   LIG    1        2.490   3.157   1.552  0.00  0.00    +0.164 A 
ENDROOT
BRANCH   4  10
ATOM     10  N   LIG    1       -1.332   0.396   4.891  0.00  0.00    -0.308 N 
ATOM     11  C   LIG    1       -2.718   0.644   5.336  0.00  0.00    +0.108 C 
ATOM     12  C   LIG    1       -3.512  -0.588   4.849  0.00  0.00    +0.029 C 
ATOM     13  C   LIG    1       -2.519  -1.438   4.063  0.00  0.00    +0.021 C 
ATOM     14  C   LIG    1       -1.172  -1.036   4.621  0.00  0.00    +0.107 C 
BRANCH  11  15
ATOM     15  C   LIG    1       -2.785   0.838   6.842  0.00  0.00    +0.011 A 
ATOM     16  C   LIG    1       -3.804   1.614   7.411  0.00  0.00    +0.129 A 
ATOM     17  F   LIG    1       -4.692   2.232   6.619  0.00  0.00    -0.205 F 
ATOM     18  C   LIG    1       -3.917   1.783   8.795  0.00  0.00    +0.041 A 
ATOM     19  C   LIG    1       -2.992   1.179   9.644  0.00  0.00    +0.041 A 
ATOM     20  C   LIG    1       -1.965   0.425   9.096  0.00  0.00    +0.124 A 
ATOM     21  F   LIG    1       -1.057  -0.142   9.900  0.00  0.00    -0.205 F 
ATOM     22  C   LIG    1       -1.859   0.249   7.720  0.00  0.00    +0.046 A 
ENDBRANCH  11  15
ENDBRANCH   4  10
BRANCH   1  24
ATOM     23  C   LIG    1        2.791  -0.413   1.733  0.00  0.00    +0.208 C 
ATOM     24  N   LIG    1        2.669   0.733   1.149  0.00  0.00    -0.211 NA
BRANCH  23  25
ATOM     25  C   LIG    1        3.378  -1.545   0.966  0.00  0.00    +0.132 C 
ATOM     26  C   LIG    1        4.534  -2.338   1.569  0.00  0.00    +0.033 C 
ATOM     27  C   LIG    1        4.802  -1.388   0.443  0.00  0.00    +0.033 C 
BRANCH  25  28
ATOM     28  C   LIG    1        2.443  -2.277   0.155  0.00  0.00    +0.079 C 
ATOM     29  N   LIG    1        1.713  -2.904  -0.507  0.00  0.00    -0.195 NA
ENDBRANCH  25  28
ENDBRANCH  23  25
BRANCH  23  30
ATOM     30  O   LIG    1        2.482  -0.745   3.003  0.00  0.00    -0.494 OA
ATOM     31  H   LIG    1        1.986  -0.031   3.443  0.00  0.00    +0.293 HD
ENDBRANCH  23  30
ENDBRANCH   1  24
TORSDOF 6
