REMARK  Name = pdb/CHEMBL3939888.pdb
REMARK                            x       y       z     vdW  Elec       q    Type
REMARK                         _______ _______ _______ _____ _____    ______ ____
ROOT
ATOM      1  C   LIG    1        2.074   1.523   2.509  0.00  0.00    +0.131 A 
ATOM      2  C   LIG    1        1.172   1.518   3.544  0.00  0.00    +0.183 A 
ATOM      3  N   LIG    1        0.560   0.492   4.211  0.00  0.00    -0.211 NA
ATOM      4  C   LIG    1       -0.219   0.771   5.232  0.00  0.00    +0.126 A 
ATOM      5  C   LIG    1       -0.479   2.205   5.645  0.00  0.00    +0.063 A 
ATOM      6  C   LIG    1        0.155   3.171   4.966  0.00  0.00    +0.118 A 
ATOM      7  N   LIG    1        0.996   2.850   3.911  0.00  0.00    -0.220 N 
ATOM      8  N   LIG    1        1.725   3.694   3.136  0.00  0.00    -0.171 NA
ATOM      9  C   LIG    1        2.363   2.882   2.285  0.00  0.00    +0.165 A 
ENDROOT
BRANCH   4  10
ATOM     10  N   LIG    1       -0.786  -0.286   5.938  0.00  0.00    -0.308 N 
ATOM     11  C   LIG    1       -0.514  -1.704   5.573  0.00  0.00    +0.105 C 
ATOM     12  C   LIG    1       -0.573  -2.471   6.909  0.00  0.00    +0.029 C 
ATOM     13  C   LIG    1       -0.378  -1.394   7.961  0.00  0.00    +0.021 C 
ATOM     14  C   LIG    1       -1.114  -0.210   7.359  0.00  0.00    +0.107 C 
BRANCH  11  15
ATOM     15  C   LIG    1       -1.515  -2.252   4.567  0.00  0.00    -0.024 A 
ATOM     16  C   LIG    1       -2.834  -1.777   4.504  0.00  0.00    +0.043 A 
ATOM     17  C   LIG    1       -3.723  -2.274   3.555  0.00  0.00    +0.124 A 
ATOM     18  F   LIG    1       -4.968  -1.781   3.500  0.00  0.00    -0.205 F 
ATOM     19  C   LIG    1       -3.343  -3.269   2.666  0.00  0.00    +0.038 A 
ATOM     20  C   LIG    1       -2.051  -3.785   2.736  0.00  0.00    +0.003 A 
ATOM     21  C   LIG    1       -1.144  -3.282   3.680  0.00  0.00    +0.005 A 
ENDBRANCH  11  15
ENDBRANCH   4  10
BRANCH   1  23
ATOM     22  C   LIG    1        2.801  -0.687   2.255  0.00  0.00    +0.239 C 
ATOM     23  N   LIG    1        2.593   0.476   1.729  0.00  0.00    -0.206 NA
BRANCH  22  24
ATOM     24  C   LIG    1        3.375  -1.858   1.514  0.00  0.00    +0.125 A 
ATOM     25  N   LIG    1        3.414  -3.052   2.173  0.00  0.00    -0.250 NA
ATOM     26  C   LIG    1        3.939  -4.105   1.520  0.00  0.00    +0.111 A 
ATOM     27  C   LIG    1        4.429  -4.038   0.229  0.00  0.00    +0.020 A 
ATOM     28  C   LIG    1        4.373  -2.815  -0.436  0.00  0.00    +0.004 A 
ATOM     29  C   LIG    1        3.836  -1.704   0.212  0.00  0.00    +0.033 A 
ENDBRANCH  22  24
BRANCH  22  30
ATOM     30  O   LIG    1        2.561  -1.065   3.533  0.00  0.00    -0.491 OA
ATOM     31  H   LIG    1        1.922  -0.468   3.959  0.00  0.00    +0.294 HD
ENDBRANCH  22  30
ENDBRANCH   1  23
TORSDOF 5
