REMARK  Name = pdb/CHEMBL3671470.pdb
REMARK                            x       y       z     vdW  Elec       q    Type
REMARK                         _______ _______ _______ _____ _____    ______ ____
ROOT
ATOM      1  C   LIG    1        6.864   2.347  -0.319  0.00  0.00    +0.042 A 
ATOM      2  C   LIG    1        5.852   3.075   0.332  0.00  0.00    +0.038 A 
ATOM      3  C   LIG    1        5.802   4.466   0.227  0.00  0.00    +0.052 A 
ATOM      4  C   LIG    1        6.814   5.083  -0.502  0.00  0.00    +0.134 A 
ATOM      5  N   LIG    1        7.807   4.411  -1.142  0.00  0.00    -0.261 NA
ATOM      6  C   LIG    1        7.811   3.062  -1.037  0.00  0.00    +0.122 A 
ENDROOT
BRANCH   3   7
ATOM      7  N   LIG    1        4.721   5.140   0.841  0.00  0.00    -0.283 N 
ATOM      8  H   LIG    1        3.958   4.560   1.180  0.00  0.00    +0.155 HD
ATOM      9  C   LIG    1        4.691   6.489   1.160  0.00  0.00    +0.239 C 
ATOM     10  O   LIG    1        5.604   7.285   0.958  0.00  0.00    -0.273 OA
BRANCH   9  11
ATOM     11  C   LIG    1        3.420   6.934   1.845  0.00  0.00    +0.241 C 
BRANCH  11  12
ATOM     12  N   LIG    1        3.549   6.827   3.279  0.00  0.00    -0.242 N 
ATOM     13  N   LIG    1        3.185   5.690   3.897  0.00  0.00    -0.065 NA
ATOM     14  N   LIG    1        3.341   5.878   5.201  0.00  0.00    -0.125 NA
ATOM     15  C   LIG    1        3.808   7.158   5.407  0.00  0.00    +0.185 A 
ATOM     16  C   LIG    1        3.943   7.774   4.174  0.00  0.00    +0.143 A 
BRANCH  15  17
ATOM     17  C   LIG    1        4.074   7.676   6.777  0.00  0.00    +0.437 C 
ATOM     18  F   LIG    1        5.018   6.952   7.431  0.00  0.00    -0.164 F 
ATOM     19  F   LIG    1        2.960   7.671   7.554  0.00  0.00    -0.164 F 
ATOM     20  F   LIG    1        4.519   8.963   6.755  0.00  0.00    -0.164 F 
ENDBRANCH  15  17
ENDBRANCH  11  12
ENDBRANCH   9  11
ENDBRANCH   3   7
BRANCH   1  21
ATOM     21  C   LIG    1        6.970   0.866  -0.244  0.00  0.00    +0.197 C 
ATOM     22  O   LIG    1        8.081   0.332  -0.325  0.00  0.00    -0.287 OA
BRANCH  21  28
ATOM     23  C   LIG    1        4.601  -3.448   1.639  0.00  0.00    +0.214 A 
ATOM     24  N   LIG    1        3.703  -2.631   1.080  0.00  0.00    -0.197 NA
ATOM     25  C   LIG    1        4.257  -1.528   0.548  0.00  0.00    +0.147 A 
ATOM     26  N   LIG    1        3.598  -0.516  -0.096  0.00  0.00    -0.325 N 
ATOM     27  C   LIG    1        4.484   0.438  -0.507  0.00  0.00    +0.100 A 
ATOM     28  C   LIG    1        5.755   0.082  -0.062  0.00  0.00    +0.051 A 
ATOM     29  C   LIG    1        5.606  -1.193   0.567  0.00  0.00    +0.048 A 
ATOM     30  C   LIG    1        6.447  -2.111   1.193  0.00  0.00    +0.126 A 
ATOM     31  N   LIG    1        5.923  -3.238   1.730  0.00  0.00    -0.222 NA
BRANCH  26  32
ATOM     32  C   LIG    1        2.225  -0.427  -0.332  0.00  0.00    +0.048 C 
ATOM     33  C   LIG    1        1.140  -1.549  -0.305  0.00  0.00    +0.032 C 
ATOM     34  C   LIG    1        0.370  -0.131  -0.377  0.00  0.00    -0.004 C 
ATOM     35  C   LIG    1        1.494   0.593  -1.276  0.00  0.00    +0.032 C 
ATOM     36  C   LIG    1        1.347   0.237   0.798  0.00  0.00    +0.032 C 
ENDBRANCH  26  32
BRANCH  23  37
ATOM     37  N   LIG    1        4.123  -4.588   2.258  0.00  0.00    -0.327 N 
ATOM     38  H   LIG    1        3.188  -4.417   2.599  0.00  0.00    +0.145 HD
ATOM     39  H   LIG    1        4.809  -4.890   2.937  0.00  0.00    +0.145 HD
ENDBRANCH  23  37
ENDBRANCH  21  28
ENDBRANCH   1  21
TORSDOF 8
