REMARK  Name = pdb/CHEMBL3978831.pdb
REMARK                            x       y       z     vdW  Elec       q    Type
REMARK                         _______ _______ _______ _____ _____    ______ ____
ROOT
ATOM      1  C   LIG    1        9.358  -3.747  -1.390  0.00  0.00    +0.149 A 
ATOM      2  N   LIG    1       10.005  -4.260  -0.333  0.00  0.00    -0.160 NA
ATOM      3  N   LIG    1       11.233  -3.647  -0.340  0.00  0.00    -0.218 N 
ATOM      4  C   LIG    1       11.394  -2.832  -1.473  0.00  0.00    +0.129 A 
ATOM      5  C   LIG    1       10.180  -2.868  -2.115  0.00  0.00    +0.078 A 
ENDROOT
BRANCH   3   6
ATOM      6  C   LIG    1       12.143  -3.917   0.726  0.00  0.00    +0.067 A 
ATOM      7  C   LIG    1       12.037  -5.138   1.416  0.00  0.00    +0.028 A 
ATOM      8  C   LIG    1       12.894  -5.432   2.481  0.00  0.00    +0.002 A 
ATOM      9  C   LIG    1       13.844  -4.499   2.885  0.00  0.00    +0.000 A 
ATOM     10  C   LIG    1       13.943  -3.276   2.221  0.00  0.00    +0.002 A 
ATOM     11  C   LIG    1       13.101  -2.982   1.139  0.00  0.00    +0.028 A 
ENDBRANCH   3   6
BRANCH   4  12
ATOM     12  N   LIG    1       12.543  -2.161  -1.933  0.00  0.00    -0.266 N 
ATOM     13  H   LIG    1       13.395  -2.245  -1.393  0.00  0.00    +0.157 HD
ATOM     14  C   LIG    1       12.575  -1.437  -3.187  0.00  0.00    +0.251 C 
ATOM     15  O   LIG    1       11.606  -1.394  -3.920  0.00  0.00    -0.270 OA
BRANCH  14  16
ATOM     16  C   LIG    1       13.786  -0.660  -3.551  0.00  0.00    +0.056 A 
ATOM     17  C   LIG    1       15.077  -0.954  -3.140  0.00  0.00    +0.054 A 
ATOM     18 CL   LIG    1       15.478  -2.366  -2.236  0.00  0.00    -0.083 Cl
ATOM     19  C   LIG    1       16.114  -0.086  -3.481  0.00  0.00    +0.041 A 
ATOM     20  C   LIG    1       15.876   1.080  -4.234  0.00  0.00    +0.052 A 
ATOM     21 CL   LIG    1       17.257   2.106  -4.439  0.00  0.00    -0.083 Cl
ATOM     22  C   LIG    1       14.589   1.385  -4.724  0.00  0.00    +0.022 A 
ATOM     23  C   LIG    1       13.569   0.468  -4.376  0.00  0.00    +0.026 A 
BRANCH  22  24
ATOM     24  C   LIG    1       14.258   2.574  -5.562  0.00  0.00    +0.107 A 
ATOM     25  C   LIG    1       13.000   3.190  -5.578  0.00  0.00    +0.149 A 
ATOM     26  F   LIG    1       12.000   2.775  -4.785  0.00  0.00    -0.203 F 
ATOM     27  C   LIG    1       12.755   4.267  -6.425  0.00  0.00    +0.042 A 
ATOM     28  C   LIG    1       13.781   4.743  -7.226  0.00  0.00    +0.023 A 
ATOM     29  C   LIG    1       15.005   4.103  -7.156  0.00  0.00    +0.111 A 
ATOM     30  N   LIG    1       15.249   3.027  -6.371  0.00  0.00    -0.252 NA
ENDBRANCH  22  24
ENDBRANCH  14  16
ENDBRANCH   4  12
BRANCH   1  32
ATOM     31  N   LIG    1        7.452  -3.646  -2.801  0.00  0.00    -0.239 NA
ATOM     32  C   LIG    1        7.986  -4.111  -1.729  0.00  0.00    +0.236 C 
BRANCH  32  33
ATOM     33  O   LIG    1        7.368  -4.945  -0.867  0.00  0.00    -0.491 OA
ATOM     34  H   LIG    1        7.957  -5.119  -0.109  0.00  0.00    +0.294 HD
ENDBRANCH  32  33
BRANCH  31  35
ATOM     35  C   LIG    1        6.059  -4.024  -3.062  0.00  0.00    +0.243 C 
BRANCH  35  40
ATOM     36  C   LIG    1        2.547  -0.704  -2.931  0.00  0.00    +0.111 C 
ATOM     37  C   LIG    1        3.570  -1.607  -2.381  0.00  0.00    +0.214 A 
ATOM     38  N   LIG    1        3.952  -1.787  -1.135  0.00  0.00    -0.113 NA
ATOM     39  N   LIG    1        4.955  -2.733  -1.171  0.00  0.00    -0.110 NA
ATOM     40  C   LIG    1        5.111  -3.064  -2.437  0.00  0.00    +0.238 A 
ATOM     41  O   LIG    1        4.255  -2.389  -3.270  0.00  0.00    -0.423 OA
ENDBRANCH  35  40
ENDBRANCH  31  35
ENDBRANCH   1  32
TORSDOF 8
