REMARK  Name = pdb/CHEMBL3671396.pdb
REMARK                            x       y       z     vdW  Elec       q    Type
REMARK                         _______ _______ _______ _____ _____    ______ ____
ROOT
ATOM      1  C   LIG    1        4.113  -0.389  -4.999  0.00  0.00    +0.042 A 
ATOM      2  C   LIG    1        5.309  -0.274  -5.732  0.00  0.00    +0.038 A 
ATOM      3  C   LIG    1        5.652   0.934  -6.358  0.00  0.00    +0.052 A 
ATOM      4  C   LIG    1        4.753   1.990  -6.228  0.00  0.00    +0.134 A 
ATOM      5  N   LIG    1        3.565   1.897  -5.569  0.00  0.00    -0.261 NA
ATOM      6  C   LIG    1        3.267   0.712  -4.983  0.00  0.00    +0.122 A 
ENDROOT
BRANCH   3   7
ATOM      7  N   LIG    1        6.863   0.979  -7.097  0.00  0.00    -0.282 N 
ATOM      8  H   LIG    1        7.318   0.088  -7.273  0.00  0.00    +0.155 HD
ATOM      9  C   LIG    1        7.569   2.120  -7.464  0.00  0.00    +0.250 C 
ATOM     10  O   LIG    1        7.229   3.266  -7.161  0.00  0.00    -0.272 OA
BRANCH   9  11
ATOM     11  C   LIG    1        8.867   1.856  -8.304  0.00  0.00    +0.230 C 
BRANCH  11  12
ATOM     12  C   LIG    1        9.782   0.753  -7.785  0.00  0.00    -0.010 A 
ATOM     13  C   LIG    1       10.556   0.024  -8.709  0.00  0.00    +0.006 A 
ATOM     14  C   LIG    1       11.402  -1.004  -8.288  0.00  0.00    +0.000 A 
ATOM     15  C   LIG    1       11.497  -1.316  -6.935  0.00  0.00    +0.000 A 
ATOM     16  C   LIG    1       10.745  -0.601  -6.006  0.00  0.00    +0.000 A 
ATOM     17  C   LIG    1        9.903   0.436  -6.423  0.00  0.00    +0.006 A 
ENDBRANCH  11  12
BRANCH  11  18
ATOM     18  O   LIG    1        9.665   3.008  -8.558  0.00  0.00    -0.378 OA
ATOM     19  H   LIG    1        9.840   3.441  -7.704  0.00  0.00    +0.211 HD
ENDBRANCH  11  18
ENDBRANCH   9  11
ENDBRANCH   3   7
BRANCH   1  20
ATOM     20  C   LIG    1        3.695  -1.633  -4.299  0.00  0.00    +0.197 C 
ATOM     21  O   LIG    1        2.482  -1.873  -4.199  0.00  0.00    -0.287 OA
BRANCH  20  29
ATOM     22  N   LIG    1        6.575  -3.288  -2.738  0.00  0.00    -0.329 N 
ATOM     23  C   LIG    1        5.744  -4.376  -2.866  0.00  0.00    +0.145 A 
ATOM     24  N   LIG    1        6.027  -5.634  -2.480  0.00  0.00    -0.218 NA
ATOM     25  C   LIG    1        5.001  -6.474  -2.711  0.00  0.00    +0.223 A 
ATOM     26  N   LIG    1        3.800  -6.187  -3.252  0.00  0.00    -0.243 NA
ATOM     27  C   LIG    1        3.562  -4.906  -3.620  0.00  0.00    +0.124 A 
ATOM     28  C   LIG    1        4.556  -3.937  -3.446  0.00  0.00    +0.048 A 
ATOM     29  C   LIG    1        4.687  -2.537  -3.724  0.00  0.00    +0.051 A 
ATOM     30  C   LIG    1        5.956  -2.182  -3.282  0.00  0.00    +0.100 A 
BRANCH  22  32
ATOM     31  C   LIG    1        9.037  -3.447  -3.030  0.00  0.00    +0.030 C 
ATOM     32  C   LIG    1        7.872  -3.265  -2.056  0.00  0.00    +0.083 C 
ATOM     33  C   LIG    1        8.074  -1.975  -1.247  0.00  0.00    +0.030 C 
ENDBRANCH  22  32
ENDBRANCH  20  29
ENDBRANCH   1  20
TORSDOF 7
