REMARK  Name = pdb/CHEMBL211095.pdb
REMARK                            x       y       z     vdW  Elec       q    Type
REMARK                         _______ _______ _______ _____ _____    ______ ____
ROOT
ATOM      1  C   LIG    1        7.334   2.924   0.911  0.00  0.00    +0.106 A 
ATOM      2  C   LIG    1        8.219   2.223   0.091  0.00  0.00    +0.098 A 
ATOM      3  C   LIG    1        7.568   1.996  -1.176  0.00  0.00    +0.121 A 
ATOM      4  N   LIG    1        6.299   2.375  -1.279  0.00  0.00    -0.202 NA
ATOM      5  S   LIG    1        5.885   3.207   0.066  0.00  0.00    +0.029 S 
ENDROOT
BRANCH   1  10
ATOM      6  N   LIG    1        6.935   4.236   4.249  0.00  0.00    -0.313 N 
ATOM      7  H   LIG    1        7.901   4.484   4.414  0.00  0.00    +0.146 HD
ATOM      8  H   LIG    1        6.248   4.738   4.796  0.00  0.00    +0.146 HD
ATOM      9  C   LIG    1        6.509   3.932   2.993  0.00  0.00    +0.302 C 
ATOM     10  N   LIG    1        7.496   3.369   2.217  0.00  0.00    -0.262 N 
ATOM     11  H   LIG    1        8.401   3.191   2.641  0.00  0.00    +0.157 HD
ATOM     12  O   LIG    1        5.335   4.147   2.705  0.00  0.00    -0.253 OA
ENDBRANCH   1  10
BRANCH   2  13
ATOM     13  C   LIG    1        9.548   1.832   0.520  0.00  0.00    +0.246 C 
ATOM     14  N   LIG    1       10.119   0.764  -0.103  0.00  0.00    -0.325 N 
ATOM     15  H   LIG    1       11.063   0.500   0.145  0.00  0.00    +0.145 HD
ATOM     16  H   LIG    1        9.675   0.284  -0.878  0.00  0.00    +0.145 HD
ATOM     17  O   LIG    1       10.141   2.394   1.450  0.00  0.00    -0.270 OA
ENDBRANCH   2  13
BRANCH   3  18
ATOM     18  S   LIG    1        8.278   1.248  -2.611  0.00  0.00    -0.096 S 
BRANCH  18  19
ATOM     19  C   LIG    1        7.437   2.251  -3.928  0.00  0.00    +0.083 C 
ATOM     20  C   LIG    1        7.869   3.710  -3.871  0.00  0.00    -0.031 A 
ATOM     21  C   LIG    1        6.948   4.650  -3.355  0.00  0.00    +0.005 A 
ATOM     22  C   LIG    1        7.302   5.978  -3.135  0.00  0.00    +0.000 A 
ATOM     23  C   LIG    1        8.582   6.402  -3.452  0.00  0.00    +0.000 A 
ATOM     24  C   LIG    1        9.496   5.501  -3.999  0.00  0.00    +0.004 A 
ATOM     25  C   LIG    1        9.156   4.153  -4.228  0.00  0.00    -0.043 A 
ATOM     26  C   LIG    1       10.216   3.237  -4.793  0.00  0.00    +0.035 C 
ATOM     27  C   LIG    1        9.808   2.513  -6.075  0.00  0.00    +0.005 C 
ATOM     28  C   LIG    1        8.918   1.296  -5.853  0.00  0.00    +0.002 C 
ATOM     29  C   LIG    1        7.529   1.631  -5.328  0.00  0.00    +0.019 C 
ENDBRANCH  18  19
ENDBRANCH   3  18
TORSDOF 4
