REMARK  Name = pdb/CHEMBL455920.pdb
REMARK                            x       y       z     vdW  Elec       q    Type
REMARK                         _______ _______ _______ _____ _____    ______ ____
ROOT
ATOM      1  C   LIG    1        8.573   5.974   2.642  0.00  0.00    +0.148 A 
ATOM      2  C   LIG    1        8.558   7.270   3.129  0.00  0.00    +0.099 A 
ATOM      3 CL   LIG    1        9.950   8.112   3.687  0.00  0.00    -0.078 Cl
ATOM      4  C   LIG    1        7.333   7.898   3.135  0.00  0.00    +0.137 A 
ATOM      5  N   LIG    1        6.189   7.321   2.707  0.00  0.00    -0.221 NA
ATOM      6  C   LIG    1        6.269   6.065   2.282  0.00  0.00    +0.217 A 
ATOM      7  N   LIG    1        7.422   5.388   2.239  0.00  0.00    -0.198 NA
ENDROOT
BRANCH   1   8
ATOM      8  N   LIG    1        9.768   5.211   2.612  0.00  0.00    -0.282 N 
ATOM      9  H   LIG    1       10.608   5.768   2.732  0.00  0.00    +0.155 HD
BRANCH   8  14
ATOM     10  C   LIG    1        9.638   2.024   1.084  0.00  0.00    +0.213 A 
ATOM     11  N   LIG    1       10.954   2.246   1.383  0.00  0.00    -0.245 N 
ATOM     12  H   LIG    1       11.738   1.664   1.125  0.00  0.00    +0.192 HD
ATOM     13  N   LIG    1       11.181   3.407   2.025  0.00  0.00    -0.156 NA
ATOM     14  C   LIG    1        9.969   3.975   2.107  0.00  0.00    +0.149 A 
ATOM     15  C   LIG    1        8.982   3.121   1.554  0.00  0.00    +0.112 A 
BRANCH  10  16
ATOM     16  O   LIG    1        9.288   0.902   0.444  0.00  0.00    -0.474 OA
BRANCH  16  18
ATOM     17  C   LIG    1        8.283   1.385  -1.685  0.00  0.00    +0.051 C 
ATOM     18  C   LIG    1        8.031   0.926  -0.252  0.00  0.00    +0.169 C 
ATOM     19  C   LIG    1        7.479  -0.495  -0.220  0.00  0.00    +0.051 C 
ENDBRANCH  16  18
ENDBRANCH  10  16
ENDBRANCH   8  14
ENDBRANCH   1   8
BRANCH   6  20
ATOM     20  N   LIG    1        5.147   5.383   1.841  0.00  0.00    -0.304 N 
ATOM     21  H   LIG    1        5.338   4.386   1.916  0.00  0.00    +0.150 HD
BRANCH  20  22
ATOM     22  C   LIG    1        3.884   5.785   2.473  0.00  0.00    +0.138 C 
ATOM     23  C   LIG    1        2.958   6.346   1.394  0.00  0.00    +0.036 C 
BRANCH  22  24
ATOM     24  C   LIG    1        3.191   4.643   3.230  0.00  0.00    +0.149 A 
ATOM     25  N   LIG    1        3.813   3.442   3.331  0.00  0.00    -0.236 NA
ATOM     26  C   LIG    1        3.224   2.533   4.146  0.00  0.00    +0.152 A 
ATOM     27  C   LIG    1        2.063   2.771   4.842  0.00  0.00    +0.159 A 
ATOM     28  F   LIG    1        1.529   1.864   5.667  0.00  0.00    -0.202 F 
ATOM     29  C   LIG    1        1.496   4.005   4.663  0.00  0.00    +0.152 A 
ATOM     30  N   LIG    1        2.033   4.953   3.867  0.00  0.00    -0.236 NA
ENDBRANCH  22  24
ENDBRANCH  20  22
ENDBRANCH   6  20
TORSDOF 7
