REMARK  Name = pdb/CHEMBL3915459.pdb
REMARK                            x       y       z     vdW  Elec       q    Type
REMARK                         _______ _______ _______ _____ _____    ______ ____
ROOT
ATOM      1  C   LIG    1        3.438  -0.966  -0.828  0.00  0.00    +0.149 A 
ATOM      2  N   LIG    1        3.280  -1.816  -1.858  0.00  0.00    -0.160 NA
ATOM      3  N   LIG    1        4.108  -1.337  -2.833  0.00  0.00    -0.218 N 
ATOM      4  C   LIG    1        4.605  -0.067  -2.501  0.00  0.00    +0.129 A 
ATOM      5  C   LIG    1        4.270   0.115  -1.179  0.00  0.00    +0.078 A 
ENDROOT
BRANCH   3   6
ATOM      6  C   LIG    1        4.307  -2.087  -4.027  0.00  0.00    +0.067 A 
ATOM      7  C   LIG    1        3.337  -3.016  -4.437  0.00  0.00    +0.028 A 
ATOM      8  C   LIG    1        3.529  -3.769  -5.600  0.00  0.00    +0.002 A 
ATOM      9  C   LIG    1        4.696  -3.618  -6.346  0.00  0.00    +0.000 A 
ATOM     10  C   LIG    1        5.667  -2.706  -5.938  0.00  0.00    +0.002 A 
ATOM     11  C   LIG    1        5.477  -1.942  -4.783  0.00  0.00    +0.028 A 
ENDBRANCH   3   6
BRANCH   4  12
ATOM     12  N   LIG    1        5.218   0.869  -3.353  0.00  0.00    -0.266 N 
ATOM     13  H   LIG    1        5.354   0.621  -4.321  0.00  0.00    +0.157 HD
ATOM     14  C   LIG    1        5.557   2.209  -2.929  0.00  0.00    +0.251 C 
ATOM     15  O   LIG    1        5.334   2.580  -1.798  0.00  0.00    -0.270 OA
BRANCH  14  16
ATOM     16  C   LIG    1        6.124   3.165  -3.910  0.00  0.00    +0.056 A 
ATOM     17  C   LIG    1        6.958   2.814  -4.971  0.00  0.00    +0.056 A 
ATOM     18 CL   LIG    1        7.431   1.194  -5.311  0.00  0.00    -0.083 Cl
ATOM     19  C   LIG    1        7.496   3.812  -5.784  0.00  0.00    +0.059 A 
ATOM     20  C   LIG    1        7.215   5.158  -5.536  0.00  0.00    +0.134 A 
ATOM     21  F   LIG    1        7.825   6.055  -6.320  0.00  0.00    -0.205 F 
ATOM     22  C   LIG    1        6.381   5.563  -4.489  0.00  0.00    +0.039 A 
ATOM     23  C   LIG    1        5.846   4.530  -3.683  0.00  0.00    +0.027 A 
BRANCH  22  24
ATOM     24  C   LIG    1        6.087   6.979  -4.175  0.00  0.00    +0.109 A 
ATOM     25  C   LIG    1        6.037   8.008  -5.117  0.00  0.00    +0.149 A 
ATOM     26  F   LIG    1        6.225   7.783  -6.424  0.00  0.00    -0.203 F 
ATOM     27  C   LIG    1        5.739   9.305  -4.712  0.00  0.00    +0.042 A 
ATOM     28  C   LIG    1        5.483   9.559  -3.372  0.00  0.00    +0.023 A 
ATOM     29  C   LIG    1        5.537   8.496  -2.488  0.00  0.00    +0.111 A 
ATOM     30  N   LIG    1        5.827   7.224  -2.857  0.00  0.00    -0.252 NA
ENDBRANCH  22  24
ENDBRANCH  14  16
ENDBRANCH   4  12
BRANCH   1  31
ATOM     31  C   LIG    1        2.683  -1.127   0.410  0.00  0.00    +0.236 C 
ATOM     32  N   LIG    1        2.982  -0.464   1.470  0.00  0.00    -0.240 NA
BRANCH  32  33
ATOM     33  C   LIG    1        2.042  -0.599   2.617  0.00  0.00    +0.180 C 
ATOM     34  C   LIG    1        1.992   0.694   3.452  0.00  0.00    +0.283 C 
ATOM     35  F   LIG    1        0.854   0.687   4.205  0.00  0.00    -0.202 F 
ATOM     36  F   LIG    1        1.885   1.779   2.638  0.00  0.00    -0.202 F 
ATOM     37  C   LIG    1        3.209   0.854   4.377  0.00  0.00    +0.159 C 
ATOM     38  N   LIG    1        3.523  -0.339   5.188  0.00  0.00    -0.311 NA
ATOM     39  H   LIG    1        4.375  -0.172   5.723  0.00  0.00    +0.122 HD
ATOM     40  C   LIG    1        3.691  -1.514   4.334  0.00  0.00    +0.083 C 
ATOM     41  C   LIG    1        2.437  -1.788   3.502  0.00  0.00    +0.048 C 
ENDBRANCH  32  33
BRANCH  31  42
ATOM     42  O   LIG    1        1.640  -1.983   0.317  0.00  0.00    -0.491 OA
ATOM     43  H   LIG    1        1.618  -2.354  -0.586  0.00  0.00    +0.294 HD
ENDBRANCH  31  42
ENDBRANCH   1  31
TORSDOF 7
