REMARK  Name = pdb/CHEMBL3671145.pdb
REMARK                            x       y       z     vdW  Elec       q    Type
REMARK                         _______ _______ _______ _____ _____    ______ ____
ROOT
ATOM      1  C   LIG    1        7.205  -2.933   1.872  0.00  0.00    +0.100 A 
ATOM      2  C   LIG    1        8.059  -2.361   2.795  0.00  0.00    +0.170 A 
ATOM      3  N   LIG    1        7.833  -1.759   4.000  0.00  0.00    -0.212 NA
ATOM      4  C   LIG    1        8.865  -1.340   4.707  0.00  0.00    +0.126 A 
ATOM      5  C   LIG    1       10.281  -1.468   4.190  0.00  0.00    +0.063 A 
ATOM      6  C   LIG    1       10.447  -2.043   2.993  0.00  0.00    +0.118 A 
ATOM      7  N   LIG    1        9.351  -2.507   2.283  0.00  0.00    -0.221 N 
ATOM      8  N   LIG    1        9.359  -3.129   1.082  0.00  0.00    -0.173 NA
ATOM      9  C   LIG    1        8.076  -3.392   0.848  0.00  0.00    +0.150 A 
ENDROOT
BRANCH   4  10
ATOM     10  N   LIG    1        8.637  -0.761   5.955  0.00  0.00    -0.308 N 
ATOM     11  C   LIG    1        7.256  -0.549   6.438  0.00  0.00    +0.108 C 
ATOM     12  C   LIG    1        7.278   0.943   6.820  0.00  0.00    +0.029 C 
ATOM     13  C   LIG    1        8.662   1.118   7.422  0.00  0.00    +0.021 C 
ATOM     14  C   LIG    1        9.526   0.285   6.484  0.00  0.00    +0.107 C 
BRANCH  11  15
ATOM     15  C   LIG    1        6.883  -1.532   7.543  0.00  0.00    +0.011 A 
ATOM     16  C   LIG    1        6.800  -2.909   7.268  0.00  0.00    +0.129 A 
ATOM     17  F   LIG    1        7.105  -3.384   6.055  0.00  0.00    -0.205 F 
ATOM     18  C   LIG    1        6.335  -3.832   8.209  0.00  0.00    +0.041 A 
ATOM     19  C   LIG    1        5.945  -3.399   9.470  0.00  0.00    +0.041 A 
ATOM     20  C   LIG    1        6.037  -2.050   9.772  0.00  0.00    +0.124 A 
ATOM     21  F   LIG    1        5.655  -1.617  10.980  0.00  0.00    -0.205 F 
ATOM     22  C   LIG    1        6.497  -1.125   8.833  0.00  0.00    +0.046 A 
ENDBRANCH  11  15
ENDBRANCH   4  10
BRANCH   1  25
ATOM     23  N   LIG    1        5.088  -2.584   2.965  0.00  0.00    -0.308 N 
ATOM     24  H   LIG    1        5.626  -2.056   3.653  0.00  0.00    +0.149 HD
ATOM     25  C   LIG    1        5.757  -3.093   1.873  0.00  0.00    +0.249 C 
ATOM     26  O   LIG    1        5.173  -3.644   0.951  0.00  0.00    -0.270 OA
BRANCH  23  27
ATOM     27  C   LIG    1        3.631  -2.625   3.043  0.00  0.00    +0.138 C 
BRANCH  27  29
ATOM     28  C   LIG    1        3.516  -2.682   5.591  0.00  0.00    +0.042 C 
ATOM     29  C   LIG    1        3.025  -1.994   4.319  0.00  0.00    +0.076 C 
ATOM     30  C   LIG    1        1.492  -2.069   4.284  0.00  0.00    +0.042 C 
BRANCH  29  31
ATOM     31  O   LIG    1        3.409  -0.613   4.368  0.00  0.00    -0.388 OA
ATOM     32  H   LIG    1        3.246  -0.283   5.267  0.00  0.00    +0.210 HD
ENDBRANCH  29  31
ENDBRANCH  27  29
ENDBRANCH  23  27
ENDBRANCH   1  25
TORSDOF 6
