REMARK  Name = pdb/CHEMBL3967906.pdb
REMARK                            x       y       z     vdW  Elec       q    Type
REMARK                         _______ _______ _______ _____ _____    ______ ____
ROOT
ATOM      1  C   LIG    1        7.174   4.184   4.111  0.00  0.00    +0.149 A 
ATOM      2  N   LIG    1        7.418   5.441   4.511  0.00  0.00    -0.160 NA
ATOM      3  N   LIG    1        6.828   6.235   3.585  0.00  0.00    -0.218 N 
ATOM      4  C   LIG    1        6.027   5.492   2.712  0.00  0.00    +0.129 A 
ATOM      5  C   LIG    1        6.304   4.178   2.999  0.00  0.00    +0.078 A 
ENDROOT
BRANCH   3   6
ATOM      6  C   LIG    1        7.065   7.637   3.619  0.00  0.00    +0.067 A 
ATOM      7  C   LIG    1        7.026   8.415   2.456  0.00  0.00    +0.028 A 
ATOM      8  C   LIG    1        7.291   9.787   2.531  0.00  0.00    +0.002 A 
ATOM      9  C   LIG    1        7.585  10.384   3.758  0.00  0.00    +0.000 A 
ATOM     10  C   LIG    1        7.641   9.610   4.914  0.00  0.00    +0.002 A 
ATOM     11  C   LIG    1        7.401   8.238   4.845  0.00  0.00    +0.028 A 
ENDBRANCH   3   6
BRANCH   4  12
ATOM     12  N   LIG    1        5.082   5.970   1.794  0.00  0.00    -0.266 N 
ATOM     13  H   LIG    1        4.917   6.970   1.768  0.00  0.00    +0.157 HD
ATOM     14  C   LIG    1        4.244   5.100   1.007  0.00  0.00    +0.251 C 
ATOM     15  O   LIG    1        4.350   3.892   1.075  0.00  0.00    -0.270 OA
BRANCH  14  16
ATOM     16  C   LIG    1        3.269   5.699   0.068  0.00  0.00    +0.056 A 
ATOM     17  C   LIG    1        2.654   6.939   0.255  0.00  0.00    +0.056 A 
ATOM     18 CL   LIG    1        2.963   7.959   1.612  0.00  0.00    -0.083 Cl
ATOM     19  C   LIG    1        1.711   7.385  -0.671  0.00  0.00    +0.059 A 
ATOM     20  C   LIG    1        1.377   6.598  -1.775  0.00  0.00    +0.134 A 
ATOM     21  F   LIG    1        0.439   7.076  -2.605  0.00  0.00    -0.205 F 
ATOM     22  C   LIG    1        1.963   5.348  -2.004  0.00  0.00    +0.036 A 
ATOM     23  C   LIG    1        2.915   4.919  -1.056  0.00  0.00    +0.027 A 
BRANCH  22  24
ATOM     24  C   LIG    1        1.595   4.484  -3.146  0.00  0.00    +0.074 A 
ATOM     25  N   LIG    1        1.687   3.149  -2.911  0.00  0.00    -0.255 NA
ATOM     26  C   LIG    1        1.337   2.302  -3.908  0.00  0.00    +0.111 A 
ATOM     27  C   LIG    1        0.909   2.715  -5.156  0.00  0.00    +0.020 A 
ATOM     28  C   LIG    1        0.837   4.079  -5.398  0.00  0.00    +0.004 A 
ATOM     29  C   LIG    1        1.184   4.974  -4.386  0.00  0.00    +0.028 A 
ENDBRANCH  22  24
ENDBRANCH  14  16
ENDBRANCH   4  12
BRANCH   1  31
ATOM     30  N   LIG    1        7.451   1.831   4.360  0.00  0.00    -0.244 NA
ATOM     31  C   LIG    1        7.741   3.011   4.777  0.00  0.00    +0.236 C 
BRANCH  31  32
ATOM     32  O   LIG    1        8.572   3.295   5.800  0.00  0.00    -0.491 OA
ATOM     33  H   LIG    1        8.942   2.508   6.212  0.00  0.00    +0.294 HD
ENDBRANCH  31  32
BRANCH  30  34
ATOM     34  C   LIG    1        8.045   0.656   4.989  0.00  0.00    +0.180 C 
BRANCH  34  39
ATOM     35  C   LIG    1        5.943  -2.401   4.187  0.00  0.00    +0.215 A 
ATOM     36  N   LIG    1        6.567  -2.973   3.137  0.00  0.00    -0.221 NA
ATOM     37  C   LIG    1        7.697  -2.368   2.712  0.00  0.00    +0.115 A 
ATOM     38  C   LIG    1        8.213  -1.205   3.271  0.00  0.00    +0.025 A 
ATOM     39  C   LIG    1        7.555  -0.630   4.364  0.00  0.00    -0.020 A 
ATOM     40  C   LIG    1        6.408  -1.270   4.843  0.00  0.00    +0.072 A 
BRANCH  35  42
ATOM     41  C   LIG    1        4.074  -3.708   3.707  0.00  0.00    +0.279 C 
ATOM     42  O   LIG    1        4.787  -2.964   4.690  0.00  0.00    -0.480 OA
ENDBRANCH  35  42
ENDBRANCH  34  39
ENDBRANCH  30  34
ENDBRANCH   1  31
TORSDOF 9
