REMARK  Name = pdb/CHEMBL3675942.pdb
REMARK                            x       y       z     vdW  Elec       q    Type
REMARK                         _______ _______ _______ _____ _____    ______ ____
ROOT
ATOM      1  C   LIG    1        3.111  -4.773  -0.867  0.00  0.00    +0.126 A 
ATOM      2  N   LIG    1        2.635  -3.701  -1.485  0.00  0.00    -0.212 NA
ATOM      3  C   LIG    1        1.459  -3.821  -2.202  0.00  0.00    +0.170 A 
ATOM      4  C   LIG    1        0.677  -2.920  -2.925  0.00  0.00    +0.102 A 
ATOM      5  C   LIG    1       -0.356  -3.704  -3.478  0.00  0.00    +0.150 A 
ATOM      6  N   LIG    1       -0.292  -4.978  -3.124  0.00  0.00    -0.173 NA
ATOM      7  N   LIG    1        0.798  -5.045  -2.327  0.00  0.00    -0.221 N 
ATOM      8  C   LIG    1        1.259  -6.157  -1.657  0.00  0.00    +0.118 A 
ATOM      9  C   LIG    1        2.358  -6.083  -0.903  0.00  0.00    +0.063 A 
ENDROOT
BRANCH   1  11
ATOM     10  C   LIG    1        4.698  -5.631   0.939  0.00  0.00    +0.108 C 
ATOM     11  N   LIG    1        4.336  -4.723  -0.184  0.00  0.00    -0.308 N 
ATOM     12  C   LIG    1        5.081  -3.465  -0.044  0.00  0.00    +0.107 C 
ATOM     13  C   LIG    1        5.459  -3.412   1.429  0.00  0.00    +0.021 C 
ATOM     14  C   LIG    1        5.756  -4.862   1.749  0.00  0.00    +0.029 C 
BRANCH  10  18
ATOM     15  F   LIG    1        7.309  -8.633  -1.981  0.00  0.00    -0.205 F 
ATOM     16  C   LIG    1        6.556  -8.457  -0.888  0.00  0.00    +0.124 A 
ATOM     17  C   LIG    1        6.033  -7.191  -0.610  0.00  0.00    +0.046 A 
ATOM     18  C   LIG    1        5.253  -6.986   0.538  0.00  0.00    +0.011 A 
ATOM     19  C   LIG    1        5.055  -8.085   1.393  0.00  0.00    +0.129 A 
ATOM     20  F   LIG    1        4.359  -7.923   2.527  0.00  0.00    -0.205 F 
ATOM     21  C   LIG    1        5.571  -9.351   1.109  0.00  0.00    +0.041 A 
ATOM     22  C   LIG    1        6.325  -9.540  -0.045  0.00  0.00    +0.041 A 
ENDBRANCH  10  18
ENDBRANCH   1  11
BRANCH   4  23
ATOM     23  C   LIG    1        0.829  -1.505  -3.129  0.00  0.00    +0.272 C 
ATOM     24  N   LIG    1        1.828  -0.927  -2.388  0.00  0.00    -0.190 N 
ATOM     25  H   LIG    1        2.546  -1.509  -1.956  0.00  0.00    +0.183 HD
ATOM     26  O   LIG    1        0.075  -0.887  -3.891  0.00  0.00    -0.268 OA
BRANCH  24  27
ATOM     27  O   LIG    1        2.205   0.381  -2.768  0.00  0.00    -0.279 OA
BRANCH  27  28
ATOM     28  C   LIG    1        1.295   1.311  -2.168  0.00  0.00    +0.193 C 
BRANCH  28  29
ATOM     29  C   LIG    1        1.734   2.684  -2.554  0.00  0.00    +0.017 C 
ATOM     30  C   LIG    1        2.232   3.602  -1.471  0.00  0.00    +0.006 C 
ATOM     31  C   LIG    1        0.954   3.923  -2.194  0.00  0.00    +0.006 C 
ENDBRANCH  28  29
ENDBRANCH  27  28
ENDBRANCH  24  27
ENDBRANCH   4  23
TORSDOF 6
