REMARK  Name = pdb/CHEMBL1774056.pdb
REMARK                            x       y       z     vdW  Elec       q    Type
REMARK                         _______ _______ _______ _____ _____    ______ ____
ROOT
ATOM      1  C   LIG    1        2.353   0.455   2.648  0.00  0.00    +0.139 A 
ATOM      2  C   LIG    1        1.978   1.693   3.191  0.00  0.00    +0.094 A 
ATOM      3  C   LIG    1        1.715   1.793   4.560  0.00  0.00    +0.064 A 
ATOM      4  C   LIG    1        1.853   0.670   5.355  0.00  0.00    +0.165 A 
ATOM      5  F   LIG    1        1.598   0.766   6.669  0.00  0.00    -0.202 F 
ATOM      6  C   LIG    1        2.237  -0.541   4.783  0.00  0.00    +0.162 A 
ATOM      7  N   LIG    1        2.475  -0.630   3.448  0.00  0.00    -0.213 NA
ENDROOT
BRANCH   1   8
ATOM      8  N   LIG    1        2.707   0.332   1.308  0.00  0.00    -0.320 N 
ATOM      9  H   LIG    1        2.088   0.809   0.658  0.00  0.00    +0.148 HD
BRANCH   8  11
ATOM     10  C   LIG    1        2.043  -1.650  -0.008  0.00  0.00    +0.034 C 
ATOM     11  C   LIG    1        3.170  -0.960   0.773  0.00  0.00    +0.117 C 
BRANCH  11  12
ATOM     12  C   LIG    1        4.375  -0.730  -0.149  0.00  0.00    +0.061 A 
ATOM     13  N   LIG    1        4.194   0.025  -1.270  0.00  0.00    -0.255 NA
ATOM     14  C   LIG    1        5.261   0.176  -2.096  0.00  0.00    +0.149 A 
ATOM     15  C   LIG    1        6.500  -0.393  -1.866  0.00  0.00    +0.141 A 
ATOM     16  F   LIG    1        7.502  -0.234  -2.740  0.00  0.00    -0.204 F 
ATOM     17  C   LIG    1        6.686  -1.145  -0.719  0.00  0.00    +0.042 A 
ATOM     18  C   LIG    1        5.612  -1.314   0.157  0.00  0.00    +0.028 A 
ENDBRANCH  11  12
ENDBRANCH   8  11
ENDBRANCH   1   8
BRANCH   2  19
ATOM     19  C   LIG    1        1.854   2.878   2.406  0.00  0.00    +0.103 C 
ATOM     20  N   LIG    1        1.708   3.881   1.829  0.00  0.00    -0.191 NA
ENDBRANCH   2  19
BRANCH   6  21
ATOM     21  N   LIG    1        2.287  -1.689   5.598  0.00  0.00    -0.281 N 
ATOM     22  H   LIG    1        2.644  -1.501   6.527  0.00  0.00    +0.155 HD
BRANCH  21  23
ATOM     23  C   LIG    1        2.163  -2.989   5.262  0.00  0.00    +0.146 A 
ATOM     24  N   LIG    1        2.307  -3.991   6.134  0.00  0.00    -0.158 NA
ATOM     25  N   LIG    1        2.045  -5.099   5.417  0.00  0.00    -0.280 N 
ATOM     26  H   LIG    1        2.085  -5.997   5.890  0.00  0.00    +0.189 HD
ATOM     27  C   LIG    1        1.756  -4.847   4.106  0.00  0.00    +0.035 A 
ATOM     28  C   LIG    1        1.448  -5.894   3.112  0.00  0.00    +0.065 C 
ATOM     29  C   LIG    1        1.819  -3.480   3.984  0.00  0.00    +0.068 A 
ENDBRANCH  21  23
ENDBRANCH   6  21
TORSDOF 6
