REMARK  Name = pdb/CHEMBL425066.pdb
REMARK                            x       y       z     vdW  Elec       q    Type
REMARK                         _______ _______ _______ _____ _____    ______ ____
ROOT
ATOM      1  C   LIG    1        1.386  -1.771  -0.945  0.00  0.00    +0.121 A 
ATOM      2  C   LIG    1        1.030  -1.299  -2.276  0.00  0.00    +0.098 A 
ATOM      3  C   LIG    1       -0.230  -0.698  -2.198  0.00  0.00    +0.106 A 
ATOM      4  S   LIG    1       -0.868  -0.939  -0.637  0.00  0.00    +0.029 S 
ATOM      5  N   LIG    1        0.452  -1.673  -0.005  0.00  0.00    -0.202 NA
ENDROOT
BRANCH   3   6
ATOM      6  N   LIG    1       -0.974  -0.029  -3.173  0.00  0.00    -0.262 N 
ATOM      7  H   LIG    1       -0.549   0.046  -4.093  0.00  0.00    +0.157 HD
ATOM      8  C   LIG    1       -1.984   0.866  -2.869  0.00  0.00    +0.304 C 
ATOM      9  N   LIG    1       -2.554   1.420  -3.996  0.00  0.00    -0.302 N 
ATOM     10  H   LIG    1       -2.627   0.813  -4.800  0.00  0.00    +0.150 HD
ATOM     11  C   LIG    1       -3.602   2.401  -3.810  0.00  0.00    +0.129 C 
ATOM     12  O   LIG    1       -2.349   1.205  -1.749  0.00  0.00    -0.253 OA
ENDBRANCH   3   6
BRANCH   2  13
ATOM     13  C   LIG    1        1.786  -1.334  -3.522  0.00  0.00    +0.246 C 
ATOM     14  N   LIG    1        2.998  -1.979  -3.489  0.00  0.00    -0.325 N 
ATOM     15  H   LIG    1        3.562  -1.993  -4.327  0.00  0.00    +0.145 HD
ATOM     16  H   LIG    1        3.363  -2.416  -2.652  0.00  0.00    +0.145 HD
ATOM     17  O   LIG    1        1.387  -0.839  -4.562  0.00  0.00    -0.270 OA
ENDBRANCH   2  13
BRANCH   1  18
ATOM     18  S   LIG    1        2.946  -2.477  -0.439  0.00  0.00    -0.096 S 
BRANCH  18  19
ATOM     19  C   LIG    1        3.025  -1.967   1.354  0.00  0.00    +0.082 C 
BRANCH  19  20
ATOM     20  C   LIG    1        4.157  -2.690   2.097  0.00  0.00    -0.034 A 
ATOM     21  C   LIG    1        3.828  -3.619   3.105  0.00  0.00    +0.006 A 
ATOM     22  C   LIG    1        4.816  -4.337   3.792  0.00  0.00    +0.020 A 
ATOM     23  C   LIG    1        6.152  -4.168   3.451  0.00  0.00    +0.041 A 
ATOM     24 CL   LIG    1        7.360  -5.126   4.217  0.00  0.00    -0.084 Cl
ATOM     25  C   LIG    1        6.508  -3.240   2.475  0.00  0.00    +0.020 A 
ATOM     26  C   LIG    1        5.521  -2.479   1.827  0.00  0.00    +0.006 A 
ENDBRANCH  19  20
BRANCH  19  28
ATOM     27  C   LIG    1        3.115   0.144   2.827  0.00  0.00    +0.005 C 
ATOM     28  C   LIG    1        3.085  -0.428   1.419  0.00  0.00    +0.016 C 
ENDBRANCH  19  28
ENDBRANCH  18  19
ENDBRANCH   1  18
TORSDOF 6
