REMARK  Name = pdb/CHEMBL3671133.pdb
REMARK                            x       y       z     vdW  Elec       q    Type
REMARK                         _______ _______ _______ _____ _____    ______ ____
ROOT
ATOM      1  C   LIG    1       10.385   0.949   0.557  0.00  0.00    +0.100 A 
ATOM      2  C   LIG    1       11.735   1.230   0.697  0.00  0.00    +0.170 A 
ATOM      3  N   LIG    1       12.442   2.407   0.702  0.00  0.00    -0.212 NA
ATOM      4  C   LIG    1       13.757   2.344   0.746  0.00  0.00    +0.126 A 
ATOM      5  C   LIG    1       14.489   1.025   0.858  0.00  0.00    +0.063 A 
ATOM      6  C   LIG    1       13.750  -0.089   0.886  0.00  0.00    +0.118 A 
ATOM      7  N   LIG    1       12.372  -0.011   0.801  0.00  0.00    -0.221 N 
ATOM      8  N   LIG    1       11.499  -1.042   0.783  0.00  0.00    -0.173 NA
ATOM      9  C   LIG    1       10.313  -0.459   0.618  0.00  0.00    +0.150 A 
ENDROOT
BRANCH   4  10
ATOM     10  N   LIG    1       14.506   3.511   0.695  0.00  0.00    -0.308 N 
ATOM     11  C   LIG    1       13.898   4.855   0.725  0.00  0.00    +0.108 C 
ATOM     12  C   LIG    1       14.706   5.605  -0.348  0.00  0.00    +0.029 C 
ATOM     13  C   LIG    1       16.103   5.035  -0.196  0.00  0.00    +0.021 C 
ATOM     14  C   LIG    1       15.845   3.564   0.098  0.00  0.00    +0.107 C 
BRANCH  11  15
ATOM     15  C   LIG    1       14.008   5.484   2.107  0.00  0.00    +0.011 A 
ATOM     16  C   LIG    1       13.568   6.802   2.305  0.00  0.00    +0.129 A 
ATOM     17  F   LIG    1       13.054   7.495   1.280  0.00  0.00    -0.205 F 
ATOM     18  C   LIG    1       13.654   7.431   3.547  0.00  0.00    +0.041 A 
ATOM     19  C   LIG    1       14.176   6.738   4.638  0.00  0.00    +0.041 A 
ATOM     20  C   LIG    1       14.596   5.426   4.466  0.00  0.00    +0.124 A 
ATOM     21  F   LIG    1       15.094   4.754   5.514  0.00  0.00    -0.205 F 
ATOM     22  C   LIG    1       14.514   4.797   3.227  0.00  0.00    +0.046 A 
ENDBRANCH  11  15
ENDBRANCH   4  10
BRANCH   1  25
ATOM     23  N   LIG    1        9.551   3.185   0.365  0.00  0.00    -0.304 N 
ATOM     24  H   LIG    1       10.522   3.475   0.455  0.00  0.00    +0.149 HD
ATOM     25  C   LIG    1        9.262   1.844   0.366  0.00  0.00    +0.250 C 
ATOM     26  O   LIG    1        8.121   1.416   0.214  0.00  0.00    -0.270 OA
BRANCH  23  27
ATOM     27  C   LIG    1        8.507   4.153   0.143  0.00  0.00    +0.179 C 
BRANCH  27  32
ATOM     28  C   LIG    1       10.431   8.021  -2.017  0.00  0.00    +0.086 C 
ATOM     29  C   LIG    1        9.942   7.280  -0.838  0.00  0.00    +0.102 A 
ATOM     30  C   LIG    1        9.855   7.588   0.502  0.00  0.00    +0.045 A 
ATOM     31  C   LIG    1        9.295   6.454   1.137  0.00  0.00    +0.046 A 
ATOM     32  C   LIG    1        9.074   5.521   0.145  0.00  0.00    +0.122 A 
ATOM     33  O   LIG    1        9.466   6.024  -1.062  0.00  0.00    -0.463 OA
ENDBRANCH  27  32
ENDBRANCH  23  27
ENDBRANCH   1  25
TORSDOF 5
