REMARK  Name = pdb/CHEMBL3961246.pdb
REMARK                            x       y       z     vdW  Elec       q    Type
REMARK                         _______ _______ _______ _____ _____    ______ ____
ROOT
ATOM      1  C   LIG    1        3.348  -1.430  -4.430  0.00  0.00    +0.149 A 
ATOM      2  N   LIG    1        4.305  -1.747  -5.313  0.00  0.00    -0.160 NA
ATOM      3  N   LIG    1        4.425  -0.664  -6.140  0.00  0.00    -0.218 N 
ATOM      4  C   LIG    1        3.619   0.396  -5.675  0.00  0.00    +0.129 A 
ATOM      5  C   LIG    1        2.885  -0.126  -4.632  0.00  0.00    +0.078 A 
ENDROOT
BRANCH   3   6
ATOM      6  C   LIG    1        5.369  -0.752  -7.218  0.00  0.00    +0.067 A 
ATOM      7  C   LIG    1        5.659   0.309  -8.079  0.00  0.00    +0.028 A 
ATOM      8  C   LIG    1        6.618   0.168  -9.092  0.00  0.00    +0.002 A 
ATOM      9  C   LIG    1        7.298  -1.033  -9.264  0.00  0.00    +0.000 A 
ATOM     10  C   LIG    1        7.014  -2.105  -8.429  0.00  0.00    +0.002 A 
ATOM     11  C   LIG    1        6.059  -1.969  -7.416  0.00  0.00    +0.028 A 
ENDBRANCH   3   6
BRANCH   4  12
ATOM     12  N   LIG    1        3.527   1.725  -6.116  0.00  0.00    -0.266 N 
ATOM     13  H   LIG    1        3.832   1.972  -7.033  0.00  0.00    +0.157 HD
ATOM     14  C   LIG    1        3.041   2.782  -5.259  0.00  0.00    +0.251 C 
ATOM     15  O   LIG    1        2.688   2.551  -4.125  0.00  0.00    -0.270 OA
BRANCH  14  16
ATOM     16  C   LIG    1        3.096   4.180  -5.739  0.00  0.00    +0.056 A 
ATOM     17  C   LIG    1        3.008   4.578  -7.065  0.00  0.00    +0.054 A 
ATOM     18 CL   LIG    1        2.777   3.470  -8.369  0.00  0.00    -0.083 Cl
ATOM     19  C   LIG    1        3.094   5.935  -7.379  0.00  0.00    +0.041 A 
ATOM     20  C   LIG    1        3.279   6.907  -6.376  0.00  0.00    +0.052 A 
ATOM     21 CL   LIG    1        3.470   8.526  -6.953  0.00  0.00    -0.083 Cl
ATOM     22  C   LIG    1        3.354   6.548  -5.018  0.00  0.00    +0.019 A 
ATOM     23  C   LIG    1        3.249   5.162  -4.740  0.00  0.00    +0.026 A 
BRANCH  22  24
ATOM     24  C   LIG    1        3.571   7.464  -3.867  0.00  0.00    +0.072 A 
ATOM     25  N   LIG    1        4.267   6.908  -2.836  0.00  0.00    -0.255 NA
ATOM     26  C   LIG    1        4.486   7.652  -1.726  0.00  0.00    +0.111 A 
ATOM     27  C   LIG    1        4.056   8.955  -1.581  0.00  0.00    +0.020 A 
ATOM     28  C   LIG    1        3.343   9.519  -2.627  0.00  0.00    +0.004 A 
ATOM     29  C   LIG    1        3.080   8.764  -3.772  0.00  0.00    +0.028 A 
ENDBRANCH  22  24
ENDBRANCH  14  16
ENDBRANCH   4  12
BRANCH   1  31
ATOM     30  N   LIG    1        1.839  -2.329  -2.779  0.00  0.00    -0.238 NA
ATOM     31  C   LIG    1        2.977  -2.379  -3.391  0.00  0.00    +0.237 C 
BRANCH  30  33
ATOM     32  C   LIG    1        2.500  -3.305  -0.559  0.00  0.00    +0.041 C 
ATOM     33  C   LIG    1        1.599  -3.394  -1.780  0.00  0.00    +0.109 C 
ATOM     34  C   LIG    1        0.097  -3.529  -1.425  0.00  0.00    +0.192 C 
ATOM     35  O   LIG    1        0.107  -4.944  -1.754  0.00  0.00    -0.375 OA
ATOM     36  C   LIG    1        1.395  -4.792  -2.405  0.00  0.00    +0.192 C 
ENDBRANCH  30  33
BRANCH  31  37
ATOM     37  O   LIG    1        3.935  -3.298  -3.130  0.00  0.00    -0.491 OA
ATOM     38  H   LIG    1        4.713  -3.111  -3.690  0.00  0.00    +0.294 HD
ENDBRANCH  31  37
ENDBRANCH   1  31
TORSDOF 7
