REMARK  Name = pdb/CHEMBL3675927.pdb
REMARK                            x       y       z     vdW  Elec       q    Type
REMARK                         _______ _______ _______ _____ _____    ______ ____
ROOT
ATOM      1  C   LIG    1        7.495   0.892   2.905  0.00  0.00    +0.100 A 
ATOM      2  C   LIG    1        8.265   1.947   2.466  0.00  0.00    +0.170 A 
ATOM      3  N   LIG    1        8.015   3.291   2.338  0.00  0.00    -0.212 NA
ATOM      4  C   LIG    1        8.950   4.052   1.813  0.00  0.00    +0.126 A 
ATOM      5  C   LIG    1       10.308   3.512   1.438  0.00  0.00    +0.063 A 
ATOM      6  C   LIG    1       10.504   2.198   1.589  0.00  0.00    +0.118 A 
ATOM      7  N   LIG    1        9.487   1.394   2.075  0.00  0.00    -0.221 N 
ATOM      8  N   LIG    1        9.516   0.051   2.237  0.00  0.00    -0.173 NA
ATOM      9  C   LIG    1        8.307  -0.246   2.712  0.00  0.00    +0.150 A 
ENDROOT
BRANCH   4  10
ATOM     10  N   LIG    1        8.707   5.401   1.588  0.00  0.00    -0.308 N 
ATOM     11  C   LIG    1        7.598   6.096   2.274  0.00  0.00    +0.105 C 
ATOM     12  C   LIG    1        6.924   6.915   1.167  0.00  0.00    +0.029 C 
ATOM     13  C   LIG    1        8.056   7.228   0.206  0.00  0.00    +0.021 C 
ATOM     14  C   LIG    1        8.891   5.955   0.238  0.00  0.00    +0.107 C 
BRANCH  11  15
ATOM     15  C   LIG    1        8.116   6.966   3.422  0.00  0.00    -0.019 A 
ATOM     16  C   LIG    1        7.308   7.287   4.544  0.00  0.00    -0.017 A 
ATOM     17  C   LIG    1        7.820   8.138   5.549  0.00  0.00    +0.009 A 
ATOM     18  C   LIG    1        9.117   8.642   5.475  0.00  0.00    +0.039 A 
ATOM     19  C   LIG    1        9.909   8.312   4.391  0.00  0.00    +0.124 A 
ATOM     20  F   LIG    1       11.159   8.787   4.313  0.00  0.00    -0.205 F 
ATOM     21  C   LIG    1        9.423   7.497   3.376  0.00  0.00    +0.044 A 
BRANCH  16  22
ATOM     22  C   LIG    1        5.896   6.773   4.720  0.00  0.00    +0.191 C 
BRANCH  22  23
ATOM     23  O   LIG    1        4.958   7.648   4.112  0.00  0.00    -0.390 OA
ATOM     24  H   LIG    1        5.342   8.541   4.104  0.00  0.00    +0.210 HD
ENDBRANCH  22  23
ENDBRANCH  16  22
ENDBRANCH  11  15
ENDBRANCH   4  10
BRANCH   1  27
ATOM     25  N   LIG    1        5.764   2.006   4.117  0.00  0.00    -0.308 N 
ATOM     26  H   LIG    1        6.470   2.716   4.266  0.00  0.00    +0.149 HD
ATOM     27  C   LIG    1        6.134   0.880   3.420  0.00  0.00    +0.249 C 
ATOM     28  O   LIG    1        5.407  -0.090   3.287  0.00  0.00    -0.270 OA
BRANCH  25  29
ATOM     29  C   LIG    1        4.465   2.155   4.756  0.00  0.00    +0.138 C 
BRANCH  29  31
ATOM     30  C   LIG    1        4.670   0.184   6.379  0.00  0.00    +0.042 C 
ATOM     31  C   LIG    1        4.395   1.683   6.233  0.00  0.00    +0.076 C 
ATOM     32  C   LIG    1        3.005   1.978   6.823  0.00  0.00    +0.042 C 
BRANCH  31  33
ATOM     33  O   LIG    1        5.371   2.420   6.988  0.00  0.00    -0.388 OA
ATOM     34  H   LIG    1        4.957   2.730   7.812  0.00  0.00    +0.210 HD
ENDBRANCH  31  33
ENDBRANCH  29  31
ENDBRANCH  25  29
ENDBRANCH   1  27
TORSDOF 8
