REMARK  Name = pdb/CHEMBL3889913.pdb
REMARK                            x       y       z     vdW  Elec       q    Type
REMARK                         _______ _______ _______ _____ _____    ______ ____
ROOT
ATOM      1  C   LIG    1        4.681   6.736  -3.323  0.00  0.00    +0.251 C 
ATOM      2  N   LIG    1        5.241   7.966  -3.809  0.00  0.00    -0.266 N 
ATOM      3  H   LIG    1        4.698   8.819  -3.704  0.00  0.00    +0.157 HD
ATOM      4  O   LIG    1        5.249   5.663  -3.504  0.00  0.00    -0.270 OA
ENDROOT
BRANCH   1   7
ATOM      5  C   LIG    1        2.144   5.759  -0.709  0.00  0.00    +0.004 A 
ATOM      6  C   LIG    1        3.276   5.805  -1.538  0.00  0.00    +0.024 A 
ATOM      7  C   LIG    1        3.434   6.792  -2.535  0.00  0.00    +0.056 A 
ATOM      8  C   LIG    1        2.430   7.742  -2.734  0.00  0.00    +0.053 A 
ATOM      9 CL   LIG    1        2.512   8.970  -3.943  0.00  0.00    -0.083 Cl
ATOM     10  C   LIG    1        1.285   7.701  -1.941  0.00  0.00    +0.021 A 
ATOM     11  C   LIG    1        1.147   6.723  -0.949  0.00  0.00    +0.011 A 
BRANCH   5  14
ATOM     12  C   LIG    1        0.465   3.551   1.659  0.00  0.00    +0.157 A 
ATOM     13  N   LIG    1        0.702   4.436   0.669  0.00  0.00    -0.225 NA
ATOM     14  C   LIG    1        1.989   4.761   0.376  0.00  0.00    +0.108 A 
ATOM     15  C   LIG    1        3.054   4.203   1.083  0.00  0.00    +0.149 A 
ATOM     16  F   LIG    1        4.328   4.508   0.796  0.00  0.00    -0.203 F 
ATOM     17  C   LIG    1        2.800   3.333   2.134  0.00  0.00    +0.044 A 
ATOM     18  C   LIG    1        1.482   3.013   2.436  0.00  0.00    +0.051 A 
BRANCH  12  21
ATOM     19  C   LIG    1       -1.663   3.413  -0.450  0.00  0.00    +0.109 C 
ATOM     20  C   LIG    1       -1.761   3.128   1.023  0.00  0.00    +0.186 C 
ATOM     21  N   LIG    1       -0.851   3.189   1.934  0.00  0.00    -0.198 NA
BRANCH  20  22
ATOM     22  O   LIG    1       -2.984   2.701   1.407  0.00  0.00    -0.496 OA
ATOM     23  H   LIG    1       -3.617   2.629   0.677  0.00  0.00    +0.293 HD
ENDBRANCH  20  22
ENDBRANCH  12  21
ENDBRANCH   5  14
ENDBRANCH   1   7
BRANCH   2  24
ATOM     24  C   LIG    1        6.443   8.051  -4.517  0.00  0.00    +0.129 A 
ATOM     25  N   LIG    1        7.035   9.189  -5.069  0.00  0.00    -0.218 N 
ATOM     26  N   LIG    1        8.080   8.863  -5.883  0.00  0.00    -0.165 NA
ATOM     27  C   LIG    1        8.278   7.550  -5.676  0.00  0.00    +0.117 A 
ATOM     28  C   LIG    1        7.267   7.005  -4.861  0.00  0.00    +0.073 A 
BRANCH  25  29
ATOM     29  C   LIG    1        6.697  10.554  -4.859  0.00  0.00    +0.067 A 
ATOM     30  C   LIG    1        6.172  10.989  -3.634  0.00  0.00    +0.028 A 
ATOM     31  C   LIG    1        5.895  12.346  -3.438  0.00  0.00    +0.002 A 
ATOM     32  C   LIG    1        6.123  13.266  -4.461  0.00  0.00    +0.000 A 
ATOM     33  C   LIG    1        6.650  12.838  -5.677  0.00  0.00    +0.002 A 
ATOM     34  C   LIG    1        6.956  11.489  -5.873  0.00  0.00    +0.028 A 
ENDBRANCH  25  29
BRANCH  27  35
ATOM     35  C   LIG    1        9.414   6.852  -6.268  0.00  0.00    +0.225 C 
BRANCH  35  36
ATOM     36  O   LIG    1       10.254   7.616  -6.992  0.00  0.00    -0.365 OA
ATOM     37  H   LIG    1        9.939   8.538  -6.988  0.00  0.00    +0.212 HD
ENDBRANCH  35  36
BRANCH  35  38
ATOM     38  N   LIG    1        9.652   5.599  -6.123  0.00  0.00    -0.215 NA
ATOM     39  H   LIG    1        8.949   5.133  -5.548  0.00  0.00    +0.144 HD
ENDBRANCH  35  38
ENDBRANCH  27  35
ENDBRANCH   2  24
TORSDOF 9
