REMARK  Name = pdb/CHEMBL3676020.pdb
REMARK                            x       y       z     vdW  Elec       q    Type
REMARK                         _______ _______ _______ _____ _____    ______ ____
ROOT
ATOM      1  C   LIG    1        2.185  -0.179   2.220  0.00  0.00    +0.126 A 
ATOM      2  N   LIG    1        3.372   0.181   1.788  0.00  0.00    -0.212 NA
ATOM      3  C   LIG    1        3.511   1.478   1.334  0.00  0.00    +0.170 A 
ATOM      4  C   LIG    1        4.546   2.158   0.739  0.00  0.00    +0.100 A 
ATOM      5  C   LIG    1        4.021   3.436   0.442  0.00  0.00    +0.150 A 
ATOM      6  N   LIG    1        2.757   3.585   0.843  0.00  0.00    -0.173 NA
ATOM      7  N   LIG    1        2.441   2.388   1.381  0.00  0.00    -0.221 N 
ATOM      8  C   LIG    1        1.214   2.021   1.899  0.00  0.00    +0.118 A 
ATOM      9  C   LIG    1        1.020   0.772   2.327  0.00  0.00    +0.063 A 
ENDROOT
BRANCH   1  11
ATOM     10  C   LIG    1        2.614  -2.175   3.662  0.00  0.00    +0.110 C 
ATOM     11  N   LIG    1        1.912  -1.495   2.553  0.00  0.00    -0.308 N 
ATOM     12  C   LIG    1        1.689  -2.439   1.450  0.00  0.00    +0.107 C 
ATOM     13  C   LIG    1        2.217  -3.784   1.926  0.00  0.00    +0.021 C 
ATOM     14  C   LIG    1        2.259  -3.654   3.439  0.00  0.00    +0.029 C 
BRANCH  10  16
ATOM     15  C   LIG    1        2.966  -1.715   6.147  0.00  0.00    +0.220 A 
ATOM     16  C   LIG    1        2.148  -1.673   5.014  0.00  0.00    +0.037 A 
ATOM     17  C   LIG    1        0.854  -1.154   5.197  0.00  0.00    +0.050 A 
ATOM     18  C   LIG    1        0.463  -0.655   6.428  0.00  0.00    +0.142 A 
ATOM     19  F   LIG    1       -0.756  -0.128   6.589  0.00  0.00    -0.204 F 
ATOM     20  C   LIG    1        1.355  -0.713   7.475  0.00  0.00    +0.153 A 
ATOM     21  N   LIG    1        2.594  -1.238   7.362  0.00  0.00    -0.218 NA
BRANCH  15  23
ATOM     22  C   LIG    1        4.982  -2.328   7.224  0.00  0.00    +0.279 C 
ATOM     23  O   LIG    1        4.200  -2.317   6.028  0.00  0.00    -0.479 OA
ENDBRANCH  15  23
ENDBRANCH  10  16
ENDBRANCH   1  11
BRANCH   4  24
ATOM     24  C   LIG    1        5.900   1.735   0.397  0.00  0.00    +0.249 C 
ATOM     25  N   LIG    1        6.253   0.458   0.755  0.00  0.00    -0.309 N 
ATOM     26  H   LIG    1        5.557  -0.098   1.238  0.00  0.00    +0.149 HD
ATOM     27  O   LIG    1        6.671   2.493  -0.163  0.00  0.00    -0.270 OA
BRANCH  25  28
ATOM     28  C   LIG    1        7.567  -0.087   0.445  0.00  0.00    +0.138 C 
BRANCH  28  29
ATOM     29  C   LIG    1        7.487  -1.341  -0.442  0.00  0.00    +0.157 C 
BRANCH  29  30
ATOM     30  O   LIG    1        6.861  -1.059  -1.707  0.00  0.00    -0.388 OA
ATOM     31  H   LIG    1        7.341  -0.315  -2.117  0.00  0.00    +0.210 HD
ENDBRANCH  29  30
BRANCH  29  32
ATOM     32  C   LIG    1        8.877  -1.915  -0.746  0.00  0.00    +0.188 C 
BRANCH  32  33
ATOM     33  O   LIG    1        8.739  -3.079  -1.563  0.00  0.00    -0.392 OA
ATOM     34  H   LIG    1        8.010  -2.883  -2.186  0.00  0.00    +0.210 HD
ENDBRANCH  32  33
ENDBRANCH  29  32
ENDBRANCH  28  29
ENDBRANCH  25  28
ENDBRANCH   4  24
TORSDOF 9
