REMARK  Name = pdb/CHEMBL3582439.pdb
REMARK                            x       y       z     vdW  Elec       q    Type
REMARK                         _______ _______ _______ _____ _____    ______ ____
ROOT
ATOM      1  C   LIG    1        3.185  -3.915  -1.658  0.00  0.00    +0.143 A 
ATOM      2  N   LIG    1        2.901  -2.918  -2.456  0.00  0.00    -0.149 NA
ATOM      3  N   LIG    1        1.951  -3.170  -3.408  0.00  0.00    -0.209 N 
ATOM      4  C   LIG    1        1.436  -2.262  -4.314  0.00  0.00    +0.111 A 
ATOM      5  C   LIG    1        0.571  -3.015  -5.092  0.00  0.00    +0.143 A 
ATOM      6  N   LIG    1        0.495  -4.316  -4.668  0.00  0.00    -0.234 NA
ATOM      7  C   LIG    1        1.315  -4.377  -3.644  0.00  0.00    +0.155 A 
ATOM      8  C   LIG    1        1.607  -5.436  -2.765  0.00  0.00    +0.051 A 
ATOM      9  C   LIG    1        2.487  -5.244  -1.781  0.00  0.00    +0.049 A 
ENDROOT
BRANCH   4  10
ATOM     10  C   LIG    1        1.748  -0.843  -4.384  0.00  0.00    +0.091 A 
ATOM     11  N   LIG    1        1.564  -0.297  -5.611  0.00  0.00    -0.253 NA
ATOM     12  C   LIG    1        1.792   1.029  -5.737  0.00  0.00    +0.111 A 
ATOM     13  C   LIG    1        2.181   1.851  -4.694  0.00  0.00    +0.020 A 
ATOM     14  C   LIG    1        2.354   1.278  -3.442  0.00  0.00    +0.004 A 
ATOM     15  C   LIG    1        2.131  -0.087  -3.283  0.00  0.00    +0.030 A 
ENDBRANCH   4  10
BRANCH   1  17
ATOM     16  C   LIG    1        4.865  -2.454  -0.476  0.00  0.00    +0.105 C 
ATOM     17  N   LIG    1        4.138  -3.727  -0.665  0.00  0.00    -0.307 N 
ATOM     18  C   LIG    1        4.847  -4.817   0.001  0.00  0.00    +0.107 C 
ATOM     19  C   LIG    1        6.240  -4.266   0.265  0.00  0.00    +0.021 C 
ATOM     20  C   LIG    1        5.970  -2.800   0.537  0.00  0.00    +0.029 C 
BRANCH  16  24
ATOM     21  F   LIG    1        3.918   2.323  -0.054  0.00  0.00    -0.205 F 
ATOM     22  C   LIG    1        3.577   1.062   0.243  0.00  0.00    +0.124 A 
ATOM     23  C   LIG    1        4.362   0.012  -0.228  0.00  0.00    +0.043 A 
ATOM     24  C   LIG    1        4.005  -1.318   0.050  0.00  0.00    -0.024 A 
ATOM     25  C   LIG    1        2.862  -1.548   0.837  0.00  0.00    +0.005 A 
ATOM     26  C   LIG    1        2.078  -0.486   1.299  0.00  0.00    +0.003 A 
ATOM     27  C   LIG    1        2.436   0.825   0.997  0.00  0.00    +0.038 A 
ENDBRANCH  16  24
ENDBRANCH   1  17
TORSDOF 3
