REMARK  Name = pdb/CHEMBL2151323.pdb
REMARK                            x       y       z     vdW  Elec       q    Type
REMARK                         _______ _______ _______ _____ _____    ______ ____
ROOT
ATOM      1  N   LIG    1        7.610   3.657   0.167  0.00  0.00    -0.266 N 
ATOM      2  C   LIG    1        7.354   5.015   0.119  0.00  0.00    +0.171 A 
ATOM      3  N   LIG    1        6.178   5.641  -0.072  0.00  0.00    -0.194 NA
ATOM      4  C   LIG    1        6.283   6.978  -0.073  0.00  0.00    +0.218 A 
ATOM      5  N   LIG    1        7.425   7.677   0.080  0.00  0.00    -0.221 NA
ATOM      6  C   LIG    1        8.588   7.009   0.274  0.00  0.00    +0.146 A 
ATOM      7  C   LIG    1        8.584   5.622   0.312  0.00  0.00    +0.126 A 
ATOM      8  N   LIG    1        9.576   4.700   0.513  0.00  0.00    -0.232 NA
ATOM      9  C   LIG    1        8.959   3.537   0.432  0.00  0.00    +0.207 A 
ENDROOT
BRANCH   1  14
ATOM     10  C   LIG    1        4.874   1.381  -0.365  0.00  0.00    +0.213 A 
ATOM     11  N   LIG    1        5.994   0.614  -0.171  0.00  0.00    -0.245 N 
ATOM     12  H   LIG    1        6.047  -0.398  -0.182  0.00  0.00    +0.192 HD
ATOM     13  N   LIG    1        7.117   1.327   0.057  0.00  0.00    -0.153 NA
ATOM     14  C   LIG    1        6.688   2.594  -0.015  0.00  0.00    +0.165 A 
ATOM     15  C   LIG    1        5.310   2.685  -0.284  0.00  0.00    +0.115 A 
BRANCH  10  16
ATOM     16  O   LIG    1        3.699   0.784  -0.578  0.00  0.00    -0.474 OA
BRANCH  16  18
ATOM     17  C   LIG    1        1.944   1.306  -2.116  0.00  0.00    +0.051 C 
ATOM     18  C   LIG    1        2.559   1.633  -0.762  0.00  0.00    +0.169 C 
ATOM     19  C   LIG    1        1.574   1.371   0.371  0.00  0.00    +0.051 C 
ENDBRANCH  16  18
ENDBRANCH  10  16
ENDBRANCH   1  14
BRANCH   4  20
ATOM     20  N   LIG    1        5.148   7.750  -0.220  0.00  0.00    -0.304 N 
ATOM     21  H   LIG    1        5.424   8.714  -0.077  0.00  0.00    +0.150 HD
BRANCH  20  22
ATOM     22  C   LIG    1        3.993   7.305   0.567  0.00  0.00    +0.138 C 
ATOM     23  C   LIG    1        3.533   8.447   1.476  0.00  0.00    +0.036 C 
BRANCH  22  24
ATOM     24  C   LIG    1        2.834   6.839  -0.320  0.00  0.00    +0.149 A 
ATOM     25  N   LIG    1        2.638   7.442  -1.519  0.00  0.00    -0.236 NA
ATOM     26  C   LIG    1        1.619   6.981  -2.275  0.00  0.00    +0.152 A 
ATOM     27  C   LIG    1        0.772   5.982  -1.866  0.00  0.00    +0.159 A 
ATOM     28  F   LIG    1       -0.231   5.543  -2.634  0.00  0.00    -0.202 F 
ATOM     29  C   LIG    1        1.014   5.459  -0.621  0.00  0.00    +0.152 A 
ATOM     30  N   LIG    1        2.033   5.860   0.171  0.00  0.00    -0.236 NA
ENDBRANCH  22  24
ENDBRANCH  20  22
ENDBRANCH   4  20
TORSDOF 6
