REMARK  Name = pdb/CHEMBL3661485.pdb
REMARK                            x       y       z     vdW  Elec       q    Type
REMARK                         _______ _______ _______ _____ _____    ______ ____
ROOT
ATOM      1  C   LIG    1        2.094   5.297  -0.064  0.00  0.00    +0.042 A 
ATOM      2  C   LIG    1        1.944   6.659  -0.348  0.00  0.00    +0.038 A 
ATOM      3  C   LIG    1        1.426   7.067  -1.583  0.00  0.00    +0.052 A 
ATOM      4  C   LIG    1        1.098   6.068  -2.497  0.00  0.00    +0.134 A 
ATOM      5  N   LIG    1        1.248   4.740  -2.259  0.00  0.00    -0.261 NA
ATOM      6  C   LIG    1        1.753   4.385  -1.055  0.00  0.00    +0.122 A 
ENDROOT
BRANCH   3   7
ATOM      7  N   LIG    1        1.273   8.454  -1.807  0.00  0.00    -0.283 N 
ATOM      8  H   LIG    1        1.591   9.076  -1.069  0.00  0.00    +0.155 HD
ATOM      9  C   LIG    1        0.788   9.052  -2.961  0.00  0.00    +0.239 C 
ATOM     10  O   LIG    1        0.424   8.457  -3.972  0.00  0.00    -0.273 OA
BRANCH   9  11
ATOM     11  C   LIG    1        0.693  10.558  -2.879  0.00  0.00    +0.239 C 
BRANCH  11  12
ATOM     12  N   LIG    1        1.916  11.183  -3.329  0.00  0.00    -0.262 N 
ATOM     13  N   LIG    1        2.892  11.467  -2.440  0.00  0.00    -0.176 NA
ATOM     14  C   LIG    1        3.844  12.027  -3.196  0.00  0.00    +0.066 A 
ATOM     15  C   LIG    1        3.468  12.128  -4.550  0.00  0.00    +0.044 A 
ATOM     16  C   LIG    1        2.208  11.581  -4.602  0.00  0.00    +0.109 A 
BRANCH  14  17
ATOM     17  C   LIG    1        5.199  12.491  -2.683  0.00  0.00    +0.040 C 
ATOM     18  C   LIG    1        5.883  11.671  -1.608  0.00  0.00    +0.010 C 
ATOM     19  C   LIG    1        5.322  13.008  -1.265  0.00  0.00    +0.010 C 
ENDBRANCH  14  17
ENDBRANCH  11  12
ENDBRANCH   9  11
ENDBRANCH   3   7
BRANCH   1  20
ATOM     20  C   LIG    1        2.683   4.789   1.197  0.00  0.00    +0.197 C 
ATOM     21  O   LIG    1        3.304   3.724   1.159  0.00  0.00    -0.287 OA
BRANCH  20  29
ATOM     22  N   LIG    1        1.812   6.864   4.100  0.00  0.00    -0.329 N 
ATOM     23  C   LIG    1        3.030   6.381   4.512  0.00  0.00    +0.145 A 
ATOM     24  N   LIG    1        3.641   6.666   5.675  0.00  0.00    -0.218 NA
ATOM     25  C   LIG    1        4.817   6.023   5.795  0.00  0.00    +0.223 A 
ATOM     26  N   LIG    1        5.393   5.178   4.920  0.00  0.00    -0.243 NA
ATOM     27  C   LIG    1        4.735   4.922   3.767  0.00  0.00    +0.124 A 
ATOM     28  C   LIG    1        3.509   5.538   3.517  0.00  0.00    +0.048 A 
ATOM     29  C   LIG    1        2.566   5.545   2.441  0.00  0.00    +0.051 A 
ATOM     30  C   LIG    1        1.522   6.363   2.847  0.00  0.00    +0.100 A 
BRANCH  22  32
ATOM     31  C   LIG    1        0.679   9.066   4.145  0.00  0.00    +0.030 C 
ATOM     32  C   LIG    1        0.950   7.752   4.881  0.00  0.00    +0.083 C 
ATOM     33  C   LIG    1       -0.359   7.064   5.273  0.00  0.00    +0.030 C 
ENDBRANCH  22  32
ENDBRANCH  20  29
ENDBRANCH   1  20
TORSDOF 7
