REMARK  Name = pdb/CHEMBL3962599.pdb
REMARK                            x       y       z     vdW  Elec       q    Type
REMARK                         _______ _______ _______ _____ _____    ______ ____
ROOT
ATOM      1  C   LIG    1        5.250   2.255  -1.737  0.00  0.00    +0.149 A 
ATOM      2  N   LIG    1        5.727   3.132  -0.838  0.00  0.00    -0.160 NA
ATOM      3  N   LIG    1        4.871   4.198  -0.906  0.00  0.00    -0.218 N 
ATOM      4  C   LIG    1        3.973   4.062  -1.977  0.00  0.00    +0.129 A 
ATOM      5  C   LIG    1        4.198   2.805  -2.489  0.00  0.00    +0.078 A 
ENDROOT
BRANCH   3   6
ATOM      6  C   LIG    1        5.017   5.285   0.011  0.00  0.00    +0.067 A 
ATOM      7  C   LIG    1        6.232   5.481   0.690  0.00  0.00    +0.028 A 
ATOM      8  C   LIG    1        6.384   6.567   1.562  0.00  0.00    +0.002 A 
ATOM      9  C   LIG    1        5.327   7.449   1.778  0.00  0.00    +0.000 A 
ATOM     10  C   LIG    1        4.111   7.240   1.137  0.00  0.00    +0.002 A 
ATOM     11  C   LIG    1        3.953   6.155   0.274  0.00  0.00    +0.028 A 
ENDBRANCH   3   6
BRANCH   4  12
ATOM     12  N   LIG    1        3.032   4.994  -2.494  0.00  0.00    -0.266 N 
ATOM     13  H   LIG    1        2.879   5.833  -1.971  0.00  0.00    +0.157 HD
ATOM     14  C   LIG    1        2.396   4.862  -3.771  0.00  0.00    +0.251 C 
ATOM     15  O   LIG    1        2.682   3.961  -4.551  0.00  0.00    -0.270 OA
BRANCH  14  16
ATOM     16  C   LIG    1        1.367   5.857  -4.120  0.00  0.00    +0.056 A 
ATOM     17  C   LIG    1        1.403   7.181  -3.682  0.00  0.00    +0.054 A 
ATOM     18 CL   LIG    1        2.703   7.845  -2.761  0.00  0.00    -0.083 Cl
ATOM     19  C   LIG    1        0.366   8.044  -4.020  0.00  0.00    +0.041 A 
ATOM     20  C   LIG    1       -0.697   7.630  -4.844  0.00  0.00    +0.052 A 
ATOM     21 CL   LIG    1       -1.936   8.817  -5.050  0.00  0.00    -0.083 Cl
ATOM     22  C   LIG    1       -0.741   6.327  -5.381  0.00  0.00    +0.022 A 
ATOM     23  C   LIG    1        0.306   5.456  -4.965  0.00  0.00    +0.026 A 
BRANCH  22  24
ATOM     24  C   LIG    1       -1.778   5.791  -6.318  0.00  0.00    +0.107 A 
ATOM     25  C   LIG    1       -2.429   6.509  -7.328  0.00  0.00    +0.149 A 
ATOM     26  F   LIG    1       -2.175   7.802  -7.567  0.00  0.00    -0.203 F 
ATOM     27  C   LIG    1       -3.325   5.869  -8.184  0.00  0.00    +0.042 A 
ATOM     28  C   LIG    1       -3.542   4.506  -8.052  0.00  0.00    +0.023 A 
ATOM     29  C   LIG    1       -2.857   3.844  -7.050  0.00  0.00    +0.111 A 
ATOM     30  N   LIG    1       -1.999   4.448  -6.188  0.00  0.00    -0.252 NA
ENDBRANCH  22  24
ENDBRANCH  14  16
ENDBRANCH   4  12
BRANCH   1  31
ATOM     31  C   LIG    1        5.832   0.930  -1.913  0.00  0.00    +0.236 C 
ATOM     32  N   LIG    1        5.149  -0.001  -2.471  0.00  0.00    -0.243 NA
BRANCH  31  33
ATOM     33  O   LIG    1        7.100   0.803  -1.472  0.00  0.00    -0.491 OA
ATOM     34  H   LIG    1        7.395   1.648  -1.088  0.00  0.00    +0.294 HD
ENDBRANCH  31  33
BRANCH  32  35
ATOM     35  C   LIG    1        5.785  -1.322  -2.562  0.00  0.00    +0.202 C 
BRANCH  35  36
ATOM     36  C   LIG    1        4.983  -2.346  -1.813  0.00  0.00    +0.084 A 
ATOM     37  N   LIG    1        5.586  -3.410  -1.258  0.00  0.00    -0.177 NA
ATOM     38  N   LIG    1        4.585  -4.091  -0.680  0.00  0.00    -0.284 N 
ATOM     39  H   LIG    1        4.811  -4.948  -0.185  0.00  0.00    +0.188 HD
ATOM     40  C   LIG    1        3.363  -3.512  -0.847  0.00  0.00    +0.105 A 
ATOM     41  C   LIG    1        3.584  -2.377  -1.588  0.00  0.00    +0.046 A 
ENDBRANCH  35  36
ENDBRANCH  32  35
ENDBRANCH   1  31
TORSDOF 8
