REMARK  Name = pdb/CHEMBL3930367.pdb
REMARK                            x       y       z     vdW  Elec       q    Type
REMARK                         _______ _______ _______ _____ _____    ______ ____
ROOT
ATOM      1  C   LIG    1        4.650   0.540   1.709  0.00  0.00    +0.149 A 
ATOM      2  N   LIG    1        4.621   0.601   3.048  0.00  0.00    -0.160 NA
ATOM      3  N   LIG    1        4.766   1.919   3.347  0.00  0.00    -0.218 N 
ATOM      4  C   LIG    1        4.673   2.708   2.193  0.00  0.00    +0.129 A 
ATOM      5  C   LIG    1        4.653   1.830   1.144  0.00  0.00    +0.078 A 
ENDROOT
BRANCH   3   6
ATOM      6  C   LIG    1        4.951   2.310   4.705  0.00  0.00    +0.067 A 
ATOM      7  C   LIG    1        5.646   3.476   5.051  0.00  0.00    +0.028 A 
ATOM      8  C   LIG    1        5.819   3.816   6.399  0.00  0.00    +0.002 A 
ATOM      9  C   LIG    1        5.309   2.997   7.405  0.00  0.00    +0.000 A 
ATOM     10  C   LIG    1        4.636   1.825   7.068  0.00  0.00    +0.002 A 
ATOM     11  C   LIG    1        4.469   1.474   5.726  0.00  0.00    +0.028 A 
ENDBRANCH   3   6
BRANCH   4  12
ATOM     12  N   LIG    1        4.535   4.095   2.104  0.00  0.00    -0.266 N 
ATOM     13  H   LIG    1        4.485   4.598   2.979  0.00  0.00    +0.157 HD
ATOM     14  C   LIG    1        4.363   4.818   0.864  0.00  0.00    +0.251 C 
ATOM     15  O   LIG    1        4.341   4.241  -0.206  0.00  0.00    -0.270 OA
BRANCH  14  16
ATOM     16  C   LIG    1        4.190   6.305   0.940  0.00  0.00    +0.056 A 
ATOM     17  C   LIG    1        4.166   7.036   2.112  0.00  0.00    +0.054 A 
ATOM     18 CL   LIG    1        4.412   6.402   3.696  0.00  0.00    -0.083 Cl
ATOM     19  C   LIG    1        3.895   8.398   2.067  0.00  0.00    +0.041 A 
ATOM     20  C   LIG    1        3.655   9.061   0.853  0.00  0.00    +0.052 A 
ATOM     21 CL   LIG    1        3.109  10.690   1.039  0.00  0.00    -0.083 Cl
ATOM     22  C   LIG    1        3.755   8.390  -0.380  0.00  0.00    +0.022 A 
ATOM     23  C   LIG    1        4.006   6.989  -0.295  0.00  0.00    +0.026 A 
BRANCH  22  24
ATOM     24  C   LIG    1        3.576   9.004  -1.732  0.00  0.00    +0.107 A 
ATOM     25  C   LIG    1        3.946  10.302  -2.099  0.00  0.00    +0.149 A 
ATOM     26  F   LIG    1        4.588  11.124  -1.259  0.00  0.00    -0.203 F 
ATOM     27  C   LIG    1        3.714  10.760  -3.397  0.00  0.00    +0.042 A 
ATOM     28  C   LIG    1        3.172   9.898  -4.339  0.00  0.00    +0.023 A 
ATOM     29  C   LIG    1        2.880   8.609  -3.934  0.00  0.00    +0.111 A 
ATOM     30  N   LIG    1        3.055   8.154  -2.667  0.00  0.00    -0.252 NA
ENDBRANCH  22  24
ENDBRANCH  14  16
ENDBRANCH   4  12
BRANCH   1  31
ATOM     31  C   LIG    1        4.617  -0.699   0.946  0.00  0.00    +0.236 C 
ATOM     32  N   LIG    1        5.061  -0.704  -0.260  0.00  0.00    -0.246 NA
BRANCH  31  33
ATOM     33  O   LIG    1        4.033  -1.746   1.558  0.00  0.00    -0.491 OA
ATOM     34  H   LIG    1        3.693  -2.376   0.899  0.00  0.00    +0.294 HD
ENDBRANCH  31  33
BRANCH  32  35
ATOM     35  C   LIG    1        5.143  -1.964  -1.002  0.00  0.00    +0.184 C 
BRANCH  35  36
ATOM     36  C   LIG    1        3.855  -2.201  -1.783  0.00  0.00    +0.132 C 
ATOM     37  C   LIG    1        3.935  -3.363  -2.793  0.00  0.00    +0.198 C 
ATOM     38  O   LIG    1        3.579  -2.496  -3.895  0.00  0.00    -0.374 OA
ATOM     39  C   LIG    1        3.683  -1.330  -3.048  0.00  0.00    +0.198 C 
BRANCH  36  40
ATOM     40  O   LIG    1        2.736  -2.257  -0.849  0.00  0.00    -0.382 OA
ATOM     41  H   LIG    1        2.299  -1.389  -0.943  0.00  0.00    +0.210 HD
ENDBRANCH  36  40
ENDBRANCH  35  36
ENDBRANCH  32  35
ENDBRANCH   1  31
TORSDOF 9
