REMARK  Name = pdb/CHEMBL1230609.pdb
REMARK                            x       y       z     vdW  Elec       q    Type
REMARK                         _______ _______ _______ _____ _____    ______ ____
ROOT
ATOM      1  C   LIG    1        1.534   3.406  -5.443  0.00  0.00    +0.164 A 
ATOM      2  C   LIG    1        0.227   3.104  -5.849  0.00  0.00    +0.167 A 
ATOM      3  F   LIG    1       -0.492   2.195  -5.170  0.00  0.00    -0.202 F 
ATOM      4  C   LIG    1       -0.361   3.715  -6.963  0.00  0.00    +0.065 A 
ATOM      5  C   LIG    1        0.377   4.619  -7.729  0.00  0.00    +0.036 A 
ATOM      6  C   LIG    1        1.674   4.940  -7.351  0.00  0.00    +0.027 A 
ATOM      7  C   LIG    1        2.243   4.353  -6.206  0.00  0.00    +0.051 A 
ENDROOT
BRANCH   5   8
ATOM      8  N   LIG    1       -0.152   5.079  -8.948  0.00  0.00    -0.285 N 
ATOM      9  H   LIG    1        0.408   4.902  -9.769  0.00  0.00    +0.155 HD
ATOM     10  C   LIG    1       -0.792   6.309  -9.022  0.00  0.00    +0.232 C 
ATOM     11  O   LIG    1       -1.006   7.052  -8.058  0.00  0.00    -0.274 OA
BRANCH  10  12
ATOM     12  C   LIG    1       -1.196   6.763 -10.376  0.00  0.00    +0.123 C 
ATOM     13  C   LIG    1       -2.673   7.086 -10.614  0.00  0.00    +0.027 C 
ATOM     14  C   LIG    1       -2.108   5.817 -11.168  0.00  0.00    +0.027 C 
BRANCH  12  15
ATOM     15  C   LIG    1       -0.209   7.563 -11.163  0.00  0.00    +0.232 C 
ATOM     16  N   LIG    1        0.127   8.811 -10.661  0.00  0.00    -0.285 N 
ATOM     17  H   LIG    1       -0.170   9.046  -9.717  0.00  0.00    +0.155 HD
ATOM     18  O   LIG    1        0.244   7.050 -12.187  0.00  0.00    -0.274 OA
BRANCH  16  19
ATOM     19  C   LIG    1        0.920   9.750 -11.363  0.00  0.00    +0.034 A 
ATOM     20  C   LIG    1        1.566  10.777 -10.664  0.00  0.00    +0.026 A 
ATOM     21  C   LIG    1        2.338  11.721 -11.359  0.00  0.00    +0.040 A 
ATOM     22  C   LIG    1        2.433  11.654 -12.747  0.00  0.00    +0.124 A 
ATOM     23  F   LIG    1        3.140  12.575 -13.412  0.00  0.00    -0.205 F 
ATOM     24  C   LIG    1        1.792  10.650 -13.452  0.00  0.00    +0.040 A 
ATOM     25  C   LIG    1        1.044   9.702 -12.758  0.00  0.00    +0.026 A 
ENDBRANCH  16  19
ENDBRANCH  12  15
ENDBRANCH  10  12
ENDBRANCH   5   8
BRANCH   1  26
ATOM     26  O   LIG    1        2.059   2.714  -4.347  0.00  0.00    -0.452 OA
BRANCH  26  34
ATOM     27  C   LIG    1        5.497   0.518  -2.478  0.00  0.00    +0.162 A 
ATOM     28  C   LIG    1        6.597   1.322  -2.138  0.00  0.00    +0.164 A 
ATOM     29  C   LIG    1        6.479   2.697  -2.350  0.00  0.00    +0.077 A 
ATOM     30  C   LIG    1        5.289   3.311  -2.699  0.00  0.00    +0.078 A 
ATOM     31  N   LIG    1        5.261   4.641  -2.559  0.00  0.00    -0.255 NA
ATOM     32  C   LIG    1        4.101   5.279  -2.781  0.00  0.00    +0.115 A 
ATOM     33  C   LIG    1        2.997   4.666  -3.317  0.00  0.00    +0.066 A 
ATOM     34  C   LIG    1        3.076   3.304  -3.608  0.00  0.00    +0.139 A 
ATOM     35  C   LIG    1        4.192   2.545  -3.128  0.00  0.00    +0.046 A 
ATOM     36  C   LIG    1        4.323   1.130  -3.005  0.00  0.00    +0.063 A 
BRANCH  27  38
ATOM     37  C   LIG    1        6.502  -1.570  -1.859  0.00  0.00    +0.277 C 
ATOM     38  O   LIG    1        5.382  -0.845  -2.353  0.00  0.00    -0.491 OA
ENDBRANCH  27  38
BRANCH  28  39
ATOM     39  O   LIG    1        7.760   0.790  -1.609  0.00  0.00    -0.488 OA
BRANCH  39  40
ATOM     40  C   LIG    1        8.494   1.665  -0.719  0.00  0.00    +0.230 C 
BRANCH  40  41
ATOM     41  C   LIG    1        9.700   0.953  -0.099  0.00  0.00    +0.056 C 
BRANCH  41  42
ATOM     42  C   LIG    1       10.525   1.856   0.849  0.00  0.00    +0.088 C 
BRANCH  42  43
ATOM     43  N   LIG    1       11.155   3.057   0.263  0.00  0.00    -0.298 NA
ATOM     44  C   LIG    1       12.072   2.784  -0.867  0.00  0.00    +0.112 C 
ATOM     45  C   LIG    1       13.362   2.063  -0.446  0.00  0.00    +0.175 C 
ATOM     46  O   LIG    1       14.094   2.859   0.493  0.00  0.00    -0.377 OA
ATOM     47  C   LIG    1       13.298   3.148   1.650  0.00  0.00    +0.175 C 
ATOM     48  C   LIG    1       11.946   3.800   1.283  0.00  0.00    +0.112 C 
ENDBRANCH  42  43
ENDBRANCH  41  42
ENDBRANCH  40  41
ENDBRANCH  39  40
ENDBRANCH  28  39
ENDBRANCH  26  34
ENDBRANCH   1  26
TORSDOF 12
