REMARK  Name = pdb/CHEMBL3955007.pdb
REMARK                            x       y       z     vdW  Elec       q    Type
REMARK                         _______ _______ _______ _____ _____    ______ ____
ROOT
ATOM      1  C   LIG    1        0.192  -2.328   3.015  0.00  0.00    +0.126 A 
ATOM      2  N   LIG    1        0.683  -1.122   2.775  0.00  0.00    -0.212 NA
ATOM      3  C   LIG    1        0.123  -0.044   3.412  0.00  0.00    +0.170 A 
ATOM      4  C   LIG    1        0.430   1.313   3.389  0.00  0.00    +0.100 A 
ATOM      5  C   LIG    1       -0.415   1.850   4.383  0.00  0.00    +0.150 A 
ATOM      6  N   LIG    1       -1.256   0.963   4.913  0.00  0.00    -0.173 NA
ATOM      7  N   LIG    1       -0.925  -0.201   4.316  0.00  0.00    -0.221 N 
ATOM      8  C   LIG    1       -1.478  -1.449   4.547  0.00  0.00    +0.118 A 
ATOM      9  C   LIG    1       -0.995  -2.531   3.924  0.00  0.00    +0.063 A 
ENDROOT
BRANCH   1  11
ATOM     10  C   LIG    1        0.492  -4.847   2.606  0.00  0.00    +0.107 C 
ATOM     11  N   LIG    1        0.832  -3.416   2.430  0.00  0.00    -0.308 N 
ATOM     12  C   LIG    1        2.223  -3.280   1.982  0.00  0.00    +0.107 C 
ATOM     13  C   LIG    1        2.857  -4.620   2.316  0.00  0.00    +0.021 C 
ATOM     14  C   LIG    1        1.723  -5.592   2.054  0.00  0.00    +0.029 C 
BRANCH  10  17
ATOM     15  C   LIG    1       -1.301  -7.152   3.533  0.00  0.00    +0.066 C 
ATOM     16  C   LIG    1       -1.592  -6.329   2.310  0.00  0.00    +0.043 A 
ATOM     17  C   LIG    1       -0.770  -5.270   1.875  0.00  0.00    -0.003 A 
ATOM     18  C   LIG    1       -1.144  -4.625   0.681  0.00  0.00    +0.047 A 
ATOM     19  C   LIG    1       -2.289  -5.013   0.003  0.00  0.00    +0.142 A 
ATOM     20  F   LIG    1       -2.653  -4.389  -1.123  0.00  0.00    -0.204 F 
ATOM     21  C   LIG    1       -3.039  -6.050   0.509  0.00  0.00    +0.149 A 
ATOM     22  N   LIG    1       -2.712  -6.717   1.639  0.00  0.00    -0.257 NA
ENDBRANCH  10  17
ENDBRANCH   1  11
BRANCH   4  23
ATOM     23  C   LIG    1        1.467   1.963   2.604  0.00  0.00    +0.221 C 
ATOM     24  N   LIG    1        1.553   3.176   2.234  0.00  0.00    -0.247 NA
BRANCH  24  25
ATOM     25  C   LIG    1        0.561   4.230   2.428  0.00  0.00    +0.109 C 
ATOM     26  C   LIG    1        0.114   4.750   1.056  0.00  0.00    +0.029 C 
ATOM     27  C   LIG    1        1.213   5.516   0.320  0.00  0.00    +0.033 C 
ATOM     28  C   LIG    1        1.780   6.650   1.171  0.00  0.00    +0.115 C 
ATOM     29  C   LIG    1        2.254   6.151   2.534  0.00  0.00    +0.033 C 
ATOM     30  C   LIG    1        1.175   5.353   3.274  0.00  0.00    +0.029 C 
BRANCH  28  31
ATOM     31  O   LIG    1        0.777   7.647   1.371  0.00  0.00    -0.392 OA
ATOM     32  H   LIG    1        0.507   7.965   0.492  0.00  0.00    +0.210 HD
ENDBRANCH  28  31
ENDBRANCH  24  25
BRANCH  23  33
ATOM     33  O   LIG    1        2.485   1.143   2.234  0.00  0.00    -0.492 OA
ATOM     34  H   LIG    1        2.300   0.216   2.476  0.00  0.00    +0.294 HD
ENDBRANCH  23  33
ENDBRANCH   4  23
TORSDOF 6
