REMARK  Name = pdb/CHEMBL3675934.pdb
REMARK                            x       y       z     vdW  Elec       q    Type
REMARK                         _______ _______ _______ _____ _____    ______ ____
ROOT
ATOM      1  C   LIG    1        7.033  -0.778   3.508  0.00  0.00    +0.100 A 
ATOM      2  C   LIG    1        7.859   0.334   3.614  0.00  0.00    +0.170 A 
ATOM      3  N   LIG    1        7.617   1.676   3.814  0.00  0.00    -0.212 NA
ATOM      4  C   LIG    1        8.653   2.495   3.878  0.00  0.00    +0.126 A 
ATOM      5  C   LIG    1       10.068   2.010   3.651  0.00  0.00    +0.063 A 
ATOM      6  C   LIG    1       10.250   0.698   3.483  0.00  0.00    +0.118 A 
ATOM      7  N   LIG    1        9.165  -0.158   3.477  0.00  0.00    -0.221 N 
ATOM      8  N   LIG    1        9.206  -1.499   3.333  0.00  0.00    -0.173 NA
ATOM      9  C   LIG    1        7.927  -1.863   3.349  0.00  0.00    +0.150 A 
ENDROOT
BRANCH   4  10
ATOM     10  N   LIG    1        8.455   3.847   4.167  0.00  0.00    -0.308 N 
ATOM     11  C   LIG    1        9.435   4.622   4.961  0.00  0.00    +0.108 C 
ATOM     12  C   LIG    1        8.575   5.459   5.915  0.00  0.00    +0.029 C 
ATOM     13  C   LIG    1        7.308   5.701   5.118  0.00  0.00    +0.021 C 
ATOM     14  C   LIG    1        7.102   4.369   4.406  0.00  0.00    +0.107 C 
BRANCH  11  15
ATOM     15  C   LIG    1       10.351   5.479   4.110  0.00  0.00    +0.011 A 
ATOM     16  C   LIG    1       11.618   5.803   4.619  0.00  0.00    +0.129 A 
ATOM     17  F   LIG    1       11.972   5.365   5.836  0.00  0.00    -0.205 F 
ATOM     18  C   LIG    1       12.532   6.569   3.898  0.00  0.00    +0.041 A 
ATOM     19  C   LIG    1       12.181   7.049   2.640  0.00  0.00    +0.041 A 
ATOM     20  C   LIG    1       10.916   6.767   2.134  0.00  0.00    +0.124 A 
ATOM     21  F   LIG    1       10.570   7.250   0.933  0.00  0.00    -0.205 F 
ATOM     22  C   LIG    1       10.003   5.992   2.851  0.00  0.00    +0.046 A 
ENDBRANCH  11  15
ENDBRANCH   4  10
BRANCH   1  25
ATOM     23  N   LIG    1        4.849   0.230   3.698  0.00  0.00    -0.309 N 
ATOM     24  H   LIG    1        5.361   1.107   3.719  0.00  0.00    +0.149 HD
ATOM     25  C   LIG    1        5.586  -0.924   3.533  0.00  0.00    +0.249 C 
ATOM     26  O   LIG    1        5.072  -2.024   3.393  0.00  0.00    -0.270 OA
BRANCH  23  27
ATOM     27  C   LIG    1        3.387   0.226   3.594  0.00  0.00    +0.125 C 
BRANCH  27  29
ATOM     28  C   LIG    1        1.128   0.625   4.699  0.00  0.00    +0.029 C 
ATOM     29  C   LIG    1        2.653   0.693   4.886  0.00  0.00    +0.026 C 
ATOM     30  C   LIG    1        3.029   2.143   5.226  0.00  0.00    +0.029 C 
BRANCH  29  31
ATOM     31  N   LIG    1        2.986  -0.199   6.006  0.00  0.00    -0.324 NA
ATOM     32  H   LIG    1        3.998  -0.257   6.113  0.00  0.00    +0.119 HD
ATOM     33  H   LIG    1        2.597   0.145   6.880  0.00  0.00    +0.119 HD
ENDBRANCH  29  31
ENDBRANCH  27  29
ENDBRANCH  23  27
ENDBRANCH   1  25
TORSDOF 6
