REMARK  Name = pdb/CHEMBL3950417.pdb
REMARK                            x       y       z     vdW  Elec       q    Type
REMARK                         _______ _______ _______ _____ _____    ______ ____
ROOT
ATOM      1  C   LIG    1       -3.271  -1.439   0.621  0.00  0.00    +0.141 C 
ATOM      2  C   LIG    1       -4.159  -2.507   0.517  0.00  0.00    +0.350 C 
ATOM      3  N   LIG    1       -4.172  -3.803   0.985  0.00  0.00    -0.041 NA
ATOM      4  C   LIG    1       -5.157  -4.605   0.614  0.00  0.00    +0.313 C 
ATOM      5  C   LIG    1       -6.308  -4.088  -0.224  0.00  0.00    +0.115 C 
ATOM      6  C   LIG    1       -6.260  -2.836  -0.635  0.00  0.00    +0.106 C 
ATOM      7  N   LIG    1       -5.178  -2.033  -0.319  0.00  0.00    -0.181 N 
ATOM      8  N   LIG    1       -4.938  -0.791  -0.795  0.00  0.00    -0.151 NA
ATOM      9  C   LIG    1       -3.720  -0.514  -0.337  0.00  0.00    +0.146 C 
ENDROOT
BRANCH   4  10
ATOM     10  N   LIG    1       -5.175  -5.943   1.004  0.00  0.00    -0.214 N 
ATOM     11  C   LIG    1       -5.801  -7.009   0.199  0.00  0.00    +0.201 C 
ATOM     12  C   LIG    1       -4.600  -7.908  -0.107  0.00  0.00    +0.056 C 
ATOM     13  C   LIG    1       -3.779  -7.876   1.170  0.00  0.00    +0.048 C 
ATOM     14  C   LIG    1       -4.097  -6.526   1.815  0.00  0.00    +0.226 C 
BRANCH  11  15
ATOM     15  C   LIG    1       -6.943  -7.697   0.935  0.00  0.00    +0.033 A 
ATOM     16  C   LIG    1       -7.577  -8.811   0.363  0.00  0.00    +0.131 A 
ATOM     17  F   LIG    1       -7.170  -9.275  -0.827  0.00  0.00    -0.205 F 
ATOM     18  C   LIG    1       -8.636  -9.466   0.997  0.00  0.00    +0.041 A 
ATOM     19  C   LIG    1       -9.093  -9.008   2.229  0.00  0.00    +0.041 A 
ATOM     20  C   LIG    1       -8.487  -7.899   2.804  0.00  0.00    +0.124 A 
ATOM     21  F   LIG    1       -8.916  -7.459   3.994  0.00  0.00    -0.205 F 
ATOM     22  C   LIG    1       -7.436  -7.239   2.169  0.00  0.00    +0.048 A 
ENDBRANCH  11  15
ENDBRANCH   4  10
BRANCH   1  24
ATOM     23  C   LIG    1       -1.623  -0.555   2.097  0.00  0.00    +0.196 C 
ATOM     24  N   LIG    1       -2.024  -1.446   1.242  0.00  0.00    -0.213 NA
BRANCH  23  26
ATOM     25  C   LIG    1       -2.967   0.305   4.099  0.00  0.00    +0.023 C 
ATOM     26  C   LIG    1       -2.278   0.695   2.779  0.00  0.00    +0.064 C 
ATOM     27  C   LIG    1       -3.321   1.403   1.912  0.00  0.00    +0.023 C 
BRANCH  26  28
ATOM     28  C   LIG    1       -1.217   1.788   3.111  0.00  0.00    +0.171 C 
BRANCH  28  29
ATOM     29  O   LIG    1       -0.247   1.305   4.043  0.00  0.00    -0.394 OA
ATOM     30  H   LIG    1        0.155   2.089   4.467  0.00  0.00    +0.209 HD
ENDBRANCH  28  29
ENDBRANCH  26  28
ENDBRANCH  23  26
BRANCH  23  31
ATOM     31  O   LIG    1       -0.352  -0.781   2.527  0.00  0.00    -0.495 OA
ATOM     32  H   LIG    1       -0.053  -0.156   3.217  0.00  0.00    +0.293 HD
ENDBRANCH  23  31
ENDBRANCH   1  24
TORSDOF 7
