REMARK  Name = pdb/CHEMBL3915877.pdb
REMARK                            x       y       z     vdW  Elec       q    Type
REMARK                         _______ _______ _______ _____ _____    ______ ____
ROOT
ATOM      1  C   LIG    1       10.756  -1.062  -0.974  0.00  0.00    +0.323 A 
ATOM      2  N   LIG    1       11.323  -1.298  -2.166  0.00  0.00    -0.201 NA
ATOM      3  C   LIG    1       11.923  -2.506  -2.313  0.00  0.00    +0.145 A 
ATOM      4  C   LIG    1       11.978  -3.488  -1.333  0.00  0.00    +0.105 A 
ATOM      5  C   LIG    1       11.326  -3.128  -0.175  0.00  0.00    +0.145 A 
ATOM      6  N   LIG    1       10.799  -1.919   0.060  0.00  0.00    -0.201 NA
ENDROOT
BRANCH   4   7
ATOM      7  N   LIG    1       12.569  -4.739  -1.536  0.00  0.00    -0.196 NA
ATOM      8  C   LIG    1       13.170  -5.415  -0.593  0.00  0.00    +0.285 C 
BRANCH   8   9
ATOM      9  N   LIG    1       13.675  -6.665  -0.620  0.00  0.00    -0.269 N 
ATOM     10  H   LIG    1       14.204  -6.848   0.213  0.00  0.00    +0.157 HD
BRANCH   9  11
ATOM     11  C   LIG    1       13.320  -7.793  -1.389  0.00  0.00    +0.043 A 
ATOM     12  C   LIG    1       14.066  -9.013  -1.382  0.00  0.00    +0.005 A 
ATOM     13  C   LIG    1       13.631 -10.019  -2.288  0.00  0.00    +0.011 A 
ATOM     14  C   LIG    1       12.557  -9.846  -3.175  0.00  0.00    +0.013 A 
ATOM     15  C   LIG    1       11.847  -8.652  -3.186  0.00  0.00    +0.057 A 
ATOM     16  C   LIG    1       12.230  -7.661  -2.280  0.00  0.00    +0.036 A 
BRANCH  12  17
ATOM     17  C   LIG    1       15.271  -9.310  -0.525  0.00  0.00    +0.002 A 
ATOM     18  C   LIG    1       16.293 -10.180  -0.946  0.00  0.00    +0.119 A 
ATOM     19  N   LIG    1       17.421 -10.498  -0.251  0.00  0.00    -0.263 NA
ATOM     20  C   LIG    1       17.573  -9.924   0.953  0.00  0.00    +0.111 A 
ATOM     21  C   LIG    1       16.630  -9.083   1.502  0.00  0.00    +0.020 A 
ATOM     22  C   LIG    1       15.472  -8.806   0.769  0.00  0.00    +0.011 A 
ENDBRANCH  12  17
BRANCH  15  23
ATOM     23  C   LIG    1       10.723  -8.387  -4.158  0.00  0.00    +0.417 C 
ATOM     24  F   LIG    1        9.695  -9.274  -4.046  0.00  0.00    -0.166 F 
ATOM     25  F   LIG    1       11.136  -8.450  -5.454  0.00  0.00    -0.166 F 
ATOM     26  F   LIG    1       10.157  -7.155  -4.012  0.00  0.00    -0.166 F 
ENDBRANCH  15  23
ENDBRANCH   9  11
ENDBRANCH   8   9
BRANCH   8  27
ATOM     27  O   LIG    1       13.433  -4.897   0.620  0.00  0.00    -0.481 OA
ATOM     28  H   LIG    1       13.424  -3.930   0.609  0.00  0.00    +0.295 HD
ENDBRANCH   8  27
ENDBRANCH   4   7
BRANCH   1  29
ATOM     29  O   LIG    1       10.119   0.162  -0.836  0.00  0.00    -0.424 OA
BRANCH  29  33
ATOM     30  C   LIG    1        6.944   0.813   1.831  0.00  0.00    -0.013 A 
ATOM     31  C   LIG    1        7.429  -0.481   1.657  0.00  0.00    +0.012 A 
ATOM     32  C   LIG    1        8.446  -0.735   0.746  0.00  0.00    +0.047 A 
ATOM     33  C   LIG    1        9.063   0.298   0.040  0.00  0.00    +0.132 A 
ATOM     34  C   LIG    1        8.559   1.593   0.184  0.00  0.00    +0.047 A 
ATOM     35  C   LIG    1        7.497   1.845   1.063  0.00  0.00    +0.012 A 
BRANCH  30  39
ATOM     36  C   LIG    1        5.701   4.338   4.292  0.00  0.00    +0.125 A 
ATOM     37  N   LIG    1        6.238   3.392   3.552  0.00  0.00    -0.213 NA
ATOM     38  C   LIG    1        5.613   2.170   3.498  0.00  0.00    +0.165 A 
ATOM     39  C   LIG    1        5.865   1.018   2.776  0.00  0.00    +0.046 A 
ATOM     40  C   LIG    1        4.889   0.097   3.218  0.00  0.00    +0.145 A 
ATOM     41  N   LIG    1        4.054   0.607   4.120  0.00  0.00    -0.173 NA
ATOM     42  N   LIG    1        4.485   1.885   4.271  0.00  0.00    -0.221 N 
ATOM     43  C   LIG    1        3.928   2.861   5.079  0.00  0.00    +0.118 A 
ATOM     44  C   LIG    1        4.463   4.086   5.119  0.00  0.00    +0.063 A 
BRANCH  36  46
ATOM     45  C   LIG    1        7.714   5.753   4.092  0.00  0.00    +0.130 C 
ATOM     46  N   LIG    1        6.287   5.605   4.366  0.00  0.00    -0.321 N 
ATOM     47  C   LIG    1        5.486   6.798   4.078  0.00  0.00    +0.130 C 
ENDBRANCH  36  46
ENDBRANCH  30  39
ENDBRANCH  29  33
ENDBRANCH   1  29
TORSDOF 10
