REMARK  Name = pdb/CHEMBL3909097.pdb
REMARK                            x       y       z     vdW  Elec       q    Type
REMARK                         _______ _______ _______ _____ _____    ______ ____
ROOT
ATOM      1  C   LIG    1        3.017  -4.143  -0.954  0.00  0.00    +0.126 A 
ATOM      2  N   LIG    1        2.259  -3.146  -1.362  0.00  0.00    -0.211 NA
ATOM      3  C   LIG    1        1.114  -3.446  -2.064  0.00  0.00    +0.179 A 
ATOM      4  C   LIG    1        0.149  -2.659  -2.663  0.00  0.00    +0.098 A 
ATOM      5  C   LIG    1       -0.752  -3.571  -3.249  0.00  0.00    +0.160 A 
ATOM      6  N   LIG    1       -0.407  -4.843  -3.050  0.00  0.00    -0.171 NA
ATOM      7  N   LIG    1        0.742  -4.763  -2.340  0.00  0.00    -0.220 N 
ATOM      8  C   LIG    1        1.520  -5.818  -1.905  0.00  0.00    +0.118 A 
ATOM      9  C   LIG    1        2.642  -5.586  -1.219  0.00  0.00    +0.063 A 
ENDROOT
BRANCH   1  11
ATOM     10  C   LIG    1        4.694  -2.521   0.008  0.00  0.00    +0.108 C 
ATOM     11  N   LIG    1        4.205  -3.878  -0.284  0.00  0.00    -0.308 N 
ATOM     12  C   LIG    1        5.035  -4.888   0.369  0.00  0.00    +0.107 C 
ATOM     13  C   LIG    1        6.154  -4.118   1.053  0.00  0.00    +0.021 C 
ATOM     14  C   LIG    1        5.544  -2.746   1.275  0.00  0.00    +0.029 C 
BRANCH  10  18
ATOM     15  F   LIG    1        6.415  -2.558  -4.616  0.00  0.00    -0.205 F 
ATOM     16  C   LIG    1        6.315  -1.938  -3.433  0.00  0.00    +0.124 A 
ATOM     17  C   LIG    1        5.613  -2.552  -2.398  0.00  0.00    +0.046 A 
ATOM     18  C   LIG    1        5.488  -1.925  -1.146  0.00  0.00    +0.011 A 
ATOM     19  C   LIG    1        6.090  -0.667  -0.994  0.00  0.00    +0.129 A 
ATOM     20  F   LIG    1        5.986  -0.013   0.172  0.00  0.00    -0.205 F 
ATOM     21  C   LIG    1        6.800  -0.056  -2.029  0.00  0.00    +0.041 A 
ATOM     22  C   LIG    1        6.911  -0.696  -3.260  0.00  0.00    +0.041 A 
ENDBRANCH  10  18
ENDBRANCH   1  11
BRANCH   4  23
ATOM     23  N   LIG    1        0.139  -1.275  -2.652  0.00  0.00    -0.275 N 
ATOM     24  H   LIG    1        0.860  -0.808  -2.110  0.00  0.00    +0.155 HD
ATOM     25  C   LIG    1       -0.768  -0.507  -3.372  0.00  0.00    +0.286 C 
ATOM     26  O   LIG    1       -1.636  -0.953  -4.115  0.00  0.00    -0.266 OA
BRANCH  25  27
ATOM     27  C   LIG    1       -0.607   0.977  -3.178  0.00  0.00    +0.216 A 
ATOM     28  N   LIG    1        0.567   1.410  -2.662  0.00  0.00    -0.232 NA
ATOM     29  C   LIG    1        0.671   2.744  -2.509  0.00  0.00    +0.115 A 
ATOM     30  C   LIG    1       -0.339   3.630  -2.806  0.00  0.00    +0.039 A 
ATOM     31  C   LIG    1       -1.497   3.074  -3.299  0.00  0.00    +0.115 A 
ATOM     32  N   LIG    1       -1.660   1.760  -3.506  0.00  0.00    -0.232 NA
ENDBRANCH  25  27
ENDBRANCH   4  23
TORSDOF 4
