REMARK  Name = pdb/CHEMBL3950525.pdb
REMARK                            x       y       z     vdW  Elec       q    Type
REMARK                         _______ _______ _______ _____ _____    ______ ____
ROOT
ATOM      1  C   LIG    1        8.580  -6.252   0.723  0.00  0.00    +0.323 A 
ATOM      2  N   LIG    1        8.144  -7.469   1.090  0.00  0.00    -0.201 NA
ATOM      3  C   LIG    1        7.897  -8.343   0.071  0.00  0.00    +0.145 A 
ATOM      4  C   LIG    1        7.999  -8.037  -1.277  0.00  0.00    +0.105 A 
ATOM      5  C   LIG    1        8.483  -6.761  -1.505  0.00  0.00    +0.145 A 
ATOM      6  N   LIG    1        8.795  -5.866  -0.547  0.00  0.00    -0.201 NA
ENDROOT
BRANCH   4   7
ATOM      7  N   LIG    1        7.801  -8.879  -2.383  0.00  0.00    -0.196 NA
ATOM      8  C   LIG    1        6.893  -9.769  -2.581  0.00  0.00    +0.285 C 
BRANCH   8   9
ATOM      9  N   LIG    1        6.700 -10.577  -3.680  0.00  0.00    -0.269 N 
ATOM     10  H   LIG    1        5.881 -11.162  -3.629  0.00  0.00    +0.157 HD
BRANCH   9  11
ATOM     11  C   LIG    1        7.391 -10.572  -4.917  0.00  0.00    +0.043 A 
ATOM     12  C   LIG    1        6.778 -10.973  -6.149  0.00  0.00    +0.005 A 
ATOM     13  C   LIG    1        7.552 -10.851  -7.332  0.00  0.00    +0.011 A 
ATOM     14  C   LIG    1        8.856 -10.366  -7.335  0.00  0.00    +0.013 A 
ATOM     15  C   LIG    1        9.450  -9.962  -6.148  0.00  0.00    +0.057 A 
ATOM     16  C   LIG    1        8.718 -10.081  -4.958  0.00  0.00    +0.036 A 
BRANCH  12  17
ATOM     17  C   LIG    1        5.357 -11.400  -6.338  0.00  0.00    +0.002 A 
ATOM     18  C   LIG    1        4.964 -12.292  -7.354  0.00  0.00    +0.119 A 
ATOM     19  N   LIG    1        3.683 -12.576  -7.712  0.00  0.00    -0.263 NA
ATOM     20  C   LIG    1        2.717 -11.900  -7.066  0.00  0.00    +0.111 A 
ATOM     21  C   LIG    1        2.977 -10.992  -6.058  0.00  0.00    +0.020 A 
ATOM     22  C   LIG    1        4.299 -10.791  -5.658  0.00  0.00    +0.011 A 
ENDBRANCH  12  17
BRANCH  15  23
ATOM     23  C   LIG    1       10.856  -9.425  -6.168  0.00  0.00    +0.417 C 
ATOM     24  F   LIG    1       11.041  -8.498  -7.150  0.00  0.00    -0.166 F 
ATOM     25  F   LIG    1       11.773 -10.403  -6.405  0.00  0.00    -0.166 F 
ATOM     26  F   LIG    1       11.236  -8.822  -5.010  0.00  0.00    -0.166 F 
ENDBRANCH  15  23
ENDBRANCH   9  11
ENDBRANCH   8   9
BRANCH   8  27
ATOM     27  O   LIG    1        5.905 -10.008  -1.702  0.00  0.00    -0.481 OA
ATOM     28  H   LIG    1        5.836  -9.305  -1.044  0.00  0.00    +0.295 HD
ENDBRANCH   8  27
ENDBRANCH   4   7
BRANCH   1  29
ATOM     29  O   LIG    1        8.795  -5.336   1.754  0.00  0.00    -0.424 OA
BRANCH  29  33
ATOM     30  C   LIG    1        8.273  -1.290   0.802  0.00  0.00    +0.002 A 
ATOM     31  C   LIG    1        7.441  -2.255   0.227  0.00  0.00    +0.013 A 
ATOM     32  C   LIG    1        7.572  -3.593   0.578  0.00  0.00    +0.047 A 
ATOM     33  C   LIG    1        8.579  -4.006   1.454  0.00  0.00    +0.132 A 
ATOM     34  C   LIG    1        9.381  -3.048   2.075  0.00  0.00    +0.047 A 
ATOM     35  C   LIG    1        9.223  -1.697   1.748  0.00  0.00    +0.013 A 
BRANCH  30  39
ATOM     36  C   LIG    1       11.182   1.934   0.392  0.00  0.00    +0.233 A 
ATOM     37  N   LIG    1       10.457   0.880   0.633  0.00  0.00    -0.127 NA
ATOM     38  N   LIG    1        9.126   1.051   0.332  0.00  0.00    -0.209 N 
ATOM     39  C   LIG    1        8.115   0.106   0.413  0.00  0.00    +0.093 A 
ATOM     40  C   LIG    1        6.979   0.784  -0.005  0.00  0.00    +0.141 A 
ATOM     41  N   LIG    1        7.242   2.084  -0.328  0.00  0.00    -0.234 NA
ATOM     42  C   LIG    1        8.534   2.212  -0.138  0.00  0.00    +0.155 A 
ATOM     43  C   LIG    1        9.384   3.297  -0.406  0.00  0.00    +0.053 A 
ATOM     44  C   LIG    1       10.689   3.175  -0.209  0.00  0.00    +0.072 A 
BRANCH  36  45
ATOM     45  O   LIG    1       12.493   1.881   0.736  0.00  0.00    -0.476 OA
BRANCH  45  47
ATOM     46  C   LIG    1       14.580   2.635  -0.223  0.00  0.00    +0.048 C 
ATOM     47  C   LIG    1       13.408   2.996   0.664  0.00  0.00    +0.227 C 
ENDBRANCH  45  47
ENDBRANCH  36  45
ENDBRANCH  30  39
ENDBRANCH  29  33
ENDBRANCH   1  29
TORSDOF 11
