REMARK  Name = pdb/CHEMBL3676072.pdb
REMARK                            x       y       z     vdW  Elec       q    Type
REMARK                         _______ _______ _______ _____ _____    ______ ____
ROOT
ATOM      1  C   LIG    1        6.029  -7.396   0.581  0.00  0.00    +0.105 C 
ATOM      2  N   LIG    1        6.464  -7.932   1.878  0.00  0.00    -0.308 N 
ATOM      3  C   LIG    1        6.811  -9.352   1.750  0.00  0.00    +0.107 C 
ATOM      4  C   LIG    1        6.281  -9.762   0.385  0.00  0.00    +0.021 C 
ATOM      5  C   LIG    1        6.424  -8.490  -0.425  0.00  0.00    +0.029 C 
ENDROOT
BRANCH   2   6
ATOM      6  C   LIG    1        6.450  -7.315   3.121  0.00  0.00    +0.126 A 
ATOM      7  N   LIG    1        6.819  -8.043   4.160  0.00  0.00    -0.212 NA
ATOM      8  C   LIG    1        7.007  -7.414   5.362  0.00  0.00    +0.170 A 
ATOM      9  C   LIG    1        7.351  -7.887   6.615  0.00  0.00    +0.100 A 
ATOM     10  C   LIG    1        7.603  -6.713   7.359  0.00  0.00    +0.150 A 
ATOM     11  N   LIG    1        7.300  -5.593   6.698  0.00  0.00    -0.173 NA
ATOM     12  N   LIG    1        6.878  -6.030   5.489  0.00  0.00    -0.221 N 
ATOM     13  C   LIG    1        6.352  -5.281   4.451  0.00  0.00    +0.118 A 
ATOM     14  C   LIG    1        6.063  -5.864   3.281  0.00  0.00    +0.063 A 
BRANCH   9  15
ATOM     15  C   LIG    1        7.483  -9.259   7.087  0.00  0.00    +0.249 C 
ATOM     16  N   LIG    1        7.053 -10.224   6.188  0.00  0.00    -0.308 N 
ATOM     17  H   LIG    1        6.645  -9.901   5.316  0.00  0.00    +0.149 HD
ATOM     18  O   LIG    1        7.903  -9.518   8.200  0.00  0.00    -0.270 OA
BRANCH  16  19
ATOM     19  C   LIG    1        7.098 -11.627   6.470  0.00  0.00    +0.073 C 
ATOM     20  C   LIG    1        6.298 -12.620   5.665  0.00  0.00    +0.024 C 
ATOM     21  C   LIG    1        5.900 -12.309   7.076  0.00  0.00    +0.024 C 
ENDBRANCH  16  19
ENDBRANCH   9  15
ENDBRANCH   2   6
BRANCH   1  24
ATOM     22  C   LIG    1        8.528  -4.534   0.009  0.00  0.00    +0.124 A 
ATOM     23  C   LIG    1        7.971  -5.748   0.433  0.00  0.00    +0.051 A 
ATOM     24  C   LIG    1        6.637  -6.077   0.158  0.00  0.00    -0.021 A 
ATOM     25  C   LIG    1        5.866  -5.162  -0.568  0.00  0.00    +0.044 A 
ATOM     26  C   LIG    1        6.408  -3.939  -0.954  0.00  0.00    +0.127 A 
ATOM     27  F   LIG    1        5.640  -3.079  -1.635  0.00  0.00    -0.205 F 
ATOM     28  C   LIG    1        7.726  -3.606  -0.655  0.00  0.00    +0.084 A 
BRANCH  22  29
ATOM     29  O   LIG    1        9.840  -4.192   0.236  0.00  0.00    -0.489 OA
BRANCH  29  30
ATOM     30  C   LIG    1       10.731  -5.320   0.273  0.00  0.00    +0.263 C 
BRANCH  30  34
ATOM     31  C   LIG    1       14.856  -3.201  -0.060  0.00  0.00    +0.074 C 
ATOM     32  C   LIG    1       14.096  -4.408  -0.590  0.00  0.00    +0.165 C 
ATOM     33  O   LIG    1       12.688  -4.130  -0.589  0.00  0.00    -0.340 OA
ATOM     34  C   LIG    1       12.169  -4.887   0.506  0.00  0.00    +0.184 C 
ATOM     35  C   LIG    1       13.096  -6.080   0.566  0.00  0.00    +0.198 C 
ATOM     36  O   LIG    1       14.374  -5.526   0.267  0.00  0.00    -0.346 OA
ATOM     37  C   LIG    1       14.504  -4.748  -2.016  0.00  0.00    +0.074 C 
ENDBRANCH  30  34
ENDBRANCH  29  30
ENDBRANCH  22  29
ENDBRANCH   1  24
TORSDOF 7
