REMARK  Name = pdb/CHEMBL3943397.pdb
REMARK                            x       y       z     vdW  Elec       q    Type
REMARK                         _______ _______ _______ _____ _____    ______ ____
ROOT
ATOM      1  C   LIG    1        3.844   0.603   0.941  0.00  0.00    +0.131 C 
ATOM      2  N   LIG    1        4.088   0.193   2.201  0.00  0.00    -0.141 NA
ATOM      3  N   LIG    1        4.337   1.343   2.894  0.00  0.00    -0.201 N 
ATOM      4  C   LIG    1        4.017   2.460   2.133  0.00  0.00    +0.185 C 
ATOM      5  C   LIG    1        3.824   2.021   0.840  0.00  0.00    +0.056 C 
ENDROOT
BRANCH   3   6
ATOM      6  C   LIG    1        4.949   1.310   4.178  0.00  0.00    +0.052 A 
ATOM      7  C   LIG    1        5.737   2.380   4.632  0.00  0.00    +0.025 A 
ATOM      8  C   LIG    1        6.339   2.320   5.894  0.00  0.00    +0.002 A 
ATOM      9  C   LIG    1        6.152   1.202   6.706  0.00  0.00    +0.000 A 
ATOM     10  C   LIG    1        5.385   0.132   6.250  0.00  0.00    +0.002 A 
ATOM     11  C   LIG    1        4.796   0.175   4.983  0.00  0.00    +0.025 A 
ENDBRANCH   3   6
BRANCH   4  12
ATOM     12  N   LIG    1        3.837   3.780   2.531  0.00  0.00    -0.282 N 
ATOM     13  H   LIG    1        4.220   4.512   1.933  0.00  0.00    +0.152 HD
ATOM     14  C   LIG    1        2.849   4.111   3.525  0.00  0.00    +0.247 C 
ATOM     15  O   LIG    1        2.141   3.236   3.988  0.00  0.00    -0.270 OA
BRANCH  14  16
ATOM     16  C   LIG    1        2.761   5.531   3.969  0.00  0.00    +0.056 A 
ATOM     17  C   LIG    1        3.144   6.615   3.173  0.00  0.00    +0.056 A 
ATOM     18 CL   LIG    1        3.547   6.472   1.500  0.00  0.00    -0.083 Cl
ATOM     19  C   LIG    1        3.185   7.897   3.718  0.00  0.00    +0.059 A 
ATOM     20  C   LIG    1        2.794   8.113   5.038  0.00  0.00    +0.134 A 
ATOM     21  F   LIG    1        2.938   9.358   5.511  0.00  0.00    -0.205 F 
ATOM     22  C   LIG    1        2.302   7.081   5.851  0.00  0.00    +0.039 A 
ATOM     23  C   LIG    1        2.314   5.780   5.289  0.00  0.00    +0.027 A 
BRANCH  22  24
ATOM     24  C   LIG    1        1.813   7.315   7.231  0.00  0.00    +0.109 A 
ATOM     25  C   LIG    1        1.227   8.509   7.667  0.00  0.00    +0.149 A 
ATOM     26  F   LIG    1        1.035   9.550   6.845  0.00  0.00    -0.203 F 
ATOM     27  C   LIG    1        0.780   8.631   8.979  0.00  0.00    +0.042 A 
ATOM     28  C   LIG    1        0.910   7.552   9.841  0.00  0.00    +0.023 A 
ATOM     29  C   LIG    1        1.485   6.393   9.347  0.00  0.00    +0.111 A 
ATOM     30  N   LIG    1        1.934   6.250   8.074  0.00  0.00    -0.252 NA
ENDBRANCH  22  24
ENDBRANCH  14  16
ENDBRANCH   4  12
BRANCH   1  31
ATOM     31  C   LIG    1        3.530  -0.364  -0.110  0.00  0.00    +0.233 C 
ATOM     32  N   LIG    1        3.580  -0.042  -1.348  0.00  0.00    -0.243 NA
BRANCH  31  33
ATOM     33  O   LIG    1        3.152  -1.584   0.339  0.00  0.00    -0.491 OA
ATOM     34  H   LIG    1        3.187  -1.579   1.316  0.00  0.00    +0.294 HD
ENDBRANCH  31  33
BRANCH  32  35
ATOM     35  C   LIG    1        3.175  -1.088  -2.304  0.00  0.00    +0.202 C 
BRANCH  35  36
ATOM     36  C   LIG    1        3.328  -0.659  -3.751  0.00  0.00    +0.085 A 
ATOM     37  N   LIG    1        3.258   0.663  -4.041  0.00  0.00    -0.152 NA
ATOM     38  N   LIG    1        3.394   1.097  -5.331  0.00  0.00    -0.157 NA
ATOM     39  C   LIG    1        3.582   0.198  -6.315  0.00  0.00    +0.135 A 
ATOM     40  C   LIG    1        3.631  -1.160  -6.075  0.00  0.00    +0.023 A 
ATOM     41  C   LIG    1        3.493  -1.600  -4.763  0.00  0.00    +0.028 A 
ENDBRANCH  35  36
ENDBRANCH  32  35
ENDBRANCH   1  31
TORSDOF 8
