REMARK  Name = pdb/CHEMBL3894479.pdb
REMARK                            x       y       z     vdW  Elec       q    Type
REMARK                         _______ _______ _______ _____ _____    ______ ____
ROOT
ATOM      1  C   LIG    1        5.163   2.715   2.818  0.00  0.00    +0.133 A 
ATOM      2  C   LIG    1        4.667   3.884   3.374  0.00  0.00    +0.183 A 
ATOM      3  N   LIG    1        3.460   4.236   3.938  0.00  0.00    -0.211 NA
ATOM      4  C   LIG    1        3.275   5.489   4.304  0.00  0.00    +0.126 A 
ATOM      5  C   LIG    1        4.389   6.509   4.193  0.00  0.00    +0.063 A 
ATOM      6  C   LIG    1        5.539   6.119   3.645  0.00  0.00    +0.118 A 
ATOM      7  N   LIG    1        5.703   4.810   3.221  0.00  0.00    -0.220 N 
ATOM      8  N   LIG    1        6.806   4.280   2.629  0.00  0.00    -0.171 NA
ATOM      9  C   LIG    1        6.456   3.030   2.363  0.00  0.00    +0.165 A 
ENDROOT
BRANCH   4  10
ATOM     10  N   LIG    1        2.050   5.918   4.833  0.00  0.00    -0.308 N 
ATOM     11  C   LIG    1        0.881   5.022   4.952  0.00  0.00    +0.106 C 
ATOM     12  C   LIG    1       -0.196   5.809   4.174  0.00  0.00    +0.029 C 
ATOM     13  C   LIG    1        0.080   7.254   4.545  0.00  0.00    +0.021 C 
ATOM     14  C   LIG    1        1.594   7.308   4.603  0.00  0.00    +0.107 C 
BRANCH  11  15
ATOM     15  C   LIG    1        0.465   4.699   6.406  0.00  0.00    -0.016 A 
ATOM     16  C   LIG    1        1.176   5.070   7.581  0.00  0.00    +0.023 A 
ATOM     17  C   LIG    1        0.686   4.683   8.853  0.00  0.00    +0.012 A 
ATOM     18  C   LIG    1       -0.466   3.921   8.994  0.00  0.00    +0.039 A 
ATOM     19  C   LIG    1       -1.150   3.536   7.857  0.00  0.00    +0.124 A 
ATOM     20  F   LIG    1       -2.257   2.792   7.984  0.00  0.00    -0.205 F 
ATOM     21  C   LIG    1       -0.703   3.910   6.587  0.00  0.00    +0.044 A 
BRANCH  16  22
ATOM     22  C   LIG    1        2.457   5.874   7.594  0.00  0.00    +0.372 C 
ATOM     23  F   LIG    1        3.002   5.997   8.846  0.00  0.00    -0.204 F 
ATOM     24  F   LIG    1        2.267   7.164   7.212  0.00  0.00    -0.204 F 
ENDBRANCH  16  22
ENDBRANCH  11  15
ENDBRANCH   4  10
BRANCH   1  26
ATOM     25  C   LIG    1        5.004   0.384   2.556  0.00  0.00    +0.283 C 
ATOM     26  N   LIG    1        4.412   1.542   2.661  0.00  0.00    -0.194 NA
BRANCH  25  29
ATOM     27  C   LIG    1        6.945  -2.291   2.867  0.00  0.00    +0.133 C 
ATOM     28  C   LIG    1        6.817  -0.923   3.567  0.00  0.00    +0.140 C 
ATOM     29  N   LIG    1        6.336  -0.004   2.533  0.00  0.00    -0.283 N 
ATOM     30  C   LIG    1        6.889  -0.496   1.263  0.00  0.00    +0.112 C 
ATOM     31  C   LIG    1        6.817  -2.010   1.372  0.00  0.00    +0.052 C 
BRANCH  27  32
ATOM     32  O   LIG    1        5.862  -3.138   3.252  0.00  0.00    -0.390 OA
ATOM     33  H   LIG    1        6.064  -4.037   2.934  0.00  0.00    +0.210 HD
ENDBRANCH  27  32
ENDBRANCH  25  29
BRANCH  25  34
ATOM     34  O   LIG    1        4.149  -0.646   2.451  0.00  0.00    -0.481 OA
ATOM     35  H   LIG    1        4.601  -1.501   2.572  0.00  0.00    +0.295 HD
ENDBRANCH  25  34
ENDBRANCH   1  26
TORSDOF 7
