REMARK  Name = pdb/CHEMBL3937084.pdb
REMARK                            x       y       z     vdW  Elec       q    Type
REMARK                         _______ _______ _______ _____ _____    ______ ____
ROOT
ATOM      1  C   LIG    1       11.885   0.057   2.048  0.00  0.00    +0.131 A 
ATOM      2  C   LIG    1       11.327  -0.483   3.183  0.00  0.00    +0.183 A 
ATOM      3  N   LIG    1       10.252  -0.144   4.002  0.00  0.00    -0.211 NA
ATOM      4  C   LIG    1        9.992  -0.898   5.046  0.00  0.00    +0.126 A 
ATOM      5  C   LIG    1       10.806  -2.139   5.353  0.00  0.00    +0.063 A 
ATOM      6  C   LIG    1       11.789  -2.442   4.524  0.00  0.00    +0.118 A 
ATOM      7  N   LIG    1       12.071  -1.640   3.442  0.00  0.00    -0.220 N 
ATOM      8  N   LIG    1       13.096  -1.805   2.549  0.00  0.00    -0.171 NA
ATOM      9  C   LIG    1       12.924  -0.814   1.680  0.00  0.00    +0.165 A 
ENDROOT
BRANCH   4  10
ATOM     10  N   LIG    1        8.931  -0.566   5.926  0.00  0.00    -0.308 N 
ATOM     11  C   LIG    1        7.828   0.304   5.437  0.00  0.00    +0.108 C 
ATOM     12  C   LIG    1        6.781  -0.754   5.052  0.00  0.00    +0.029 C 
ATOM     13  C   LIG    1        6.954  -1.880   6.074  0.00  0.00    +0.021 C 
ATOM     14  C   LIG    1        8.299  -1.613   6.740  0.00  0.00    +0.107 C 
BRANCH  11  15
ATOM     15  C   LIG    1        7.355   1.340   6.467  0.00  0.00    +0.011 A 
ATOM     16  C   LIG    1        6.331   1.115   7.404  0.00  0.00    +0.129 A 
ATOM     17  F   LIG    1        5.697  -0.056   7.486  0.00  0.00    -0.205 F 
ATOM     18  C   LIG    1        5.873   2.095   8.284  0.00  0.00    +0.041 A 
ATOM     19  C   LIG    1        6.417   3.366   8.239  0.00  0.00    +0.041 A 
ATOM     20  C   LIG    1        7.427   3.628   7.322  0.00  0.00    +0.124 A 
ATOM     21  F   LIG    1        7.936   4.865   7.261  0.00  0.00    -0.205 F 
ATOM     22  C   LIG    1        7.904   2.637   6.452  0.00  0.00    +0.046 A 
ENDBRANCH  11  15
ENDBRANCH   4  10
BRANCH   1  24
ATOM     23  C   LIG    1       12.088   2.102   0.924  0.00  0.00    +0.238 C 
ATOM     24  N   LIG    1       11.369   1.089   1.256  0.00  0.00    -0.207 NA
BRANCH  23  29
ATOM     25  N   LIG    1       15.210   5.606   2.030  0.00  0.00    -0.258 NA
ATOM     26  C   LIG    1       14.919   4.418   1.662  0.00  0.00    +0.167 A 
ATOM     27  S   LIG    1       15.932   2.971   1.833  0.00  0.00    -0.058 S 
ATOM     28  C   LIG    1       14.553   1.941   1.555  0.00  0.00    +0.079 A 
ATOM     29  C   LIG    1       13.458   2.641   1.219  0.00  0.00    +0.110 A 
ATOM     30  N   LIG    1       13.700   4.017   1.139  0.00  0.00    -0.330 N 
ATOM     31  H   LIG    1       12.924   4.647   1.307  0.00  0.00    +0.168 HD
BRANCH  25  33
ATOM     32  C   LIG    1       17.620   6.157   1.859  0.00  0.00    +0.032 C 
ATOM     33  C   LIG    1       16.447   5.855   2.783  0.00  0.00    +0.102 C 
ATOM     34  C   LIG    1       16.167   7.036   3.709  0.00  0.00    +0.032 C 
ENDBRANCH  25  33
ENDBRANCH  23  29
BRANCH  23  35
ATOM     35  O   LIG    1       11.481   2.965   0.058  0.00  0.00    -0.491 OA
ATOM     36  H   LIG    1       12.096   3.571  -0.373  0.00  0.00    +0.294 HD
ENDBRANCH  23  35
ENDBRANCH   1  24
TORSDOF 6
