REMARK  Name = pdb/CHEMBL3678285.pdb
REMARK                            x       y       z     vdW  Elec       q    Type
REMARK                         _______ _______ _______ _____ _____    ______ ____
ROOT
ATOM      1  C   LIG    1        2.911   2.230   0.935  0.00  0.00    +0.162 A 
ATOM      2  C   LIG    1        4.046   1.490   1.289  0.00  0.00    +0.162 A 
ATOM      3  C   LIG    1        5.064   2.119   2.032  0.00  0.00    +0.050 A 
ATOM      4  C   LIG    1        4.962   3.463   2.424  0.00  0.00    +0.009 A 
ATOM      5  C   LIG    1        3.827   4.196   2.083  0.00  0.00    -0.024 A 
ATOM      6  C   LIG    1        2.834   3.565   1.323  0.00  0.00    +0.054 A 
ENDROOT
BRANCH   1   8
ATOM      7  C   LIG    1        0.608   2.159   0.324  0.00  0.00    +0.277 C 
ATOM      8  O   LIG    1        1.936   1.674   0.153  0.00  0.00    -0.491 OA
ENDBRANCH   1   8
BRANCH   2   9
ATOM      9  O   LIG    1        4.303   0.171   0.997  0.00  0.00    -0.484 OA
BRANCH   9  10
ATOM     10  C   LIG    1        3.321  -0.526   0.221  0.00  0.00    +0.266 C 
BRANCH  10  11
ATOM     11  C   LIG    1        3.749  -1.938  -0.066  0.00  0.00    +0.008 A 
ATOM     12  C   LIG    1        3.339  -2.568  -1.237  0.00  0.00    +0.118 A 
ATOM     13  N   LIG    1        3.706  -3.819  -1.601  0.00  0.00    -0.259 NA
ATOM     14  C   LIG    1        4.532  -4.495  -0.768  0.00  0.00    +0.044 A 
ATOM     15  C   LIG    1        4.934  -3.965   0.459  0.00  0.00    +0.024 A 
ATOM     16  C   LIG    1        4.523  -2.683   0.817  0.00  0.00    +0.010 A 
BRANCH  14  17
ATOM     17  C   LIG    1        5.006  -5.876  -1.189  0.00  0.00    +0.032 C 
ATOM     18  C   LIG    1        5.252  -5.987  -2.698  0.00  0.00    +0.014 C 
ATOM     19  C   LIG    1        4.021  -6.959  -0.751  0.00  0.00    +0.014 C 
ENDBRANCH  14  17
ENDBRANCH  10  11
ENDBRANCH   9  10
ENDBRANCH   2   9
BRANCH   5  20
ATOM     20  C   LIG    1        3.618   5.642   2.468  0.00  0.00    +0.161 C 
BRANCH  20  21
ATOM     21  N   LIG    1        2.442   5.797   3.301  0.00  0.00    -0.293 N 
ATOM     22  C   LIG    1        1.163   6.032   2.851  0.00  0.00    +0.162 A 
ATOM     23  N   LIG    1        0.734   6.111   1.571  0.00  0.00    -0.235 NA
ATOM     24  C   LIG    1       -0.608   6.307   1.489  0.00  0.00    +0.121 A 
ATOM     25  C   LIG    1       -1.504   6.430   2.557  0.00  0.00    +0.005 A 
ATOM     26  C   LIG    1       -0.978   6.344   3.855  0.00  0.00    +0.041 A 
ATOM     27  C   LIG    1        0.394   6.131   3.996  0.00  0.00    +0.110 A 
ATOM     28  N   LIG    1        1.173   5.998   5.121  0.00  0.00    -0.213 NA
ATOM     29  C   LIG    1        2.377   5.783   4.677  0.00  0.00    +0.195 A 
BRANCH  25  30
ATOM     30  C   LIG    1       -2.923   6.644   2.326  0.00  0.00    +0.021 A 
ATOM     31  C   LIG    1       -3.879   6.781   3.313  0.00  0.00    +0.116 A 
ATOM     32  N   LIG    1       -5.073   6.958   2.679  0.00  0.00    -0.274 N 
ATOM     33  C   LIG    1       -6.356   7.131   3.315  0.00  0.00    +0.172 C 
ATOM     34  N   LIG    1       -4.973   6.953   1.340  0.00  0.00    -0.179 NA
ATOM     35  C   LIG    1       -3.668   6.763   1.126  0.00  0.00    +0.143 A 
ENDBRANCH  25  30
BRANCH  29  36
ATOM     36  N   LIG    1        3.463   5.566   5.449  0.00  0.00    -0.329 N 
ATOM     37  H   LIG    1        3.231   5.593   6.439  0.00  0.00    +0.145 HD
ATOM     38  H   LIG    1        3.990   4.720   5.254  0.00  0.00    +0.145 HD
ENDBRANCH  29  36
ENDBRANCH  20  21
ENDBRANCH   5  20
TORSDOF 9
