REMARK  Name = pdb/CHEMBL3981396.pdb
REMARK                            x       y       z     vdW  Elec       q    Type
REMARK                         _______ _______ _______ _____ _____    ______ ____
ROOT
ATOM      1  C   LIG    1        6.928   0.671  -2.257  0.00  0.00    +0.149 A 
ATOM      2  N   LIG    1        8.010  -0.113  -2.340  0.00  0.00    -0.160 NA
ATOM      3  N   LIG    1        9.080   0.723  -2.279  0.00  0.00    -0.218 N 
ATOM      4  C   LIG    1        8.676   2.033  -1.973  0.00  0.00    +0.129 A 
ATOM      5  C   LIG    1        7.300   2.019  -2.075  0.00  0.00    +0.078 A 
ENDROOT
BRANCH   3   6
ATOM      6  C   LIG    1       10.386   0.178  -2.497  0.00  0.00    +0.067 A 
ATOM      7  C   LIG    1       10.521  -1.200  -2.752  0.00  0.00    +0.028 A 
ATOM      8  C   LIG    1       11.783  -1.767  -2.959  0.00  0.00    +0.002 A 
ATOM      9  C   LIG    1       12.925  -0.973  -2.904  0.00  0.00    +0.000 A 
ATOM     10  C   LIG    1       12.804   0.389  -2.675  0.00  0.00    +0.002 A 
ATOM     11  C   LIG    1       11.543   0.963  -2.503  0.00  0.00    +0.028 A 
ENDBRANCH   3   6
BRANCH   4  12
ATOM     12  N   LIG    1        9.446   3.145  -1.592  0.00  0.00    -0.266 N 
ATOM     13  H   LIG    1       10.439   3.011  -1.469  0.00  0.00    +0.157 HD
ATOM     14  C   LIG    1        8.941   4.427  -1.248  0.00  0.00    +0.251 C 
ATOM     15  O   LIG    1        7.730   4.653  -1.251  0.00  0.00    -0.270 OA
BRANCH  14  16
ATOM     16  C   LIG    1        9.868   5.511  -0.890  0.00  0.00    +0.056 A 
ATOM     17  C   LIG    1       11.105   5.309  -0.280  0.00  0.00    +0.054 A 
ATOM     18 CL   LIG    1       11.763   3.755   0.070  0.00  0.00    -0.083 Cl
ATOM     19  C   LIG    1       11.866   6.414   0.100  0.00  0.00    +0.041 A 
ATOM     20  C   LIG    1       11.428   7.729  -0.144  0.00  0.00    +0.052 A 
ATOM     21 CL   LIG    1       12.562   8.946   0.326  0.00  0.00    -0.083 Cl
ATOM     22  C   LIG    1       10.195   7.983  -0.779  0.00  0.00    +0.022 A 
ATOM     23  C   LIG    1        9.439   6.836  -1.133  0.00  0.00    +0.026 A 
BRANCH  22  24
ATOM     24  C   LIG    1        9.654   9.324  -1.150  0.00  0.00    +0.107 A 
ATOM     25  C   LIG    1        9.808  10.503  -0.417  0.00  0.00    +0.149 A 
ATOM     26  F   LIG    1       10.406  10.528   0.780  0.00  0.00    -0.203 F 
ATOM     27  C   LIG    1        9.275  11.700  -0.890  0.00  0.00    +0.042 A 
ATOM     28  C   LIG    1        8.537  11.703  -2.063  0.00  0.00    +0.023 A 
ATOM     29  C   LIG    1        8.376  10.498  -2.722  0.00  0.00    +0.111 A 
ATOM     30  N   LIG    1        8.920   9.327  -2.304  0.00  0.00    -0.252 NA
ENDBRANCH  22  24
ENDBRANCH  14  16
ENDBRANCH   4  12
BRANCH   1  32
ATOM     31  N   LIG    1        4.605   0.943  -2.622  0.00  0.00    -0.249 NA
ATOM     32  C   LIG    1        5.563   0.156  -2.286  0.00  0.00    +0.236 C 
BRANCH  32  33
ATOM     33  O   LIG    1        5.428  -1.115  -1.853  0.00  0.00    -0.491 OA
ATOM     34  H   LIG    1        4.516  -1.326  -1.578  0.00  0.00    +0.294 HD
ENDBRANCH  32  33
BRANCH  31  35
ATOM     35  C   LIG    1        3.224   0.474  -2.666  0.00  0.00    +0.151 C 
BRANCH  35  37
ATOM     36  C   LIG    1        1.037   0.406  -1.428  0.00  0.00    +0.011 C 
ATOM     37  C   LIG    1        2.511   0.814  -1.345  0.00  0.00    +0.033 C 
BRANCH  37  38
ATOM     38  C   LIG    1        3.178   0.139  -0.145  0.00  0.00    +0.160 C 
BRANCH  38  39
ATOM     39  O   LIG    1        3.175  -1.276  -0.323  0.00  0.00    -0.395 OA
ATOM     40  H   LIG    1        2.283  -1.587  -0.073  0.00  0.00    +0.209 HD
ENDBRANCH  38  39
ENDBRANCH  37  38
ENDBRANCH  35  37
ENDBRANCH  31  35
ENDBRANCH   1  32
TORSDOF 10
