REMARK  Name = pdb/CHEMBL3673489.pdb
REMARK                            x       y       z     vdW  Elec       q    Type
REMARK                         _______ _______ _______ _____ _____    ______ ____
ROOT
ATOM      1  C   LIG    1        2.952  -0.913   1.333  0.00  0.00    +0.162 A 
ATOM      2  C   LIG    1        2.909  -2.248   0.884  0.00  0.00    +0.162 A 
ATOM      3  C   LIG    1        3.992  -3.093   1.144  0.00  0.00    +0.050 A 
ATOM      4  C   LIG    1        5.084  -2.653   1.895  0.00  0.00    +0.009 A 
ATOM      5  C   LIG    1        5.140  -1.336   2.365  0.00  0.00    -0.024 A 
ATOM      6  C   LIG    1        4.079  -0.469   2.047  0.00  0.00    +0.054 A 
ENDROOT
BRANCH   1   8
ATOM      7  C   LIG    1        1.873   1.229   1.502  0.00  0.00    +0.277 C 
ATOM      8  O   LIG    1        1.871  -0.120   1.060  0.00  0.00    -0.491 OA
ENDBRANCH   1   8
BRANCH   2   9
ATOM      9  O   LIG    1        1.896  -2.868   0.186  0.00  0.00    -0.484 OA
BRANCH   9  10
ATOM     10  C   LIG    1        0.582  -2.341   0.369  0.00  0.00    +0.264 C 
BRANCH  10  11
ATOM     11  C   LIG    1       -0.455  -3.426   0.206  0.00  0.00    -0.010 A 
ATOM     12  C   LIG    1       -1.176  -3.858   1.328  0.00  0.00    +0.007 A 
ATOM     13  C   LIG    1       -2.117  -4.875   1.218  0.00  0.00    +0.010 A 
ATOM     14  C   LIG    1       -2.353  -5.483  -0.021  0.00  0.00    +0.030 A 
ATOM     15  C   LIG    1       -1.677  -5.013  -1.158  0.00  0.00    +0.010 A 
ATOM     16  C   LIG    1       -0.729  -3.994  -1.044  0.00  0.00    +0.007 A 
BRANCH  14  17
ATOM     17  C   LIG    1       -3.301  -6.659  -0.108  0.00  0.00    +0.367 C 
ATOM     18  F   LIG    1       -3.985  -6.658  -1.299  0.00  0.00    -0.190 F 
ATOM     19  F   LIG    1       -4.295  -6.561   0.837  0.00  0.00    -0.190 F 
BRANCH  17  20
ATOM     20  C   LIG    1       -2.581  -8.025   0.065  0.00  0.00    +0.459 C 
ATOM     21  F   LIG    1       -2.758  -8.829  -1.016  0.00  0.00    -0.165 F 
ATOM     22  F   LIG    1       -3.060  -8.714   1.136  0.00  0.00    -0.165 F 
ATOM     23  F   LIG    1       -1.241  -7.919   0.249  0.00  0.00    -0.165 F 
ENDBRANCH  17  20
ENDBRANCH  14  17
ENDBRANCH  10  11
ENDBRANCH   9  10
ENDBRANCH   2   9
BRANCH   5  24
ATOM     24  C   LIG    1        6.265  -0.874   3.261  0.00  0.00    +0.161 C 
BRANCH  24  25
ATOM     25  N   LIG    1        7.385  -0.268   2.553  0.00  0.00    -0.293 N 
ATOM     26  C   LIG    1        7.567   1.082   2.435  0.00  0.00    +0.162 A 
ATOM     27  N   LIG    1        6.683   2.053   2.703  0.00  0.00    -0.235 NA
ATOM     28  C   LIG    1        7.233   3.293   2.594  0.00  0.00    +0.121 A 
ATOM     29  C   LIG    1        8.545   3.596   2.202  0.00  0.00    +0.005 A 
ATOM     30  C   LIG    1        9.398   2.532   1.873  0.00  0.00    +0.041 A 
ATOM     31  C   LIG    1        8.890   1.225   2.010  0.00  0.00    +0.110 A 
ATOM     32  N   LIG    1        9.479   0.008   1.838  0.00  0.00    -0.213 NA
ATOM     33  C   LIG    1        8.557  -0.874   2.170  0.00  0.00    +0.195 A 
BRANCH  29  34
ATOM     34  C   LIG    1        8.990   4.978   2.189  0.00  0.00    +0.021 A 
ATOM     35  C   LIG    1        9.950   5.506   1.352  0.00  0.00    +0.116 A 
ATOM     36  N   LIG    1       10.038   6.836   1.656  0.00  0.00    -0.274 N 
ATOM     37  C   LIG    1       10.911   7.801   1.033  0.00  0.00    +0.172 C 
ATOM     38  N   LIG    1        9.198   7.218   2.633  0.00  0.00    -0.179 NA
ATOM     39  C   LIG    1        8.565   6.090   2.959  0.00  0.00    +0.143 A 
ENDBRANCH  29  34
BRANCH  33  40
ATOM     40  N   LIG    1        8.721  -2.216   2.166  0.00  0.00    -0.329 N 
ATOM     41  H   LIG    1        9.515  -2.529   1.615  0.00  0.00    +0.145 HD
ATOM     42  H   LIG    1        7.920  -2.821   2.057  0.00  0.00    +0.145 HD
ENDBRANCH  33  40
ENDBRANCH  24  25
ENDBRANCH   5  24
TORSDOF 10
