REMARK  Name = pdb/CHEMBL3673453.pdb
REMARK                            x       y       z     vdW  Elec       q    Type
REMARK                         _______ _______ _______ _____ _____    ______ ____
ROOT
ATOM      1  N   LIG    1        4.978 -12.272  -0.591  0.00  0.00    -0.293 N 
ATOM      2  C   LIG    1        5.551 -13.106   0.336  0.00  0.00    +0.162 A 
ATOM      3  N   LIG    1        6.840 -13.223   0.666  0.00  0.00    -0.235 NA
ATOM      4  C   LIG    1        7.052 -14.173   1.622  0.00  0.00    +0.121 A 
ATOM      5  C   LIG    1        6.084 -14.997   2.224  0.00  0.00    +0.004 A 
ATOM      6  C   LIG    1        4.750 -14.795   1.828  0.00  0.00    +0.041 A 
ATOM      7  C   LIG    1        4.476 -13.831   0.850  0.00  0.00    +0.110 A 
ATOM      8  N   LIG    1        3.294 -13.440   0.278  0.00  0.00    -0.213 NA
ATOM      9  C   LIG    1        3.624 -12.514  -0.588  0.00  0.00    +0.195 A 
ENDROOT
BRANCH   5  10
ATOM     10  C   LIG    1        6.448 -16.029   3.218  0.00  0.00    +0.002 A 
ATOM     11  C   LIG    1        7.682 -16.681   3.206  0.00  0.00    +0.120 A 
ATOM     12  N   LIG    1        8.082 -17.617   4.101  0.00  0.00    -0.252 NA
ATOM     13  C   LIG    1        7.199 -17.986   5.062  0.00  0.00    +0.100 A 
ATOM     14  C   LIG    1        5.934 -17.420   5.144  0.00  0.00    +0.032 A 
ATOM     15  C   LIG    1        5.569 -16.431   4.231  0.00  0.00    +0.012 A 
BRANCH  13  16
ATOM     16  P   LIG    1        7.719 -19.202   6.248  0.00  0.00    +0.128 P 
ATOM     17  C   LIG    1        7.044 -18.759   7.860  0.00  0.00    +0.087 C 
ATOM     18  C   LIG    1        9.489 -19.014   6.515  0.00  0.00    +0.087 C 
ATOM     19  O   LIG    1        7.376 -20.641   5.946  0.00  0.00    -0.315 OA
ENDBRANCH  13  16
ENDBRANCH   5  10
BRANCH   9  20
ATOM     20  N   LIG    1        2.773 -11.876  -1.394  0.00  0.00    -0.329 N 
ATOM     21  H   LIG    1        1.789 -12.034  -1.188  0.00  0.00    +0.145 HD
ATOM     22  H   LIG    1        2.938 -10.892  -1.617  0.00  0.00    +0.145 HD
ENDBRANCH   9  20
BRANCH   1  23
ATOM     23  C   LIG    1        5.721 -11.394  -1.481  0.00  0.00    +0.161 C 
BRANCH  23  27
ATOM     24  C   LIG    1        6.253  -7.412   0.151  0.00  0.00    +0.162 A 
ATOM     25  C   LIG    1        6.739  -8.534   0.850  0.00  0.00    +0.162 A 
ATOM     26  C   LIG    1        6.552  -9.802   0.299  0.00  0.00    +0.054 A 
ATOM     27  C   LIG    1        5.869  -9.996  -0.912  0.00  0.00    -0.024 A 
ATOM     28  C   LIG    1        5.370  -8.877  -1.586  0.00  0.00    +0.009 A 
ATOM     29  C   LIG    1        5.558  -7.597  -1.052  0.00  0.00    +0.050 A 
BRANCH  25  30
ATOM     30  O   LIG    1        7.326  -8.348   2.070  0.00  0.00    -0.491 OA
ATOM     31  C   LIG    1        8.016  -9.432   2.677  0.00  0.00    +0.277 C 
ENDBRANCH  25  30
BRANCH  24  32
ATOM     32  O   LIG    1        6.358  -6.095   0.546  0.00  0.00    -0.484 OA
BRANCH  32  33
ATOM     33  C   LIG    1        7.578  -5.784   1.213  0.00  0.00    +0.264 C 
BRANCH  33  37
ATOM     34  C   LIG    1        8.281  -1.665   2.208  0.00  0.00    +0.120 A 
ATOM     35  C   LIG    1        7.618  -2.494   3.115  0.00  0.00    +0.046 A 
ATOM     36  C   LIG    1        7.313  -3.807   2.758  0.00  0.00    +0.010 A 
ATOM     37  C   LIG    1        7.703  -4.312   1.507  0.00  0.00    -0.010 A 
ATOM     38  C   LIG    1        8.327  -3.467   0.590  0.00  0.00    +0.010 A 
ATOM     39  C   LIG    1        8.630  -2.156   0.947  0.00  0.00    +0.046 A 
BRANCH  34  41
ATOM     40  C   LIG    1        8.735   0.562   1.617  0.00  0.00    +0.277 C 
ATOM     41  O   LIG    1        8.587  -0.405   2.652  0.00  0.00    -0.495 OA
ENDBRANCH  34  41
ENDBRANCH  33  37
ENDBRANCH  32  33
ENDBRANCH  24  32
ENDBRANCH  23  27
ENDBRANCH   1  23
TORSDOF 10
