REMARK  Name = pdb/CHEMBL3978342.pdb
REMARK                            x       y       z     vdW  Elec       q    Type
REMARK                         _______ _______ _______ _____ _____    ______ ____
ROOT
ATOM      1  C   LIG    1        2.944  -4.320  -1.010  0.00  0.00    +0.126 A 
ATOM      2  N   LIG    1        2.224  -3.316  -1.466  0.00  0.00    -0.211 NA
ATOM      3  C   LIG    1        1.107  -3.606  -2.214  0.00  0.00    +0.179 A 
ATOM      4  C   LIG    1        0.160  -2.811  -2.831  0.00  0.00    +0.098 A 
ATOM      5  C   LIG    1       -0.717  -3.715  -3.464  0.00  0.00    +0.160 A 
ATOM      6  N   LIG    1       -0.382  -4.990  -3.265  0.00  0.00    -0.171 NA
ATOM      7  N   LIG    1        0.731  -4.920  -2.500  0.00  0.00    -0.220 N 
ATOM      8  C   LIG    1        1.473  -5.983  -2.020  0.00  0.00    +0.118 A 
ATOM      9  C   LIG    1        2.563  -5.760  -1.281  0.00  0.00    +0.063 A 
ENDROOT
BRANCH   1  11
ATOM     10  C   LIG    1        4.584  -2.706   0.025  0.00  0.00    +0.108 C 
ATOM     11  N   LIG    1        4.099  -4.063  -0.283  0.00  0.00    -0.308 N 
ATOM     12  C   LIG    1        4.867  -5.072   0.445  0.00  0.00    +0.107 C 
ATOM     13  C   LIG    1        5.955  -4.299   1.176  0.00  0.00    +0.021 C 
ATOM     14  C   LIG    1        5.323  -2.931   1.360  0.00  0.00    +0.029 C 
BRANCH  10  18
ATOM     15  F   LIG    1        6.617  -2.878  -4.466  0.00  0.00    -0.205 F 
ATOM     16  C   LIG    1        6.463  -2.236  -3.301  0.00  0.00    +0.124 A 
ATOM     17  C   LIG    1        5.665  -2.801  -2.309  0.00  0.00    +0.046 A 
ATOM     18  C   LIG    1        5.479  -2.151  -1.076  0.00  0.00    +0.011 A 
ATOM     19  C   LIG    1        6.117  -0.914  -0.901  0.00  0.00    +0.129 A 
ATOM     20  F   LIG    1        5.954  -0.232   0.242  0.00  0.00    -0.205 F 
ATOM     21  C   LIG    1        6.925  -0.352  -1.893  0.00  0.00    +0.041 A 
ATOM     22  C   LIG    1        7.098  -1.018  -3.103  0.00  0.00    +0.041 A 
ENDBRANCH  10  18
ENDBRANCH   1  11
BRANCH   4  23
ATOM     23  N   LIG    1        0.142  -1.427  -2.798  0.00  0.00    -0.276 N 
ATOM     24  H   LIG    1        0.879  -0.959  -2.271  0.00  0.00    +0.155 HD
ATOM     25  C   LIG    1       -0.811  -0.655  -3.428  0.00  0.00    +0.267 C 
ATOM     26  O   LIG    1       -1.756  -1.078  -4.096  0.00  0.00    -0.268 OA
BRANCH  25  27
ATOM     27  C   LIG    1       -0.642   0.820  -3.257  0.00  0.00    +0.126 A 
ATOM     28  N   LIG    1        0.419   1.235  -2.505  0.00  0.00    -0.249 NA
ATOM     29  C   LIG    1        0.555   2.580  -2.364  0.00  0.00    +0.131 A 
ATOM     30  C   LIG    1       -0.302   3.516  -2.929  0.00  0.00    +0.059 A 
ATOM     31 CL   LIG    1       -0.049   5.197  -2.699  0.00  0.00    -0.082 Cl
ATOM     32  C   LIG    1       -1.374   3.061  -3.689  0.00  0.00    +0.024 A 
ATOM     33  C   LIG    1       -1.547   1.690  -3.857  0.00  0.00    +0.034 A 
ENDBRANCH  25  27
ENDBRANCH   4  23
TORSDOF 4
