REMARK  Name = pdb/CHEMBL3935820.pdb
REMARK                            x       y       z     vdW  Elec       q    Type
REMARK                         _______ _______ _______ _____ _____    ______ ____
ROOT
ATOM      1  C   LIG    1        1.924   1.771  -1.963  0.00  0.00    +0.133 A 
ATOM      2  C   LIG    1        1.086   1.485  -3.009  0.00  0.00    +0.183 A 
ATOM      3  N   LIG    1        0.580   0.300  -3.473  0.00  0.00    -0.211 NA
ATOM      4  C   LIG    1       -0.205   0.318  -4.526  0.00  0.00    +0.126 A 
ATOM      5  C   LIG    1       -0.467   1.598  -5.282  0.00  0.00    +0.063 A 
ATOM      6  C   LIG    1        0.069   2.726  -4.795  0.00  0.00    +0.118 A 
ATOM      7  N   LIG    1        0.832   2.698  -3.640  0.00  0.00    -0.220 N 
ATOM      8  N   LIG    1        1.411   3.742  -2.993  0.00  0.00    -0.171 NA
ATOM      9  C   LIG    1        2.035   3.173  -1.955  0.00  0.00    +0.165 A 
ENDROOT
BRANCH   4  10
ATOM     10  N   LIG    1       -0.767  -0.876  -4.952  0.00  0.00    -0.308 N 
ATOM     11  C   LIG    1       -0.462  -2.154  -4.278  0.00  0.00    +0.108 C 
ATOM     12  C   LIG    1       -1.721  -3.023  -4.478  0.00  0.00    +0.029 C 
ATOM     13  C   LIG    1       -2.801  -2.034  -4.873  0.00  0.00    +0.021 C 
ATOM     14  C   LIG    1       -2.031  -0.994  -5.671  0.00  0.00    +0.107 C 
BRANCH  11  15
ATOM     15  C   LIG    1        0.731  -2.843  -4.901  0.00  0.00    +0.011 A 
ATOM     16  C   LIG    1        1.429  -3.795  -4.152  0.00  0.00    +0.129 A 
ATOM     17  F   LIG    1        1.121  -3.984  -2.861  0.00  0.00    -0.205 F 
ATOM     18  C   LIG    1        2.417  -4.592  -4.728  0.00  0.00    +0.041 A 
ATOM     19  C   LIG    1        2.731  -4.434  -6.077  0.00  0.00    +0.041 A 
ATOM     20  C   LIG    1        2.086  -3.451  -6.817  0.00  0.00    +0.124 A 
ATOM     21  F   LIG    1        2.406  -3.277  -8.106  0.00  0.00    -0.205 F 
ATOM     22  C   LIG    1        1.095  -2.660  -6.247  0.00  0.00    +0.046 A 
ENDBRANCH  11  15
ENDBRANCH   4  10
BRANCH   1  24
ATOM     23  C   LIG    1        2.899  -0.255  -1.298  0.00  0.00    +0.285 C 
ATOM     24  N   LIG    1        2.495   0.931  -1.004  0.00  0.00    -0.194 NA
BRANCH  23  25
ATOM     25  O   LIG    1        2.799  -0.848  -2.505  0.00  0.00    -0.481 OA
ATOM     26  H   LIG    1        2.145  -0.387  -3.063  0.00  0.00    +0.295 HD
ENDBRANCH  23  25
BRANCH  23  27
ATOM     27  N   LIG    1        3.527  -1.153  -0.483  0.00  0.00    -0.269 N 
ATOM     28  H   LIG    1        3.732  -2.028  -0.939  0.00  0.00    +0.157 HD
BRANCH  27  29
ATOM     29  C   LIG    1        3.760  -1.095   0.896  0.00  0.00    +0.035 A 
ATOM     30  C   LIG    1        4.505  -2.123   1.500  0.00  0.00    +0.026 A 
ATOM     31  C   LIG    1        4.751  -2.118   2.877  0.00  0.00    +0.040 A 
ATOM     32  C   LIG    1        4.285  -1.064   3.651  0.00  0.00    +0.124 A 
ATOM     33  F   LIG    1        4.495  -1.068   4.973  0.00  0.00    -0.205 F 
ATOM     34  C   LIG    1        3.598  -0.010   3.072  0.00  0.00    +0.040 A 
ATOM     35  C   LIG    1        3.329  -0.036   1.704  0.00  0.00    +0.026 A 
ENDBRANCH  27  29
ENDBRANCH  23  27
ENDBRANCH   1  24
TORSDOF 6
