REMARK  Name = pdb/CHEMBL378978.pdb
REMARK                            x       y       z     vdW  Elec       q    Type
REMARK                         _______ _______ _______ _____ _____    ______ ____
ROOT
ATOM      1  C   LIG    1        5.532  -2.203   1.544  0.00  0.00    +0.106 A 
ATOM      2  C   LIG    1        4.746  -3.301   1.194  0.00  0.00    +0.098 A 
ATOM      3  C   LIG    1        5.214  -4.446   1.939  0.00  0.00    +0.120 A 
ATOM      4  N   LIG    1        6.219  -4.262   2.786  0.00  0.00    -0.202 NA
ATOM      5  S   LIG    1        6.655  -2.676   2.735  0.00  0.00    +0.029 S 
ENDROOT
BRANCH   1  10
ATOM      6  C   LIG    1        6.972   2.409   0.876  0.00  0.00    +0.129 C 
ATOM      7  N   LIG    1        6.077   1.283   0.738  0.00  0.00    -0.302 N 
ATOM      8  H   LIG    1        5.091   1.484   0.667  0.00  0.00    +0.150 HD
ATOM      9  C   LIG    1        6.433   0.068   1.288  0.00  0.00    +0.304 C 
ATOM     10  N   LIG    1        5.449  -0.885   1.103  0.00  0.00    -0.262 N 
ATOM     11  H   LIG    1        4.729  -0.684   0.416  0.00  0.00    +0.157 HD
ATOM     12  O   LIG    1        7.517  -0.093   1.833  0.00  0.00    -0.253 OA
ENDBRANCH   1  10
BRANCH   2  13
ATOM     13  C   LIG    1        3.662  -3.220   0.233  0.00  0.00    +0.246 C 
ATOM     14  N   LIG    1        2.674  -4.150   0.333  0.00  0.00    -0.325 N 
ATOM     15  H   LIG    1        1.896  -4.115  -0.311  0.00  0.00    +0.145 HD
ATOM     16  H   LIG    1        2.779  -4.979   0.910  0.00  0.00    +0.145 HD
ATOM     17  O   LIG    1        3.591  -2.330  -0.624  0.00  0.00    -0.270 OA
ENDBRANCH   2  13
BRANCH   3  18
ATOM     18  S   LIG    1        4.543  -6.073   1.850  0.00  0.00    -0.100 S 
BRANCH  18  19
ATOM     19  C   LIG    1        6.017  -6.998   1.314  0.00  0.00    +0.111 C 
BRANCH  19  20
ATOM     20  C   LIG    1        5.704  -8.469   1.165  0.00  0.00    -0.037 A 
ATOM     21  C   LIG    1        4.891  -8.922   0.113  0.00  0.00    +0.006 A 
ATOM     22  C   LIG    1        4.607 -10.281  -0.029  0.00  0.00    +0.020 A 
ATOM     23  C   LIG    1        5.131 -11.196   0.881  0.00  0.00    +0.041 A 
ATOM     24 CL   LIG    1        4.785 -12.872   0.699  0.00  0.00    -0.084 Cl
ATOM     25  C   LIG    1        5.930 -10.763   1.936  0.00  0.00    +0.020 A 
ATOM     26  C   LIG    1        6.214  -9.403   2.080  0.00  0.00    +0.006 A 
ENDBRANCH  19  20
ENDBRANCH  18  19
ENDBRANCH   3  18
TORSDOF 5
