REMARK  Name = pdb/CHEMBL365585.pdb
REMARK                            x       y       z     vdW  Elec       q    Type
REMARK                         _______ _______ _______ _____ _____    ______ ____
ROOT
ATOM      1  N   LIG    1        5.037   1.426   3.084  0.00  0.00    -0.311 N 
ATOM      2  C   LIG    1        5.142   1.071   4.411  0.00  0.00    +0.077 A 
ATOM      3  C   LIG    1        4.635   0.041   5.183  0.00  0.00    +0.072 A 
ATOM      4  N   LIG    1        3.784  -0.990   4.912  0.00  0.00    -0.352 N 
ATOM      5  H   LIG    1        3.367  -1.159   4.006  0.00  0.00    +0.166 HD
ATOM      6  C   LIG    1        3.584  -1.767   6.047  0.00  0.00    +0.048 A 
ATOM      7  C   LIG    1        2.815  -2.927   6.205  0.00  0.00    +0.026 A 
ATOM      8  C   LIG    1        2.773  -3.511   7.473  0.00  0.00    +0.002 A 
ATOM      9  C   LIG    1        3.469  -2.955   8.544  0.00  0.00    +0.001 A 
ATOM     10  C   LIG    1        4.235  -1.793   8.378  0.00  0.00    +0.010 A 
ATOM     11  C   LIG    1        4.302  -1.185   7.109  0.00  0.00    +0.008 A 
ATOM     12  C   LIG    1        4.906  -0.086   6.506  0.00  0.00    +0.015 A 
ATOM     13  C   LIG    1        5.720   0.877   7.132  0.00  0.00    -0.008 A 
ATOM     14  C   LIG    1        6.113   0.962   8.543  0.00  0.00    +0.141 C 
ATOM     15  N   LIG    1        6.893   2.177   8.506  0.00  0.00    -0.307 N 
ATOM     16  H   LIG    1        7.347   2.591   9.307  0.00  0.00    +0.149 HD
ATOM     17  C   LIG    1        7.001   2.800   7.267  0.00  0.00    +0.245 C 
ATOM     18  O   LIG    1        7.647   3.832   7.142  0.00  0.00    -0.270 OA
ATOM     19  C   LIG    1        6.239   1.963   6.374  0.00  0.00    +0.052 A 
ATOM     20  C   LIG    1        5.926   2.033   4.986  0.00  0.00    +0.022 A 
ATOM     21  C   LIG    1        6.273   3.062   4.116  0.00  0.00    +0.008 A 
ATOM     22  C   LIG    1        7.001   4.270   4.143  0.00  0.00    +0.010 A 
ATOM     23  C   LIG    1        7.063   5.085   3.008  0.00  0.00    +0.001 A 
ATOM     24  C   LIG    1        6.400   4.727   1.845  0.00  0.00    +0.002 A 
ATOM     25  C   LIG    1        5.675   3.536   1.779  0.00  0.00    +0.026 A 
ATOM     26  C   LIG    1        5.635   2.696   2.912  0.00  0.00    +0.052 A 
ENDROOT
BRANCH   1  31
ATOM     27  C   LIG    1        4.303  -2.914   2.087  0.00  0.00    +0.044 C 
ATOM     28  C   LIG    1        4.222  -1.565   1.367  0.00  0.00    +0.097 C 
ATOM     29  C   LIG    1        5.566  -1.059   0.807  0.00  0.00    +0.121 C 
ATOM     30  C   LIG    1        5.370   0.445   0.787  0.00  0.00    +0.094 C 
ATOM     31  C   LIG    1        4.414   0.716   1.957  0.00  0.00    +0.223 C 
ATOM     32  O   LIG    1        3.863  -0.561   2.353  0.00  0.00    -0.348 OA
ATOM     33  C   LIG    1        3.079  -1.612   0.342  0.00  0.00    +0.044 C 
BRANCH  29  34
ATOM     34  O   LIG    1        6.648  -1.359   1.711  0.00  0.00    -0.383 OA
ATOM     35  H   LIG    1        6.404  -1.056   2.607  0.00  0.00    +0.210 HD
ENDBRANCH  29  34
BRANCH  29  36
ATOM     36  C   LIG    1        5.981  -1.602  -0.565  0.00  0.00    +0.193 C 
BRANCH  36  37
ATOM     37  O   LIG    1        6.183  -3.011  -0.502  0.00  0.00    -0.392 OA
ATOM     38  H   LIG    1        6.821  -3.144   0.227  0.00  0.00    +0.210 HD
ENDBRANCH  36  37
ENDBRANCH  29  36
ENDBRANCH   1  31
TORSDOF 4
