REMARK  Name = pdb/CHEMBL3676097.pdb
REMARK                            x       y       z     vdW  Elec       q    Type
REMARK                         _______ _______ _______ _____ _____    ______ ____
ROOT
ATOM      1  C   LIG    1        3.879  -3.172   2.666  0.00  0.00    +0.100 A 
ATOM      2  C   LIG    1        4.746  -3.366   3.729  0.00  0.00    +0.170 A 
ATOM      3  N   LIG    1        5.464  -2.486   4.488  0.00  0.00    -0.212 NA
ATOM      4  C   LIG    1        6.137  -2.953   5.521  0.00  0.00    +0.126 A 
ATOM      5  C   LIG    1        6.162  -4.426   5.854  0.00  0.00    +0.063 A 
ATOM      6  C   LIG    1        5.475  -5.245   5.051  0.00  0.00    +0.118 A 
ATOM      7  N   LIG    1        4.763  -4.738   3.975  0.00  0.00    -0.221 N 
ATOM      8  N   LIG    1        4.019  -5.426   3.078  0.00  0.00    -0.173 NA
ATOM      9  C   LIG    1        3.487  -4.479   2.306  0.00  0.00    +0.150 A 
ENDROOT
BRANCH   4  10
ATOM     10  N   LIG    1        6.835  -2.045   6.306  0.00  0.00    -0.308 N 
ATOM     11  C   LIG    1        7.051  -2.241   7.758  0.00  0.00    +0.110 C 
ATOM     12  C   LIG    1        6.702  -0.854   8.328  0.00  0.00    +0.029 C 
ATOM     13  C   LIG    1        7.175   0.114   7.257  0.00  0.00    +0.021 C 
ATOM     14  C   LIG    1        6.811  -0.612   5.971  0.00  0.00    +0.107 C 
BRANCH  11  15
ATOM     15  C   LIG    1        8.460  -2.758   8.006  0.00  0.00    +0.040 A 
ATOM     16  C   LIG    1        8.648  -3.702   9.174  0.00  0.00    +0.256 A 
ATOM     17  O   LIG    1        7.710  -3.935   9.933  0.00  0.00    -0.267 OA
ATOM     18  N   LIG    1        9.913  -4.294   9.313  0.00  0.00    -0.315 N 
ATOM     19  C   LIG    1       10.126  -5.213  10.422  0.00  0.00    +0.152 C 
ATOM     20  C   LIG    1       10.958  -4.017   8.450  0.00  0.00    +0.127 A 
ATOM     21  C   LIG    1       10.787  -3.177   7.428  0.00  0.00    +0.140 A 
ATOM     22  F   LIG    1       11.795  -2.915   6.573  0.00  0.00    -0.204 F 
ATOM     23  C   LIG    1        9.517  -2.555   7.195  0.00  0.00    +0.050 A 
ENDBRANCH  11  15
ENDBRANCH   4  10
BRANCH   1  26
ATOM     24  N   LIG    1        3.980  -0.789   2.620  0.00  0.00    -0.308 N 
ATOM     25  H   LIG    1        4.632  -0.926   3.391  0.00  0.00    +0.149 HD
ATOM     26  C   LIG    1        3.457  -1.925   2.058  0.00  0.00    +0.249 C 
ATOM     27  O   LIG    1        2.667  -1.905   1.105  0.00  0.00    -0.270 OA
BRANCH  24  29
ATOM     28  C   LIG    1        4.718   0.966   1.055  0.00  0.00    +0.028 C 
ATOM     29  C   LIG    1        3.713   0.550   2.129  0.00  0.00    +0.073 C 
BRANCH  29  30
ATOM     30  C   LIG    1        3.756   1.504   3.297  0.00  0.00    +0.009 C 
ATOM     31  C   LIG    1        2.470   2.069   3.850  0.00  0.00    +0.005 C 
ATOM     32  C   LIG    1        3.427   2.968   3.123  0.00  0.00    +0.005 C 
ENDBRANCH  29  30
ENDBRANCH  24  29
ENDBRANCH   1  26
TORSDOF 5
