REMARK  Name = pdb/CHEMBL3975658.pdb
REMARK                            x       y       z     vdW  Elec       q    Type
REMARK                         _______ _______ _______ _____ _____    ______ ____
ROOT
ATOM      1  C   LIG    1        4.523  -9.713  -1.750  0.00  0.00    +0.323 A 
ATOM      2  N   LIG    1        3.345  -9.111  -1.528  0.00  0.00    -0.201 NA
ATOM      3  C   LIG    1        2.276  -9.671  -2.148  0.00  0.00    +0.145 A 
ATOM      4  C   LIG    1        2.326 -10.776  -3.017  0.00  0.00    +0.105 A 
ATOM      5  C   LIG    1        3.604 -11.306  -3.089  0.00  0.00    +0.145 A 
ATOM      6  N   LIG    1        4.667 -10.837  -2.455  0.00  0.00    -0.201 NA
ENDROOT
BRANCH   4   7
ATOM      7  N   LIG    1        1.201 -11.217  -3.647  0.00  0.00    -0.196 NA
ATOM      8  C   LIG    1        1.066 -12.161  -4.551  0.00  0.00    +0.285 C 
BRANCH   8   9
ATOM      9  N   LIG    1       -0.037 -12.585  -5.185  0.00  0.00    -0.269 N 
ATOM     10  H   LIG    1        0.308 -12.905  -6.079  0.00  0.00    +0.157 HD
BRANCH   9  11
ATOM     11  C   LIG    1       -1.324 -12.009  -5.315  0.00  0.00    +0.043 A 
ATOM     12  C   LIG    1       -2.329 -12.522  -6.202  0.00  0.00    +0.004 A 
ATOM     13  C   LIG    1       -3.520 -11.756  -6.212  0.00  0.00    +0.011 A 
ATOM     14  C   LIG    1       -3.762 -10.638  -5.390  0.00  0.00    +0.013 A 
ATOM     15  C   LIG    1       -2.805 -10.209  -4.492  0.00  0.00    +0.057 A 
ATOM     16  C   LIG    1       -1.614 -10.919  -4.459  0.00  0.00    +0.036 A 
BRANCH  12  17
ATOM     17  C   LIG    1       -2.202 -13.740  -7.154  0.00  0.00    -0.013 A 
ATOM     18  C   LIG    1       -3.286 -14.561  -7.615  0.00  0.00    -0.043 A 
ATOM     19  C   LIG    1       -4.733 -14.481  -7.178  0.00  0.00    +0.044 C 
ATOM     20  C   LIG    1       -3.061 -15.594  -8.575  0.00  0.00    +0.004 A 
ATOM     21  C   LIG    1       -1.811 -15.863  -9.104  0.00  0.00    +0.000 A 
ATOM     22  C   LIG    1       -0.745 -15.125  -8.655  0.00  0.00    +0.001 A 
ATOM     23  C   LIG    1       -0.950 -14.096  -7.724  0.00  0.00    +0.009 A 
ENDBRANCH  12  17
BRANCH  15  24
ATOM     24  C   LIG    1       -2.991  -9.016  -3.592  0.00  0.00    +0.417 C 
ATOM     25  F   LIG    1       -4.005  -9.187  -2.703  0.00  0.00    -0.166 F 
ATOM     26  F   LIG    1       -3.278  -7.880  -4.285  0.00  0.00    -0.166 F 
ATOM     27  F   LIG    1       -1.888  -8.718  -2.844  0.00  0.00    -0.166 F 
ENDBRANCH  15  24
ENDBRANCH   9  11
ENDBRANCH   8   9
BRANCH   8  28
ATOM     28  O   LIG    1        2.067 -12.856  -5.086  0.00  0.00    -0.481 OA
ATOM     29  H   LIG    1        2.901 -12.387  -5.124  0.00  0.00    +0.295 HD
ENDBRANCH   8  28
ENDBRANCH   4   7
BRANCH   1  30
ATOM     30  O   LIG    1        5.658  -9.141  -1.212  0.00  0.00    -0.424 OA
BRANCH  30  34
ATOM     31  C   LIG    1        9.396  -9.231  -3.130  0.00  0.00    -0.013 A 
ATOM     32  C   LIG    1        9.233  -8.770  -1.814  0.00  0.00    +0.012 A 
ATOM     33  C   LIG    1        7.975  -8.798  -1.196  0.00  0.00    +0.047 A 
ATOM     34  C   LIG    1        6.861  -9.277  -1.884  0.00  0.00    +0.132 A 
ATOM     35  C   LIG    1        7.045  -9.770  -3.182  0.00  0.00    +0.047 A 
ATOM     36  C   LIG    1        8.295  -9.761  -3.789  0.00  0.00    +0.012 A 
BRANCH  31  40
ATOM     37  C   LIG    1       10.560  -8.994  -7.461  0.00  0.00    +0.125 A 
ATOM     38  N   LIG    1       10.042  -9.037  -6.252  0.00  0.00    -0.213 NA
ATOM     39  C   LIG    1       10.892  -9.127  -5.168  0.00  0.00    +0.165 A 
ATOM     40  C   LIG    1       10.683  -9.195  -3.795  0.00  0.00    +0.046 A 
ATOM     41  C   LIG    1       11.974  -9.271  -3.238  0.00  0.00    +0.145 A 
ATOM     42  N   LIG    1       12.940  -9.263  -4.154  0.00  0.00    -0.173 NA
ATOM     43  N   LIG    1       12.276  -9.188  -5.332  0.00  0.00    -0.221 N 
ATOM     44  C   LIG    1       12.832  -9.196  -6.598  0.00  0.00    +0.118 A 
ATOM     45  C   LIG    1       12.051  -9.104  -7.678  0.00  0.00    +0.063 A 
BRANCH  37  47
ATOM     46  C   LIG    1       10.192  -8.249  -9.805  0.00  0.00    +0.130 C 
ATOM     47  N   LIG    1        9.721  -8.856  -8.568  0.00  0.00    -0.321 N 
ATOM     48  C   LIG    1        8.539  -9.701  -8.697  0.00  0.00    +0.130 C 
ENDBRANCH  37  47
ENDBRANCH  31  40
ENDBRANCH  30  34
ENDBRANCH   1  30
TORSDOF 10
