REMARK  Name = pdb/CHEMBL3666257.pdb
REMARK                            x       y       z     vdW  Elec       q    Type
REMARK                         _______ _______ _______ _____ _____    ______ ____
ROOT
ATOM      1  C   LIG    1        4.490   2.485  -5.100  0.00  0.00    +0.042 A 
ATOM      2  C   LIG    1        4.572   2.325  -6.487  0.00  0.00    +0.038 A 
ATOM      3  C   LIG    1        4.721   3.441  -7.313  0.00  0.00    +0.052 A 
ATOM      4  C   LIG    1        4.757   4.689  -6.698  0.00  0.00    +0.134 A 
ATOM      5  N   LIG    1        4.638   4.876  -5.356  0.00  0.00    -0.261 NA
ATOM      6  C   LIG    1        4.491   3.771  -4.587  0.00  0.00    +0.122 A 
ENDROOT
BRANCH   3   7
ATOM      7  N   LIG    1        4.821   3.199  -8.698  0.00  0.00    -0.283 N 
ATOM      8  H   LIG    1        4.662   2.242  -9.004  0.00  0.00    +0.155 HD
ATOM      9  C   LIG    1        5.010   4.135  -9.697  0.00  0.00    +0.239 C 
ATOM     10  O   LIG    1        5.143   5.346  -9.527  0.00  0.00    -0.273 OA
BRANCH   9  11
ATOM     11  C   LIG    1        5.076   3.528 -11.079  0.00  0.00    +0.239 C 
BRANCH  11  12
ATOM     12  N   LIG    1        3.750   3.397 -11.635  0.00  0.00    -0.262 N 
ATOM     13  N   LIG    1        3.022   2.293 -11.371  0.00  0.00    -0.176 NA
ATOM     14  C   LIG    1        1.888   2.501 -12.052  0.00  0.00    +0.066 A 
ATOM     15  C   LIG    1        1.896   3.726 -12.748  0.00  0.00    +0.044 A 
ATOM     16  C   LIG    1        3.118   4.284 -12.457  0.00  0.00    +0.109 A 
BRANCH  14  17
ATOM     17  C   LIG    1        0.709   1.541 -12.082  0.00  0.00    +0.040 C 
ATOM     18  C   LIG    1        0.365   0.778 -10.819  0.00  0.00    +0.010 C 
ATOM     19  C   LIG    1        0.969   0.053 -11.972  0.00  0.00    +0.010 C 
ENDBRANCH  14  17
ENDBRANCH  11  12
ENDBRANCH   9  11
ENDBRANCH   3   7
BRANCH   1  20
ATOM     20  C   LIG    1        4.360   1.331  -4.184  0.00  0.00    +0.197 C 
ATOM     21  O   LIG    1        3.638   1.442  -3.198  0.00  0.00    -0.287 OA
BRANCH  20  29
ATOM     22  N   LIG    1        6.616  -1.378  -5.204  0.00  0.00    -0.329 N 
ATOM     23  C   LIG    1        5.650  -2.108  -4.560  0.00  0.00    +0.147 A 
ATOM     24  N   LIG    1        5.639  -3.442  -4.416  0.00  0.00    -0.197 NA
ATOM     25  C   LIG    1        4.597  -3.885  -3.707  0.00  0.00    +0.214 A 
ATOM     26  N   LIG    1        3.607  -3.140  -3.192  0.00  0.00    -0.222 NA
ATOM     27  C   LIG    1        3.653  -1.796  -3.355  0.00  0.00    +0.126 A 
ATOM     28  C   LIG    1        4.699  -1.223  -4.073  0.00  0.00    +0.048 A 
ATOM     29  C   LIG    1        5.076   0.092  -4.481  0.00  0.00    +0.051 A 
ATOM     30  C   LIG    1        6.269  -0.045  -5.179  0.00  0.00    +0.100 A 
BRANCH  22  32
ATOM     31  C   LIG    1        8.749  -2.557  -4.738  0.00  0.00    +0.030 C 
ATOM     32  C   LIG    1        7.848  -1.904  -5.789  0.00  0.00    +0.083 C 
ATOM     33  C   LIG    1        7.581  -2.843  -6.966  0.00  0.00    +0.030 C 
ENDBRANCH  22  32
BRANCH  25  34
ATOM     34  N   LIG    1        4.496  -5.252  -3.539  0.00  0.00    -0.327 N 
ATOM     35  H   LIG    1        4.981  -5.720  -4.291  0.00  0.00    +0.145 HD
ATOM     36  H   LIG    1        3.525  -5.495  -3.392  0.00  0.00    +0.145 HD
ENDBRANCH  25  34
ENDBRANCH  20  29
ENDBRANCH   1  20
TORSDOF 8
