REMARK  Name = pdb/CHEMBL3675966.pdb
REMARK                            x       y       z     vdW  Elec       q    Type
REMARK                         _______ _______ _______ _____ _____    ______ ____
ROOT
ATOM      1  C   LIG    1        3.962   0.208   3.853  0.00  0.00    +0.100 A 
ATOM      2  C   LIG    1        3.918   1.206   4.813  0.00  0.00    +0.170 A 
ATOM      3  N   LIG    1        3.846   2.579   4.741  0.00  0.00    -0.212 NA
ATOM      4  C   LIG    1        3.777   3.260   5.870  0.00  0.00    +0.126 A 
ATOM      5  C   LIG    1        3.737   2.567   7.215  0.00  0.00    +0.063 A 
ATOM      6  C   LIG    1        3.840   1.236   7.230  0.00  0.00    +0.118 A 
ATOM      7  N   LIG    1        3.948   0.538   6.045  0.00  0.00    -0.221 N 
ATOM      8  N   LIG    1        4.079  -0.799   5.908  0.00  0.00    -0.173 NA
ATOM      9  C   LIG    1        4.090  -0.989   4.591  0.00  0.00    +0.150 A 
ENDROOT
BRANCH   4  10
ATOM     10  N   LIG    1        3.752   4.648   5.827  0.00  0.00    -0.308 N 
ATOM     11  C   LIG    1        3.537   5.535   6.974  0.00  0.00    +0.107 C 
ATOM     12  C   LIG    1        3.155   6.880   6.338  0.00  0.00    +0.029 C 
ATOM     13  C   LIG    1        3.910   6.869   5.020  0.00  0.00    +0.021 C 
ATOM     14  C   LIG    1        3.799   5.411   4.578  0.00  0.00    +0.107 C 
BRANCH  11  15
ATOM     15  C   LIG    1        4.768   5.672   7.843  0.00  0.00    -0.006 A 
ATOM     16  C   LIG    1        6.076   5.557   7.351  0.00  0.00    +0.046 A 
ATOM     17  C   LIG    1        7.149   5.798   8.193  0.00  0.00    +0.142 A 
ATOM     18  F   LIG    1        8.401   5.726   7.727  0.00  0.00    -0.204 F 
ATOM     19  C   LIG    1        6.903   6.134   9.511  0.00  0.00    +0.149 A 
ATOM     20  N   LIG    1        5.659   6.222  10.039  0.00  0.00    -0.260 NA
ATOM     21  C   LIG    1        4.626   5.990   9.195  0.00  0.00    +0.116 A 
ENDBRANCH  11  15
ENDBRANCH   4  10
BRANCH   1  24
ATOM     22  N   LIG    1        3.767   1.543   1.871  0.00  0.00    -0.306 N 
ATOM     23  H   LIG    1        3.765   2.331   2.514  0.00  0.00    +0.150 HD
ATOM     24  C   LIG    1        3.885   0.278   2.403  0.00  0.00    +0.250 C 
ATOM     25  O   LIG    1        3.908  -0.739   1.721  0.00  0.00    -0.270 OA
BRANCH  22  27
ATOM     26  C   LIG    1        2.193   1.648  -0.066  0.00  0.00    +0.031 C 
ATOM     27  C   LIG    1        3.606   1.782   0.452  0.00  0.00    +0.032 C 
ATOM     28  C   LIG    1        4.467   2.831  -0.216  0.00  0.00    +0.027 C 
ATOM     29  C   LIG    1        4.730   1.379  -0.480  0.00  0.00    +0.027 C 
ENDBRANCH  22  27
ENDBRANCH   1  24
TORSDOF 4
