REMARK  Name = pdb/CHEMBL2152283.pdb
REMARK                            x       y       z     vdW  Elec       q    Type
REMARK                         _______ _______ _______ _____ _____    ______ ____
ROOT
ATOM      1  C   LIG    1        1.983  -0.285  -0.087  0.00  0.00    +0.029 A 
ATOM      2  C   LIG    1        2.699  -1.490  -0.048  0.00  0.00    +0.031 A 
ATOM      3  C   LIG    1        4.100  -1.526   0.098  0.00  0.00    -0.011 A 
ATOM      4  C   LIG    1        4.765  -0.289   0.143  0.00  0.00    +0.054 A 
ATOM      5  C   LIG    1        4.082   0.927   0.009  0.00  0.00    +0.123 A 
ATOM      6  C   LIG    1        2.691   0.919  -0.110  0.00  0.00    +0.068 A 
ENDROOT
BRANCH   3   7
ATOM      7  C   LIG    1        4.837  -2.806   0.182  0.00  0.00    +0.001 A 
ATOM      8  C   LIG    1        6.158  -2.955  -0.293  0.00  0.00    +0.022 A 
ATOM      9  C   LIG    1        6.796  -4.217  -0.240  0.00  0.00    +0.027 A 
ATOM     10  C   LIG    1        8.065  -4.768  -0.641  0.00  0.00    +0.009 A 
ATOM     11  C   LIG    1        8.035  -6.111  -0.292  0.00  0.00    +0.093 A 
ATOM     12  N   LIG    1        6.829  -6.384   0.305  0.00  0.00    -0.345 N 
ATOM     13  H   LIG    1        6.519  -7.272   0.657  0.00  0.00    +0.167 HD
ATOM     14  C   LIG    1        6.068  -5.247   0.334  0.00  0.00    +0.139 A 
ATOM     15  N   LIG    1        4.827  -5.197   0.843  0.00  0.00    -0.237 NA
ATOM     16  C   LIG    1        4.269  -3.963   0.738  0.00  0.00    +0.121 A 
BRANCH  10  17
ATOM     17  C   LIG    1        9.205  -4.152  -1.319  0.00  0.00    -0.013 A 
ATOM     18  C   LIG    1       10.507  -4.620  -1.114  0.00  0.00    +0.028 A 
ATOM     19  C   LIG    1       11.553  -4.009  -1.789  0.00  0.00    +0.111 A 
ATOM     20  N   LIG    1       11.396  -2.974  -2.638  0.00  0.00    -0.263 NA
ATOM     21  C   LIG    1       10.136  -2.535  -2.824  0.00  0.00    +0.111 A 
ATOM     22  C   LIG    1        9.025  -3.085  -2.202  0.00  0.00    +0.028 A 
ENDBRANCH  10  17
ENDBRANCH   3   7
BRANCH   1  23
ATOM     23  N   LIG    1        0.602  -0.305  -0.335  0.00  0.00    -0.358 N 
ATOM     24  H   LIG    1        0.133  -1.137   0.012  0.00  0.00    +0.142 HD
ATOM     25  H   LIG    1        0.124   0.544  -0.048  0.00  0.00    +0.142 HD
ENDBRANCH   1  23
BRANCH   5  26
ATOM     26  O   LIG    1        4.697   2.159   0.002  0.00  0.00    -0.491 OA
BRANCH  26  27
ATOM     27  C   LIG    1        6.056   2.136  -0.471  0.00  0.00    +0.244 C 
BRANCH  27  28
ATOM     28  C   LIG    1        6.532   3.559  -0.822  0.00  0.00    +0.125 C 
BRANCH  28  29
ATOM     29  N   LIG    1        7.915   3.628  -1.354  0.00  0.00    -0.295 NA
ATOM     30  C   LIG    1        8.307   5.030  -1.654  0.00  0.00    +0.112 C 
ATOM     31  C   LIG    1        7.547   5.631  -2.852  0.00  0.00    +0.175 C 
ATOM     32  O   LIG    1        7.735   4.839  -4.033  0.00  0.00    -0.377 OA
ATOM     33  C   LIG    1        7.351   3.476  -3.814  0.00  0.00    +0.175 C 
ATOM     34  C   LIG    1        8.092   2.864  -2.612  0.00  0.00    +0.112 C 
ENDBRANCH  28  29
ENDBRANCH  27  28
ENDBRANCH  26  27
ENDBRANCH   5  26
TORSDOF 7
