REMARK  Name = pdb/CHEMBL3931763.pdb
REMARK                            x       y       z     vdW  Elec       q    Type
REMARK                         _______ _______ _______ _____ _____    ______ ____
ROOT
ATOM      1  C   LIG    1        2.647  -1.486  -0.136  0.00  0.00    +0.149 A 
ATOM      2  N   LIG    1        2.267  -2.595  -0.795  0.00  0.00    -0.160 NA
ATOM      3  N   LIG    1        3.336  -2.942  -1.560  0.00  0.00    -0.218 N 
ATOM      4  C   LIG    1        4.358  -1.986  -1.480  0.00  0.00    +0.129 A 
ATOM      5  C   LIG    1        3.924  -1.062  -0.570  0.00  0.00    +0.078 A 
ENDROOT
BRANCH   3   6
ATOM      6  C   LIG    1        3.329  -4.170  -2.280  0.00  0.00    +0.067 A 
ATOM      7  C   LIG    1        2.108  -4.697  -2.727  0.00  0.00    +0.028 A 
ATOM      8  C   LIG    1        2.079  -5.913  -3.415  0.00  0.00    +0.002 A 
ATOM      9  C   LIG    1        3.259  -6.623  -3.630  0.00  0.00    +0.000 A 
ATOM     10  C   LIG    1        4.473  -6.111  -3.175  0.00  0.00    +0.002 A 
ATOM     11  C   LIG    1        4.515  -4.883  -2.507  0.00  0.00    +0.028 A 
ENDBRANCH   3   6
BRANCH   4  12
ATOM     12  N   LIG    1        5.533  -1.939  -2.241  0.00  0.00    -0.266 N 
ATOM     13  H   LIG    1        5.575  -2.507  -3.071  0.00  0.00    +0.157 HD
ATOM     14  C   LIG    1        6.643  -1.087  -1.902  0.00  0.00    +0.251 C 
ATOM     15  O   LIG    1        6.650  -0.457  -0.865  0.00  0.00    -0.270 OA
BRANCH  14  16
ATOM     16  C   LIG    1        7.823  -1.062  -2.794  0.00  0.00    +0.056 A 
ATOM     17  C   LIG    1        7.773  -1.248  -4.171  0.00  0.00    +0.054 A 
ATOM     18 CL   LIG    1        6.325  -1.639  -5.027  0.00  0.00    -0.083 Cl
ATOM     19  C   LIG    1        8.937  -1.113  -4.928  0.00  0.00    +0.041 A 
ATOM     20  C   LIG    1       10.172  -0.826  -4.319  0.00  0.00    +0.052 A 
ATOM     21 CL   LIG    1       11.512  -0.723  -5.414  0.00  0.00    -0.083 Cl
ATOM     22  C   LIG    1       10.282  -0.680  -2.920  0.00  0.00    +0.022 A 
ATOM     23  C   LIG    1        9.071  -0.776  -2.188  0.00  0.00    +0.026 A 
BRANCH  22  24
ATOM     24  C   LIG    1       11.568  -0.451  -2.204  0.00  0.00    +0.107 A 
ATOM     25  C   LIG    1       11.858  -0.992  -0.945  0.00  0.00    +0.149 A 
ATOM     26  F   LIG    1       10.967  -1.746  -0.283  0.00  0.00    -0.203 F 
ATOM     27  C   LIG    1       13.101  -0.772  -0.358  0.00  0.00    +0.042 A 
ATOM     28  C   LIG    1       14.049  -0.023  -1.040  0.00  0.00    +0.023 A 
ATOM     29  C   LIG    1       13.697   0.496  -2.273  0.00  0.00    +0.111 A 
ATOM     30  N   LIG    1       12.483   0.318  -2.846  0.00  0.00    -0.252 NA
ENDBRANCH  22  24
ENDBRANCH  14  16
ENDBRANCH   4  12
BRANCH   1  31
ATOM     31  C   LIG    1        1.821  -0.820   0.874  0.00  0.00    +0.236 C 
ATOM     32  N   LIG    1        1.969   0.438   1.085  0.00  0.00    -0.244 NA
BRANCH  31  33
ATOM     33  O   LIG    1        0.981  -1.629   1.552  0.00  0.00    -0.491 OA
ATOM     34  H   LIG    1        0.503  -1.174   2.255  0.00  0.00    +0.294 HD
ENDBRANCH  31  33
BRANCH  32  35
ATOM     35  C   LIG    1        1.161   1.121   2.085  0.00  0.00    +0.183 C 
BRANCH  35  36
ATOM     36  C   LIG    1        1.445   2.591   2.127  0.00  0.00    +0.010 A 
ATOM     37  C   LIG    1        0.727   3.513   1.391  0.00  0.00    +0.119 A 
ATOM     38  N   LIG    1        0.953   4.843   1.419  0.00  0.00    -0.243 NA
ATOM     39  C   LIG    1        1.955   5.247   2.214  0.00  0.00    +0.221 A 
ATOM     40  N   LIG    1        2.728   4.452   2.968  0.00  0.00    -0.243 NA
ATOM     41  C   LIG    1        2.454   3.133   2.899  0.00  0.00    +0.119 A 
ENDBRANCH  35  36
ENDBRANCH  32  35
ENDBRANCH   1  31
TORSDOF 8
