REMARK  Name = pdb/CHEMBL3109645.pdb
REMARK                            x       y       z     vdW  Elec       q    Type
REMARK                         _______ _______ _______ _____ _____    ______ ____
ROOT
ATOM      1  N   LIG    1        4.292  -2.574   0.521  0.00  0.00    -0.278 N 
ATOM      2  C   LIG    1        3.786  -1.303   0.176  0.00  0.00    +0.307 C 
ATOM      3  N   LIG    1        3.673  -1.100  -1.196  0.00  0.00    -0.269 N 
ATOM      4  H   LIG    1        3.645  -1.911  -1.798  0.00  0.00    +0.156 HD
ATOM      5  O   LIG    1        3.473  -0.484   1.011  0.00  0.00    -0.252 OA
ENDROOT
BRANCH   3   6
ATOM      6  C   LIG    1        3.391   0.096  -1.879  0.00  0.00    +0.035 A 
ATOM      7  C   LIG    1        3.102   0.012  -3.245  0.00  0.00    +0.027 A 
ATOM      8  C   LIG    1        2.850   1.160  -4.005  0.00  0.00    +0.048 A 
ATOM      9  C   LIG    1        2.886   2.409  -3.393  0.00  0.00    +0.130 A 
ATOM     10  C   LIG    1        3.182   2.490  -2.029  0.00  0.00    +0.048 A 
ATOM     11  C   LIG    1        3.429   1.346  -1.269  0.00  0.00    +0.027 A 
BRANCH   9  12
ATOM     12  O   LIG    1        2.759   3.618  -3.996  0.00  0.00    -0.406 OA
BRANCH  12  13
ATOM     13  C   LIG    1        1.931   3.793  -5.131  0.00  0.00    +0.575 C 
ATOM     14  F   LIG    1        2.681   4.261  -6.153  0.00  0.00    -0.133 F 
ATOM     15  F   LIG    1        0.998   4.727  -4.836  0.00  0.00    -0.133 F 
ATOM     16  F   LIG    1        1.292   2.679  -5.539  0.00  0.00    -0.133 F 
ENDBRANCH  12  13
ENDBRANCH   9  12
ENDBRANCH   3   6
BRANCH   1  18
ATOM     17  C   LIG    1        6.081  -3.455  -1.016  0.00  0.00    +0.028 C 
ATOM     18  C   LIG    1        4.665  -3.628  -0.471  0.00  0.00    +0.072 C 
ATOM     19  C   LIG    1        4.442  -5.071  -0.027  0.00  0.00    +0.028 C 
ENDBRANCH   1  18
BRANCH   1  20
ATOM     20  C   LIG    1        4.458  -2.825   1.963  0.00  0.00    +0.146 C 
BRANCH  20  21
ATOM     21  C   LIG    1        5.817  -2.459   2.506  0.00  0.00    -0.004 A 
ATOM     22  C   LIG    1        6.269  -1.197   3.050  0.00  0.00    +0.023 A 
ATOM     23  C   LIG    1        5.744   0.100   3.221  0.00  0.00    +0.013 A 
ATOM     24  C   LIG    1        6.567   1.080   3.790  0.00  0.00    +0.020 A 
ATOM     25  C   LIG    1        7.846   0.734   4.199  0.00  0.00    +0.113 A 
ATOM     26  N   LIG    1        8.390  -0.497   4.099  0.00  0.00    -0.237 NA
ATOM     27  C   LIG    1        7.566  -1.390   3.519  0.00  0.00    +0.138 A 
ATOM     28  N   LIG    1        7.906  -2.691   3.299  0.00  0.00    -0.346 N 
ATOM     29  H   LIG    1        8.797  -3.078   3.569  0.00  0.00    +0.167 HD
ATOM     30  C   LIG    1        6.873  -3.346   2.682  0.00  0.00    +0.090 A 
ENDBRANCH  20  21
ENDBRANCH   1  20
TORSDOF 6
