REMARK  Name = pdb/CHEMBL3676029.pdb
REMARK                            x       y       z     vdW  Elec       q    Type
REMARK                         _______ _______ _______ _____ _____    ______ ____
ROOT
ATOM      1  C   LIG    1       -0.520  -2.277   0.906  0.00  0.00    +0.126 A 
ATOM      2  N   LIG    1        0.060  -1.093   0.978  0.00  0.00    -0.212 NA
ATOM      3  C   LIG    1       -0.741   0.032   0.961  0.00  0.00    +0.170 A 
ATOM      4  C   LIG    1       -0.494   1.384   1.101  0.00  0.00    +0.100 A 
ATOM      5  C   LIG    1       -1.748   2.006   0.890  0.00  0.00    +0.150 A 
ATOM      6  N   LIG    1       -2.733   1.131   0.692  0.00  0.00    -0.173 NA
ATOM      7  N   LIG    1       -2.125  -0.070   0.768  0.00  0.00    -0.221 N 
ATOM      8  C   LIG    1       -2.743  -1.299   0.707  0.00  0.00    +0.118 A 
ATOM      9  C   LIG    1       -2.021  -2.415   0.805  0.00  0.00    +0.063 A 
ENDROOT
BRANCH   1  11
ATOM     10  C   LIG    1       -0.202  -4.741   1.405  0.00  0.00    +0.110 C 
ATOM     11  N   LIG    1        0.255  -3.433   0.907  0.00  0.00    -0.308 N 
ATOM     12  C   LIG    1        1.685  -3.420   0.633  0.00  0.00    +0.107 C 
ATOM     13  C   LIG    1        2.252  -4.677   1.273  0.00  0.00    +0.021 C 
ATOM     14  C   LIG    1        1.074  -5.518   1.739  0.00  0.00    +0.029 C 
BRANCH  10  16
ATOM     15  C   LIG    1       -2.132  -6.317   0.855  0.00  0.00    +0.220 A 
ATOM     16  C   LIG    1       -1.095  -5.477   0.422  0.00  0.00    +0.037 A 
ATOM     17  C   LIG    1       -0.968  -5.295  -0.966  0.00  0.00    +0.050 A 
ATOM     18  C   LIG    1       -1.874  -5.893  -1.829  0.00  0.00    +0.142 A 
ATOM     19  F   LIG    1       -1.779  -5.700  -3.149  0.00  0.00    -0.204 F 
ATOM     20  C   LIG    1       -2.884  -6.669  -1.302  0.00  0.00    +0.153 A 
ATOM     21  N   LIG    1       -3.030  -6.897   0.020  0.00  0.00    -0.218 NA
BRANCH  15  23
ATOM     22  C   LIG    1       -3.366  -7.410   2.526  0.00  0.00    +0.279 C 
ATOM     23  O   LIG    1       -2.259  -6.560   2.208  0.00  0.00    -0.479 OA
ENDBRANCH  15  23
ENDBRANCH  10  16
ENDBRANCH   1  11
BRANCH   4  24
ATOM     24  C   LIG    1        0.723   2.124   1.370  0.00  0.00    +0.249 C 
ATOM     25  N   LIG    1        1.676   1.487   2.133  0.00  0.00    -0.308 N 
ATOM     26  H   LIG    1        1.485   0.555   2.468  0.00  0.00    +0.149 HD
ATOM     27  O   LIG    1        0.846   3.284   1.007  0.00  0.00    -0.270 OA
BRANCH  25  28
ATOM     28  C   LIG    1        2.905   2.162   2.522  0.00  0.00    +0.138 C 
BRANCH  28  29
ATOM     29  C   LIG    1        2.854   2.932   3.870  0.00  0.00    +0.076 C 
ATOM     30  C   LIG    1        1.761   4.002   3.921  0.00  0.00    +0.042 C 
ATOM     31  C   LIG    1        4.220   3.587   4.122  0.00  0.00    +0.042 C 
BRANCH  29  32
ATOM     32  O   LIG    1        2.625   1.995   4.933  0.00  0.00    -0.388 OA
ATOM     33  H   LIG    1        2.578   2.502   5.763  0.00  0.00    +0.210 HD
ENDBRANCH  29  32
ENDBRANCH  28  29
ENDBRANCH  25  28
ENDBRANCH   4  24
TORSDOF 7
