REMARK  Name = pdb/CHEMBL3673439.pdb
REMARK                            x       y       z     vdW  Elec       q    Type
REMARK                         _______ _______ _______ _____ _____    ______ ____
ROOT
ATOM      1  N   LIG    1        9.499  -9.451   8.957  0.00  0.00    -0.308 N 
ATOM      2  C   LIG    1        8.764 -10.357   9.706  0.00  0.00    +0.070 A 
ATOM      3  C   LIG    1        8.160 -10.319  10.965  0.00  0.00    +0.028 A 
ATOM      4  C   LIG    1        7.178 -11.272  11.239  0.00  0.00    +0.011 A 
ATOM      5  C   LIG    1        6.971 -12.372  10.400  0.00  0.00    -0.013 A 
ATOM      6  C   LIG    1        7.704 -12.479   9.205  0.00  0.00    +0.038 A 
ATOM      7  C   LIG    1        8.575 -11.430   8.832  0.00  0.00    +0.091 A 
ATOM      8  N   LIG    1        9.322 -11.286   7.702  0.00  0.00    -0.215 NA
ATOM      9  C   LIG    1        9.913 -10.093   7.807  0.00  0.00    +0.194 A 
ENDROOT
BRANCH   5  10
ATOM     10  C   LIG    1        6.032 -13.404  10.798  0.00  0.00    +0.020 A 
ATOM     11  C   LIG    1        5.705 -13.685  12.109  0.00  0.00    +0.116 A 
ATOM     12  N   LIG    1        4.803 -14.704  12.072  0.00  0.00    -0.270 N 
ATOM     13  N   LIG    1        4.541 -15.139  10.825  0.00  0.00    -0.179 NA
ATOM     14  C   LIG    1        5.290 -14.345  10.052  0.00  0.00    +0.142 A 
BRANCH  12  15
ATOM     15  C   LIG    1        4.155 -15.328  13.212  0.00  0.00    +0.159 C 
BRANCH  15  16
ATOM     16  C   LIG    1        3.253 -14.349  13.985  0.00  0.00    +0.108 C 
BRANCH  16  17
ATOM     17  N   LIG    1        2.590 -14.947  15.165  0.00  0.00    -0.296 NA
ATOM     18  C   LIG    1        1.712 -16.091  14.827  0.00  0.00    +0.112 C 
ATOM     19  C   LIG    1        0.415 -15.689  14.107  0.00  0.00    +0.175 C 
ATOM     20  O   LIG    1       -0.336 -14.745  14.880  0.00  0.00    -0.377 OA
ATOM     21  C   LIG    1        0.449 -13.581  15.168  0.00  0.00    +0.175 C 
ATOM     22  C   LIG    1        1.757 -13.953  15.891  0.00  0.00    +0.112 C 
ENDBRANCH  16  17
ENDBRANCH  15  16
ENDBRANCH  12  15
ENDBRANCH   5  10
BRANCH   9  23
ATOM     23  N   LIG    1       10.779  -9.610   6.929  0.00  0.00    -0.329 N 
ATOM     24  H   LIG    1       11.163 -10.300   6.285  0.00  0.00    +0.145 HD
ATOM     25  H   LIG    1       11.477  -8.918   7.202  0.00  0.00    +0.145 HD
ENDBRANCH   9  23
BRANCH   1  26
ATOM     26  C   LIG    1        9.781  -8.029   9.232  0.00  0.00    +0.160 C 
BRANCH  26  30
ATOM     27  C   LIG    1        6.655  -5.565  11.002  0.00  0.00    +0.162 A 
ATOM     28  C   LIG    1        7.915  -5.012  10.718  0.00  0.00    +0.162 A 
ATOM     29  C   LIG    1        8.935  -5.848  10.202  0.00  0.00    +0.054 A 
ATOM     30  C   LIG    1        8.684  -7.190   9.870  0.00  0.00    -0.024 A 
ATOM     31  C   LIG    1        7.393  -7.654  10.097  0.00  0.00    +0.009 A 
ATOM     32  C   LIG    1        6.442  -6.910  10.760  0.00  0.00    +0.050 A 
BRANCH  28  33
ATOM     33  O   LIG    1        8.140  -3.688  10.980  0.00  0.00    -0.491 OA
ATOM     34  C   LIG    1        9.169  -3.035  10.238  0.00  0.00    +0.277 C 
ENDBRANCH  28  33
BRANCH  27  35
ATOM     35  O   LIG    1        5.488  -5.030  11.448  0.00  0.00    -0.484 OA
BRANCH  35  36
ATOM     36  C   LIG    1        5.315  -3.650  11.668  0.00  0.00    +0.264 C 
BRANCH  36  40
ATOM     37  C   LIG    1        5.310  -2.602  15.837  0.00  0.00    +0.120 A 
ATOM     38  C   LIG    1        4.534  -1.885  14.926  0.00  0.00    +0.046 A 
ATOM     39  C   LIG    1        4.486  -2.273  13.588  0.00  0.00    +0.010 A 
ATOM     40  C   LIG    1        5.223  -3.376  13.146  0.00  0.00    -0.010 A 
ATOM     41  C   LIG    1        5.954  -4.124  14.080  0.00  0.00    +0.010 A 
ATOM     42  C   LIG    1        5.984  -3.747  15.421  0.00  0.00    +0.046 A 
BRANCH  37  44
ATOM     43  C   LIG    1        5.478  -0.866  17.406  0.00  0.00    +0.277 C 
ATOM     44  O   LIG    1        5.462  -2.269  17.155  0.00  0.00    -0.495 OA
ENDBRANCH  37  44
ENDBRANCH  36  40
ENDBRANCH  35  36
ENDBRANCH  27  35
ENDBRANCH  26  30
ENDBRANCH   1  26
TORSDOF 12
