REMARK  Name = pdb/CHEMBL3971403.pdb
REMARK                            x       y       z     vdW  Elec       q    Type
REMARK                         _______ _______ _______ _____ _____    ______ ____
ROOT
ATOM      1  C   LIG    1        3.965   0.513  -4.483  0.00  0.00    +0.149 A 
ATOM      2  N   LIG    1        5.036   1.211  -4.064  0.00  0.00    -0.160 NA
ATOM      3  N   LIG    1        4.511   2.282  -3.383  0.00  0.00    -0.218 N 
ATOM      4  C   LIG    1        3.114   2.290  -3.436  0.00  0.00    +0.129 A 
ATOM      5  C   LIG    1        2.767   1.193  -4.188  0.00  0.00    +0.078 A 
ENDROOT
BRANCH   3   6
ATOM      6  C   LIG    1        5.379   3.185  -2.699  0.00  0.00    +0.067 A 
ATOM      7  C   LIG    1        4.966   3.877  -1.550  0.00  0.00    +0.028 A 
ATOM      8  C   LIG    1        5.856   4.728  -0.884  0.00  0.00    +0.002 A 
ATOM      9  C   LIG    1        7.153   4.906  -1.364  0.00  0.00    +0.000 A 
ATOM     10  C   LIG    1        7.569   4.227  -2.506  0.00  0.00    +0.002 A 
ATOM     11  C   LIG    1        6.693   3.357  -3.164  0.00  0.00    +0.028 A 
ENDBRANCH   3   6
BRANCH   4  12
ATOM     12  N   LIG    1        2.224   3.236  -2.921  0.00  0.00    -0.266 N 
ATOM     13  H   LIG    1        2.593   4.144  -2.667  0.00  0.00    +0.157 HD
ATOM     14  C   LIG    1        0.809   2.989  -2.773  0.00  0.00    +0.251 C 
ATOM     15  O   LIG    1        0.324   1.897  -3.055  0.00  0.00    -0.270 OA
BRANCH  14  16
ATOM     16  C   LIG    1       -0.035   4.047  -2.182  0.00  0.00    +0.056 A 
ATOM     17  C   LIG    1        0.241   5.404  -2.326  0.00  0.00    +0.054 A 
ATOM     18 CL   LIG    1        1.574   6.024  -3.231  0.00  0.00    -0.083 Cl
ATOM     19  C   LIG    1       -0.596   6.338  -1.725  0.00  0.00    +0.041 A 
ATOM     20  C   LIG    1       -1.715   5.942  -0.976  0.00  0.00    +0.052 A 
ATOM     21 CL   LIG    1       -2.565   7.252  -0.229  0.00  0.00    -0.083 Cl
ATOM     22  C   LIG    1       -2.054   4.580  -0.823  0.00  0.00    +0.019 A 
ATOM     23  C   LIG    1       -1.179   3.653  -1.447  0.00  0.00    +0.026 A 
BRANCH  22  24
ATOM     24  C   LIG    1       -3.216   4.066  -0.041  0.00  0.00    +0.073 A 
ATOM     25  N   LIG    1       -3.023   2.850   0.542  0.00  0.00    -0.252 NA
ATOM     26  C   LIG    1       -4.041   2.326   1.280  0.00  0.00    +0.149 A 
ATOM     27  C   LIG    1       -5.250   2.960   1.481  0.00  0.00    +0.141 A 
ATOM     28  F   LIG    1       -6.210   2.401   2.227  0.00  0.00    -0.204 F 
ATOM     29  C   LIG    1       -5.455   4.187   0.883  0.00  0.00    +0.042 A 
ATOM     30  C   LIG    1       -4.438   4.732   0.096  0.00  0.00    +0.031 A 
ENDBRANCH  22  24
ENDBRANCH  14  16
ENDBRANCH   4  12
BRANCH   1  31
ATOM     31  C   LIG    1        4.072  -0.784  -5.153  0.00  0.00    +0.236 C 
ATOM     32  N   LIG    1        3.012  -1.391  -5.547  0.00  0.00    -0.244 NA
BRANCH  31  33
ATOM     33  O   LIG    1        5.320  -1.286  -5.289  0.00  0.00    -0.491 OA
ATOM     34  H   LIG    1        5.972  -0.655  -4.936  0.00  0.00    +0.294 HD
ENDBRANCH  31  33
BRANCH  32  35
ATOM     35  C   LIG    1        3.213  -2.695  -6.181  0.00  0.00    +0.183 C 
BRANCH  35  36
ATOM     36  C   LIG    1        2.138  -2.942  -7.183  0.00  0.00    +0.011 A 
ATOM     37  C   LIG    1        2.213  -3.675  -8.351  0.00  0.00    +0.110 A 
ATOM     38  N   LIG    1        0.982  -3.603  -8.934  0.00  0.00    -0.284 N 
ATOM     39  H   LIG    1        0.677  -4.012  -9.810  0.00  0.00    +0.188 HD
ATOM     40  N   LIG    1        0.097  -2.889  -8.222  0.00  0.00    -0.182 NA
ATOM     41  C   LIG    1        0.798  -2.492  -7.158  0.00  0.00    +0.139 A 
ENDBRANCH  35  36
ENDBRANCH  32  35
ENDBRANCH   1  31
TORSDOF 8
