REMARK  Name = pdb/CHEMBL370493.pdb
REMARK                            x       y       z     vdW  Elec       q    Type
REMARK                         _______ _______ _______ _____ _____    ______ ____
ROOT
ATOM      1  N   LIG    1        4.968   1.200   2.885  0.00  0.00    -0.311 N 
ATOM      2  C   LIG    1        5.025   0.921   4.235  0.00  0.00    +0.077 A 
ATOM      3  C   LIG    1        4.515  -0.082   5.041  0.00  0.00    +0.072 A 
ATOM      4  N   LIG    1        3.743  -1.176   4.784  0.00  0.00    -0.352 N 
ATOM      5  H   LIG    1        3.393  -1.420   3.868  0.00  0.00    +0.166 HD
ATOM      6  C   LIG    1        3.509  -1.894   5.951  0.00  0.00    +0.048 A 
ATOM      7  C   LIG    1        2.797  -3.087   6.130  0.00  0.00    +0.026 A 
ATOM      8  C   LIG    1        2.708  -3.601   7.426  0.00  0.00    +0.002 A 
ATOM      9  C   LIG    1        3.302  -2.944   8.501  0.00  0.00    +0.001 A 
ATOM     10  C   LIG    1        4.011  -1.751   8.312  0.00  0.00    +0.010 A 
ATOM     11  C   LIG    1        4.125  -1.212   7.016  0.00  0.00    +0.008 A 
ATOM     12  C   LIG    1        4.710  -0.119   6.383  0.00  0.00    +0.015 A 
ATOM     13  C   LIG    1        5.446   0.912   6.995  0.00  0.00    -0.008 A 
ATOM     14  C   LIG    1        5.750   1.096   8.418  0.00  0.00    +0.141 C 
ATOM     15  N   LIG    1        6.490   2.335   8.351  0.00  0.00    -0.307 N 
ATOM     16  H   LIG    1        6.881   2.811   9.150  0.00  0.00    +0.149 HD
ATOM     17  C   LIG    1        6.653   2.882   7.084  0.00  0.00    +0.245 C 
ATOM     18  O   LIG    1        7.272   3.932   6.935  0.00  0.00    -0.270 OA
ATOM     19  C   LIG    1        5.977   1.967   6.201  0.00  0.00    +0.052 A 
ATOM     20  C   LIG    1        5.750   1.938   4.794  0.00  0.00    +0.022 A 
ATOM     21  C   LIG    1        6.140   2.911   3.880  0.00  0.00    +0.008 A 
ATOM     22  C   LIG    1        6.848   4.132   3.876  0.00  0.00    +0.010 A 
ATOM     23  C   LIG    1        6.989   4.868   2.696  0.00  0.00    +0.001 A 
ATOM     24  C   LIG    1        6.424   4.416   1.515  0.00  0.00    +0.002 A 
ATOM     25  C   LIG    1        5.714   3.215   1.480  0.00  0.00    +0.026 A 
ATOM     26  C   LIG    1        5.594   2.452   2.662  0.00  0.00    +0.052 A 
ENDROOT
BRANCH   1  31
ATOM     27  C   LIG    1        3.789  -3.139   1.812  0.00  0.00    +0.044 C 
ATOM     28  C   LIG    1        3.845  -1.745   1.185  0.00  0.00    +0.097 C 
ATOM     29  C   LIG    1        5.188  -1.374   0.515  0.00  0.00    +0.121 C 
ATOM     30  C   LIG    1        5.153   0.150   0.578  0.00  0.00    +0.094 C 
ATOM     31  C   LIG    1        4.285   0.482   1.800  0.00  0.00    +0.223 C 
ATOM     32  O   LIG    1        3.690  -0.762   2.234  0.00  0.00    -0.348 OA
ATOM     33  C   LIG    1        2.626  -1.603   0.252  0.00  0.00    +0.044 C 
BRANCH  29  34
ATOM     34  O   LIG    1        5.291  -1.830  -0.839  0.00  0.00    -0.383 OA
ATOM     35  H   LIG    1        4.646  -1.353  -1.391  0.00  0.00    +0.210 HD
ENDBRANCH  29  34
BRANCH  29  36
ATOM     36  C   LIG    1        6.448  -1.883   1.255  0.00  0.00    +0.193 C 
BRANCH  36  37
ATOM     37  O   LIG    1        6.601  -3.296   1.118  0.00  0.00    -0.392 OA
ATOM     38  H   LIG    1        6.602  -3.470   0.157  0.00  0.00    +0.210 HD
ENDBRANCH  36  37
ENDBRANCH  29  36
ENDBRANCH   1  31
TORSDOF 4
