REMARK  Name = pdb/CHEMBL3983195.pdb
REMARK                            x       y       z     vdW  Elec       q    Type
REMARK                         _______ _______ _______ _____ _____    ______ ____
ROOT
ATOM      1  C   LIG    1        3.620   2.327   0.084  0.00  0.00    +0.179 A 
ATOM      2  N   LIG    1        2.307   2.062  -0.282  0.00  0.00    -0.193 N 
ATOM      3  N   LIG    1        1.737   0.832  -0.518  0.00  0.00    -0.148 NA
ATOM      4  C   LIG    1        0.442   0.853  -0.704  0.00  0.00    +0.143 A 
ATOM      5  C   LIG    1       -0.363   2.118  -0.629  0.00  0.00    +0.049 A 
ATOM      6  C   LIG    1        0.272   3.286  -0.498  0.00  0.00    +0.051 A 
ATOM      7  C   LIG    1        1.672   3.293  -0.362  0.00  0.00    +0.157 A 
ATOM      8  N   LIG    1        2.513   4.298  -0.265  0.00  0.00    -0.232 NA
ATOM      9  C   LIG    1        3.716   3.706   0.018  0.00  0.00    +0.161 A 
ENDROOT
BRANCH   4  10
ATOM     10  N   LIG    1       -0.225  -0.321  -1.009  0.00  0.00    -0.307 N 
ATOM     11  C   LIG    1        0.444  -1.471  -1.627  0.00  0.00    +0.108 C 
ATOM     12  C   LIG    1       -0.244  -2.678  -0.976  0.00  0.00    +0.029 C 
ATOM     13  C   LIG    1       -1.663  -2.194  -0.730  0.00  0.00    +0.021 C 
ATOM     14  C   LIG    1       -1.482  -0.720  -0.376  0.00  0.00    +0.107 C 
BRANCH  11  15
ATOM     15  C   LIG    1        0.273  -1.438  -3.138  0.00  0.00    +0.011 A 
ATOM     16  C   LIG    1        1.208  -2.089  -3.952  0.00  0.00    +0.129 A 
ATOM     17  F   LIG    1        2.265  -2.701  -3.396  0.00  0.00    -0.205 F 
ATOM     18  C   LIG    1        1.081  -2.108  -5.343  0.00  0.00    +0.041 A 
ATOM     19  C   LIG    1        0.005  -1.464  -5.951  0.00  0.00    +0.041 A 
ATOM     20  C   LIG    1       -0.928  -0.809  -5.159  0.00  0.00    +0.124 A 
ATOM     21  F   LIG    1       -1.964  -0.185  -5.735  0.00  0.00    -0.205 F 
ATOM     22  C   LIG    1       -0.806  -0.792  -3.773  0.00  0.00    +0.046 A 
ENDBRANCH  11  15
ENDBRANCH   4  10
BRANCH   1  24
ATOM     23  C   LIG    1        5.384   0.900  -0.183  0.00  0.00    +0.285 C 
ATOM     24  N   LIG    1        4.497   1.412   0.580  0.00  0.00    -0.178 NA
BRANCH  23  28
ATOM     25  C   LIG    1        6.911  -0.562  -2.742  0.00  0.00    +0.162 C 
ATOM     26  C   LIG    1        5.457  -0.908  -3.093  0.00  0.00    +0.162 C 
ATOM     27  C   LIG    1        4.598   0.141  -2.351  0.00  0.00    +0.143 C 
ATOM     28  N   LIG    1        5.542   0.945  -1.553  0.00  0.00    -0.280 N 
ATOM     29  C   LIG    1        6.827   0.880  -2.245  0.00  0.00    +0.143 C 
BRANCH  25  30
ATOM     30  O   LIG    1        7.787  -0.690  -3.855  0.00  0.00    -0.388 OA
ATOM     31  H   LIG    1        8.041  -1.631  -3.901  0.00  0.00    +0.210 HD
ENDBRANCH  25  30
BRANCH  26  32
ATOM     32  O   LIG    1        5.188  -2.242  -2.644  0.00  0.00    -0.388 OA
ATOM     33  H   LIG    1        4.232  -2.406  -2.755  0.00  0.00    +0.210 HD
ENDBRANCH  26  32
ENDBRANCH  23  28
BRANCH  23  34
ATOM     34  O   LIG    1        6.316   0.163   0.456  0.00  0.00    -0.481 OA
ATOM     35  H   LIG    1        6.924  -0.275  -0.139  0.00  0.00    +0.295 HD
ENDBRANCH  23  34
ENDBRANCH   1  24
TORSDOF 7
