REMARK  Name = pdb/CHEMBL3671130.pdb
REMARK                            x       y       z     vdW  Elec       q    Type
REMARK                         _______ _______ _______ _____ _____    ______ ____
ROOT
ATOM      1  C   LIG    1        2.586  -5.257  -0.024  0.00  0.00    +0.126 A 
ATOM      2  N   LIG    1        2.097  -4.115  -0.465  0.00  0.00    -0.212 NA
ATOM      3  C   LIG    1        0.965  -4.152  -1.245  0.00  0.00    +0.170 A 
ATOM      4  C   LIG    1        0.221  -3.150  -1.843  0.00  0.00    +0.101 A 
ATOM      5  C   LIG    1       -0.821  -3.832  -2.505  0.00  0.00    +0.150 A 
ATOM      6  N   LIG    1       -0.754  -5.156  -2.363  0.00  0.00    -0.173 NA
ATOM      7  N   LIG    1        0.331  -5.349  -1.578  0.00  0.00    -0.221 N 
ATOM      8  C   LIG    1        0.812  -6.551  -1.094  0.00  0.00    +0.118 A 
ATOM      9  C   LIG    1        1.895  -6.574  -0.310  0.00  0.00    +0.063 A 
ENDROOT
BRANCH   1  11
ATOM     10  C   LIG    1        4.490  -4.010   1.062  0.00  0.00    +0.108 C 
ATOM     11  N   LIG    1        3.755  -5.257   0.735  0.00  0.00    -0.308 N 
ATOM     12  C   LIG    1        4.688  -6.385   0.740  0.00  0.00    +0.107 C 
ATOM     13  C   LIG    1        6.019  -5.754   0.381  0.00  0.00    +0.021 C 
ATOM     14  C   LIG    1        5.970  -4.449   1.150  0.00  0.00    +0.029 C 
BRANCH  10  18
ATOM     15  F   LIG    1        1.506  -3.659   4.973  0.00  0.00    -0.205 F 
ATOM     16  C   LIG    1        2.548  -3.187   4.278  0.00  0.00    +0.124 A 
ATOM     17  C   LIG    1        2.937  -3.834   3.105  0.00  0.00    +0.046 A 
ATOM     18  C   LIG    1        4.024  -3.358   2.353  0.00  0.00    +0.011 A 
ATOM     19  C   LIG    1        4.686  -2.215   2.831  0.00  0.00    +0.129 A 
ATOM     20  F   LIG    1        5.713  -1.704   2.138  0.00  0.00    -0.205 F 
ATOM     21  C   LIG    1        4.301  -1.573   4.010  0.00  0.00    +0.041 A 
ATOM     22  C   LIG    1        3.222  -2.063   4.739  0.00  0.00    +0.041 A 
ENDBRANCH  10  18
ENDBRANCH   1  11
BRANCH   4  23
ATOM     23  C   LIG    1        0.432  -1.710  -1.811  0.00  0.00    +0.254 C 
ATOM     24  N   LIG    1        1.550  -1.348  -1.094  0.00  0.00    -0.266 N 
ATOM     25  H   LIG    1        2.049  -2.096  -0.624  0.00  0.00    +0.157 HD
ATOM     26  O   LIG    1       -0.372  -0.964  -2.349  0.00  0.00    -0.270 OA
BRANCH  24  27
ATOM     27  C   LIG    1        2.015  -0.045  -0.920  0.00  0.00    +0.125 A 
ATOM     28  N   LIG    1        1.606   0.945  -1.731  0.00  0.00    -0.240 NA
ATOM     29  C   LIG    1        2.126   2.176  -1.537  0.00  0.00    +0.113 A 
ATOM     30  C   LIG    1        3.042   2.475  -0.544  0.00  0.00    +0.020 A 
ATOM     31  C   LIG    1        3.449   1.448   0.296  0.00  0.00    +0.005 A 
ATOM     32  C   LIG    1        2.938   0.168   0.099  0.00  0.00    +0.044 A 
ENDBRANCH  24  27
ENDBRANCH   4  23
TORSDOF 4
