REMARK  Name = pdb/CHEMBL211160.pdb
REMARK                            x       y       z     vdW  Elec       q    Type
REMARK                         _______ _______ _______ _____ _____    ______ ____
ROOT
ATOM      1  C   LIG    1        2.304  -0.187   0.064  0.00  0.00    +0.106 C 
ATOM      2  C   LIG    1        2.903   1.122  -0.095  0.00  0.00    +0.082 C 
ATOM      3  C   LIG    1        2.208   2.031   0.707  0.00  0.00    +0.170 C 
ATOM      4  S   LIG    1        0.772   1.270   1.233  0.00  0.00    -0.002 S 
ATOM      5  N   LIG    1        1.110  -0.217   0.640  0.00  0.00    -0.173 NA
ENDROOT
BRANCH   3   6
ATOM      6  N   LIG    1        2.486   3.357   1.056  0.00  0.00    -0.277 N 
ATOM      7  H   LIG    1        3.364   3.741   0.714  0.00  0.00    +0.152 HD
ATOM      8  C   LIG    1        1.772   4.081   1.995  0.00  0.00    +0.301 C 
ATOM      9  N   LIG    1        2.277   5.347   2.211  0.00  0.00    -0.302 N 
ATOM     10  H   LIG    1        2.715   5.804   1.425  0.00  0.00    +0.150 HD
ATOM     11  C   LIG    1        1.581   6.191   3.162  0.00  0.00    +0.129 C 
ATOM     12  O   LIG    1        0.798   3.690   2.633  0.00  0.00    -0.253 OA
ENDBRANCH   3   6
BRANCH   2  13
ATOM     13  C   LIG    1        4.060   1.537  -0.897  0.00  0.00    +0.243 C 
ATOM     14  N   LIG    1        4.600   0.594  -1.735  0.00  0.00    -0.325 N 
ATOM     15  H   LIG    1        5.325   0.884  -2.377  0.00  0.00    +0.145 HD
ATOM     16  H   LIG    1        4.227  -0.341  -1.820  0.00  0.00    +0.145 HD
ATOM     17  O   LIG    1        4.500   2.678  -0.894  0.00  0.00    -0.271 OA
ENDBRANCH   2  13
BRANCH   1  18
ATOM     18  S   LIG    1        2.971  -1.757  -0.454  0.00  0.00    -0.099 S 
BRANCH  18  19
ATOM     19  C   LIG    1        2.180  -2.939   0.760  0.00  0.00    +0.082 C 
BRANCH  19  20
ATOM     20  C   LIG    1        2.454  -4.429   0.456  0.00  0.00    -0.034 A 
ATOM     21  C   LIG    1        3.713  -4.902   0.050  0.00  0.00    +0.006 A 
ATOM     22  C   LIG    1        3.959  -6.272  -0.126  0.00  0.00    +0.020 A 
ATOM     23  C   LIG    1        2.952  -7.201   0.113  0.00  0.00    +0.041 A 
ATOM     24 CL   LIG    1        3.279  -8.883  -0.056  0.00  0.00    -0.084 Cl
ATOM     25  C   LIG    1        1.689  -6.768   0.501  0.00  0.00    +0.020 A 
ATOM     26  C   LIG    1        1.441  -5.394   0.668  0.00  0.00    +0.006 A 
ENDBRANCH  19  20
BRANCH  19  28
ATOM     27  C   LIG    1        4.006  -2.494   2.577  0.00  0.00    +0.005 C 
ATOM     28  C   LIG    1        2.523  -2.602   2.234  0.00  0.00    +0.016 C 
ENDBRANCH  19  28
ENDBRANCH  18  19
ENDBRANCH   1  18
TORSDOF 6
