REMARK  Name = pdb/CHEMBL3976517.pdb
REMARK                            x       y       z     vdW  Elec       q    Type
REMARK                         _______ _______ _______ _____ _____    ______ ____
ROOT
ATOM      1  C   LIG    1        2.625   4.950  -2.123  0.00  0.00    +0.027 A 
ATOM      2  C   LIG    1        3.629   5.913  -2.284  0.00  0.00    +0.060 A 
ATOM      3  C   LIG    1        3.424   7.178  -1.738  0.00  0.00    +0.157 A 
ATOM      4  N   LIG    1        2.297   7.504  -1.068  0.00  0.00    -0.236 NA
ATOM      5  C   LIG    1        1.358   6.547  -0.908  0.00  0.00    +0.114 A 
ATOM      6  C   LIG    1        1.482   5.266  -1.403  0.00  0.00    +0.031 A 
ENDROOT
BRANCH   1   7
ATOM      7  C   LIG    1        2.877   3.583  -2.648  0.00  0.00    +0.195 C 
ATOM      8  O   LIG    1        4.050   3.223  -2.747  0.00  0.00    -0.287 OA
BRANCH   7  16
ATOM      9  N   LIG    1       -0.204   1.831  -3.599  0.00  0.00    -0.343 N 
ATOM     10  C   LIG    1        0.583   0.743  -3.276  0.00  0.00    +0.053 A 
ATOM     11  C   LIG    1        0.331  -0.634  -3.282  0.00  0.00    +0.046 A 
ATOM     12  C   LIG    1        1.382  -1.444  -2.881  0.00  0.00    +0.113 A 
ATOM     13  N   LIG    1        2.595  -1.001  -2.496  0.00  0.00    -0.263 NA
ATOM     14  C   LIG    1        2.831   0.333  -2.504  0.00  0.00    +0.121 A 
ATOM     15  C   LIG    1        1.837   1.242  -2.890  0.00  0.00    +0.029 A 
ATOM     16  C   LIG    1        1.776   2.673  -2.973  0.00  0.00    +0.049 A 
ATOM     17  C   LIG    1        0.529   2.987  -3.448  0.00  0.00    +0.099 A 
BRANCH   9  19
ATOM     18  C   LIG    1       -2.518   2.538  -3.055  0.00  0.00    +0.030 C 
ATOM     19  C   LIG    1       -1.607   1.774  -4.019  0.00  0.00    +0.081 C 
ATOM     20  C   LIG    1       -1.799   2.260  -5.455  0.00  0.00    +0.030 C 
ENDBRANCH   9  19
ENDBRANCH   7  16
ENDBRANCH   1   7
BRANCH   3  21
ATOM     21  N   LIG    1        4.430   8.144  -1.846  0.00  0.00    -0.197 NA
ATOM     22  C   LIG    1        4.321   9.330  -1.337  0.00  0.00    +0.193 C 
BRANCH  22  23
ATOM     23  O   LIG    1        3.243   9.782  -0.663  0.00  0.00    -0.495 OA
ATOM     24  H   LIG    1        2.581   9.062  -0.631  0.00  0.00    +0.293 HD
ENDBRANCH  22  23
BRANCH  22  25
ATOM     25  C   LIG    1        5.403  10.371  -1.432  0.00  0.00    +0.130 C 
BRANCH  25  26
ATOM     26  C   LIG    1        5.282  11.260  -2.646  0.00  0.00    -0.035 A 
ATOM     27  C   LIG    1        4.147  12.059  -2.862  0.00  0.00    +0.050 A 
ATOM     28  C   LIG    1        4.050  12.900  -3.978  0.00  0.00    +0.130 A 
ATOM     29  C   LIG    1        5.137  13.003  -4.844  0.00  0.00    +0.046 A 
ATOM     30  C   LIG    1        6.261  12.196  -4.653  0.00  0.00    +0.004 A 
ATOM     31  C   LIG    1        6.332  11.326  -3.566  0.00  0.00    +0.004 A 
BRANCH  28  32
ATOM     32  O   LIG    1        2.863  13.561  -4.087  0.00  0.00    -0.406 OA
BRANCH  32  33
ATOM     33  C   LIG    1        2.454  14.058  -5.354  0.00  0.00    +0.575 C 
ATOM     34  F   LIG    1        2.687  15.388  -5.416  0.00  0.00    -0.133 F 
ATOM     35  F   LIG    1        1.119  13.860  -5.483  0.00  0.00    -0.133 F 
ATOM     36  F   LIG    1        3.055  13.453  -6.401  0.00  0.00    -0.133 F 
ENDBRANCH  32  33
ENDBRANCH  28  32
ENDBRANCH  25  26
ENDBRANCH  22  25
ENDBRANCH   3  21
TORSDOF 9
