REMARK  Name = pdb/CHEMBL3675908.pdb
REMARK                            x       y       z     vdW  Elec       q    Type
REMARK                         _______ _______ _______ _____ _____    ______ ____
ROOT
ATOM      1  C   LIG    1        5.840   4.406  -1.125  0.00  0.00    +0.100 A 
ATOM      2  C   LIG    1        4.605   4.162  -0.544  0.00  0.00    +0.170 A 
ATOM      3  N   LIG    1        3.510   4.964  -0.336  0.00  0.00    -0.212 NA
ATOM      4  C   LIG    1        2.445   4.434   0.231  0.00  0.00    +0.126 A 
ATOM      5  C   LIG    1        2.413   2.979   0.644  0.00  0.00    +0.063 A 
ATOM      6  C   LIG    1        3.516   2.251   0.440  0.00  0.00    +0.118 A 
ATOM      7  N   LIG    1        4.627   2.823  -0.154  0.00  0.00    -0.221 N 
ATOM      8  N   LIG    1        5.810   2.225  -0.426  0.00  0.00    -0.173 NA
ATOM      9  C   LIG    1        6.531   3.183  -1.008  0.00  0.00    +0.150 A 
ENDROOT
BRANCH   1  13
ATOM     10  N   LIG    1        5.474   6.682  -1.695  0.00  0.00    -0.325 N 
ATOM     11  H   LIG    1        4.549   6.583  -1.281  0.00  0.00    +0.145 HD
ATOM     12  H   LIG    1        5.758   7.561  -2.099  0.00  0.00    +0.145 HD
ATOM     13  C   LIG    1        6.333   5.628  -1.716  0.00  0.00    +0.247 C 
ATOM     14  O   LIG    1        7.453   5.728  -2.214  0.00  0.00    -0.270 OA
ENDBRANCH   1  13
BRANCH   4  15
ATOM     15  N   LIG    1        1.333   5.234   0.461  0.00  0.00    -0.308 N 
ATOM     16  C   LIG    1        1.419   6.707   0.485  0.00  0.00    +0.108 C 
ATOM     17  C   LIG    1        0.303   7.120   1.462  0.00  0.00    +0.029 C 
ATOM     18  C   LIG    1       -0.734   6.019   1.317  0.00  0.00    +0.021 C 
ATOM     19  C   LIG    1        0.122   4.776   1.137  0.00  0.00    +0.107 C 
BRANCH  16  20
ATOM     20  C   LIG    1        1.256   7.327  -0.888  0.00  0.00    +0.011 A 
ATOM     21  C   LIG    1        1.861   8.565  -1.150  0.00  0.00    +0.129 A 
ATOM     22  F   LIG    1        2.565   9.178  -0.188  0.00  0.00    -0.205 F 
ATOM     23  C   LIG    1        1.761   9.186  -2.396  0.00  0.00    +0.041 A 
ATOM     24  C   LIG    1        1.035   8.573  -3.413  0.00  0.00    +0.041 A 
ATOM     25  C   LIG    1        0.419   7.352  -3.166  0.00  0.00    +0.124 A 
ATOM     26  F   LIG    1       -0.281   6.760  -4.143  0.00  0.00    -0.205 F 
ATOM     27  C   LIG    1        0.518   6.730  -1.922  0.00  0.00    +0.046 A 
ENDBRANCH  16  20
ENDBRANCH   4  15
TORSDOF 3
