REMARK  Name = pdb/CHEMBL3896188.pdb
REMARK                            x       y       z     vdW  Elec       q    Type
REMARK                         _______ _______ _______ _____ _____    ______ ____
ROOT
ATOM      1  C   LIG    1        6.547   7.703  -0.280  0.00  0.00    +0.149 A 
ATOM      2  N   LIG    1        6.526   8.581   0.734  0.00  0.00    -0.160 NA
ATOM      3  N   LIG    1        5.207   8.659   1.120  0.00  0.00    -0.218 N 
ATOM      4  C   LIG    1        4.380   7.862   0.289  0.00  0.00    +0.129 A 
ATOM      5  C   LIG    1        5.249   7.272  -0.595  0.00  0.00    +0.078 A 
ENDROOT
BRANCH   3   6
ATOM      6  C   LIG    1        4.867   9.483   2.230  0.00  0.00    +0.067 A 
ATOM      7  C   LIG    1        3.760   9.215   3.042  0.00  0.00    +0.028 A 
ATOM      8  C   LIG    1        3.509  10.011   4.169  0.00  0.00    +0.002 A 
ATOM      9  C   LIG    1        4.356  11.070   4.494  0.00  0.00    +0.000 A 
ATOM     10  C   LIG    1        5.454  11.350   3.687  0.00  0.00    +0.002 A 
ATOM     11  C   LIG    1        5.709  10.564   2.560  0.00  0.00    +0.028 A 
ENDBRANCH   3   6
BRANCH   4  12
ATOM     12  N   LIG    1        2.983   7.708   0.276  0.00  0.00    -0.266 N 
ATOM     13  H   LIG    1        2.414   8.236   0.941  0.00  0.00    +0.157 HD
ATOM     14  C   LIG    1        2.338   6.870  -0.699  0.00  0.00    +0.251 C 
ATOM     15  O   LIG    1        3.001   6.199  -1.474  0.00  0.00    -0.270 OA
BRANCH  14  16
ATOM     16  C   LIG    1        0.870   6.722  -0.777  0.00  0.00    +0.056 A 
ATOM     17  C   LIG    1       -0.066   7.584  -0.235  0.00  0.00    +0.054 A 
ATOM     18 CL   LIG    1        0.347   9.064   0.546  0.00  0.00    -0.083 Cl
ATOM     19  C   LIG    1       -1.420   7.264  -0.342  0.00  0.00    +0.041 A 
ATOM     20  C   LIG    1       -1.850   6.090  -0.991  0.00  0.00    +0.052 A 
ATOM     21 CL   LIG    1       -3.554   5.804  -0.913  0.00  0.00    -0.083 Cl
ATOM     22  C   LIG    1       -0.934   5.216  -1.602  0.00  0.00    +0.019 A 
ATOM     23  C   LIG    1        0.422   5.580  -1.486  0.00  0.00    +0.026 A 
BRANCH  22  24
ATOM     24  C   LIG    1       -1.258   3.948  -2.307  0.00  0.00    +0.072 A 
ATOM     25  N   LIG    1       -0.301   2.981  -2.225  0.00  0.00    -0.255 NA
ATOM     26  C   LIG    1       -0.524   1.799  -2.851  0.00  0.00    +0.111 A 
ATOM     27  C   LIG    1       -1.670   1.514  -3.568  0.00  0.00    +0.020 A 
ATOM     28  C   LIG    1       -2.635   2.503  -3.660  0.00  0.00    +0.004 A 
ATOM     29  C   LIG    1       -2.421   3.732  -3.040  0.00  0.00    +0.028 A 
ENDBRANCH  22  24
ENDBRANCH  14  16
ENDBRANCH   4  12
BRANCH   1  31
ATOM     30  N   LIG    1        7.733   6.460  -1.936  0.00  0.00    -0.244 NA
ATOM     31  C   LIG    1        7.773   7.295  -0.960  0.00  0.00    +0.236 C 
BRANCH  31  32
ATOM     32  O   LIG    1        8.900   7.863  -0.482  0.00  0.00    -0.491 OA
ATOM     33  H   LIG    1        8.657   8.511   0.207  0.00  0.00    +0.294 HD
ENDBRANCH  31  32
BRANCH  30  34
ATOM     34  C   LIG    1        9.013   6.095  -2.548  0.00  0.00    +0.183 C 
BRANCH  34  39
ATOM     35  C   LIG    1        7.583   5.929  -7.390  0.00  0.00    +0.172 C 
ATOM     36  N   LIG    1        8.253   5.732  -6.127  0.00  0.00    -0.274 N 
ATOM     37  N   LIG    1        9.274   4.861  -6.060  0.00  0.00    -0.180 NA
ATOM     38  C   LIG    1        9.630   4.896  -4.774  0.00  0.00    +0.139 A 
ATOM     39  C   LIG    1        8.851   5.798  -4.006  0.00  0.00    +0.011 A 
ATOM     40  C   LIG    1        7.972   6.330  -4.933  0.00  0.00    +0.113 A 
ENDBRANCH  34  39
ENDBRANCH  30  34
ENDBRANCH   1  31
TORSDOF 8
