REMARK  Name = pdb/CHEMBL3676019.pdb
REMARK                            x       y       z     vdW  Elec       q    Type
REMARK                         _______ _______ _______ _____ _____    ______ ____
ROOT
ATOM      1  C   LIG    1        2.786  -1.923  -0.901  0.00  0.00    +0.126 A 
ATOM      2  N   LIG    1        2.408  -0.891  -1.626  0.00  0.00    -0.212 NA
ATOM      3  C   LIG    1        1.667  -1.126  -2.759  0.00  0.00    +0.170 A 
ATOM      4  C   LIG    1        1.093  -0.275  -3.690  0.00  0.00    +0.100 A 
ATOM      5  C   LIG    1        0.463  -1.136  -4.614  0.00  0.00    +0.150 A 
ATOM      6  N   LIG    1        0.613  -2.426  -4.318  0.00  0.00    -0.173 NA
ATOM      7  N   LIG    1        1.324  -2.417  -3.166  0.00  0.00    -0.221 N 
ATOM      8  C   LIG    1        1.705  -3.511  -2.412  0.00  0.00    +0.118 A 
ATOM      9  C   LIG    1        2.404  -3.338  -1.287  0.00  0.00    +0.063 A 
ENDROOT
BRANCH   1  11
ATOM     10  C   LIG    1        3.972  -0.394   0.737  0.00  0.00    +0.110 C 
ATOM     11  N   LIG    1        3.551  -1.727   0.245  0.00  0.00    -0.308 N 
ATOM     12  C   LIG    1        4.404  -2.771   0.813  0.00  0.00    +0.107 C 
ATOM     13  C   LIG    1        5.583  -2.038   1.428  0.00  0.00    +0.021 C 
ATOM     14  C   LIG    1        4.981  -0.717   1.858  0.00  0.00    +0.029 C 
BRANCH  10  16
ATOM     15  C   LIG    1        2.945   1.843   1.354  0.00  0.00    +0.220 A 
ATOM     16  C   LIG    1        2.845   0.447   1.293  0.00  0.00    +0.037 A 
ATOM     17  C   LIG    1        1.684  -0.129   1.833  0.00  0.00    +0.050 A 
ATOM     18  C   LIG    1        0.686   0.683   2.350  0.00  0.00    +0.142 A 
ATOM     19  F   LIG    1       -0.432   0.145   2.850  0.00  0.00    -0.204 F 
ATOM     20  C   LIG    1        0.871   2.051   2.347  0.00  0.00    +0.153 A 
ATOM     21  N   LIG    1        1.988   2.649   1.876  0.00  0.00    -0.218 NA
BRANCH  15  23
ATOM     22  C   LIG    1        4.100   3.850   0.986  0.00  0.00    +0.279 C 
ATOM     23  O   LIG    1        4.097   2.428   0.864  0.00  0.00    -0.479 OA
ENDBRANCH  15  23
ENDBRANCH  10  16
ENDBRANCH   1  11
BRANCH   4  24
ATOM     24  C   LIG    1        1.107   1.170  -3.719  0.00  0.00    +0.249 C 
ATOM     25  N   LIG    1        2.118   1.757  -3.004  0.00  0.00    -0.311 N 
ATOM     26  H   LIG    1        2.751   1.133  -2.502  0.00  0.00    +0.149 HD
ATOM     27  O   LIG    1        0.268   1.811  -4.364  0.00  0.00    -0.270 OA
BRANCH  25  28
ATOM     28  C   LIG    1        2.251   3.188  -2.831  0.00  0.00    +0.107 C 
BRANCH  28  29
ATOM     29  C   LIG    1        1.077   3.802  -2.069  0.00  0.00    +0.046 C 
BRANCH  29  30
ATOM     30  C   LIG    1        1.235   5.306  -1.894  0.00  0.00    +0.157 C 
BRANCH  30  31
ATOM     31  O   LIG    1        0.109   5.841  -1.208  0.00  0.00    -0.395 OA
ATOM     32  H   LIG    1       -0.476   6.243  -1.873  0.00  0.00    +0.209 HD
ENDBRANCH  30  31
ENDBRANCH  29  30
ENDBRANCH  28  29
ENDBRANCH  25  28
ENDBRANCH   4  24
TORSDOF 8
