REMARK  Name = pdb/CHEMBL3942676.pdb
REMARK                            x       y       z     vdW  Elec       q    Type
REMARK                         _______ _______ _______ _____ _____    ______ ____
ROOT
ATOM      1  C   LIG    1        3.094  -2.091  -1.592  0.00  0.00    +0.149 A 
ATOM      2  N   LIG    1        3.528  -3.232  -2.150  0.00  0.00    -0.160 NA
ATOM      3  N   LIG    1        4.489  -2.843  -3.039  0.00  0.00    -0.218 N 
ATOM      4  C   LIG    1        4.764  -1.471  -2.927  0.00  0.00    +0.129 A 
ATOM      5  C   LIG    1        3.774  -0.978  -2.114  0.00  0.00    +0.078 A 
ENDROOT
BRANCH   3   6
ATOM      6  C   LIG    1        5.099  -3.814  -3.877  0.00  0.00    +0.067 A 
ATOM      7  C   LIG    1        5.024  -5.175  -3.531  0.00  0.00    +0.028 A 
ATOM      8  C   LIG    1        5.683  -6.131  -4.305  0.00  0.00    +0.002 A 
ATOM      9  C   LIG    1        6.375  -5.742  -5.450  0.00  0.00    +0.000 A 
ATOM     10  C   LIG    1        6.391  -4.402  -5.835  0.00  0.00    +0.002 A 
ATOM     11  C   LIG    1        5.753  -3.437  -5.054  0.00  0.00    +0.028 A 
ENDBRANCH   3   6
BRANCH   4  12
ATOM     12  N   LIG    1        5.870  -0.745  -3.421  0.00  0.00    -0.266 N 
ATOM     13  H   LIG    1        6.619  -1.253  -3.863  0.00  0.00    +0.157 HD
ATOM     14  C   LIG    1        6.006   0.681  -3.202  0.00  0.00    +0.251 C 
ATOM     15  O   LIG    1        5.126   1.303  -2.654  0.00  0.00    -0.270 OA
BRANCH  14  16
ATOM     16  C   LIG    1        7.251   1.396  -3.581  0.00  0.00    +0.056 A 
ATOM     17  C   LIG    1        8.408   0.808  -4.071  0.00  0.00    +0.054 A 
ATOM     18 CL   LIG    1        8.470  -0.791  -4.710  0.00  0.00    -0.083 Cl
ATOM     19  C   LIG    1        9.595   1.543  -4.076  0.00  0.00    +0.041 A 
ATOM     20  C   LIG    1        9.614   2.906  -3.732  0.00  0.00    +0.052 A 
ATOM     21 CL   LIG    1       11.183   3.617  -3.592  0.00  0.00    -0.083 Cl
ATOM     22  C   LIG    1        8.424   3.594  -3.450  0.00  0.00    +0.022 A 
ATOM     23  C   LIG    1        7.266   2.788  -3.324  0.00  0.00    +0.026 A 
BRANCH  22  24
ATOM     24  C   LIG    1        8.281   5.062  -3.261  0.00  0.00    +0.107 A 
ATOM     25  C   LIG    1        8.987   6.032  -3.977  0.00  0.00    +0.149 A 
ATOM     26  F   LIG    1        9.880   5.708  -4.922  0.00  0.00    -0.203 F 
ATOM     27  C   LIG    1        8.712   7.382  -3.781  0.00  0.00    +0.042 A 
ATOM     28  C   LIG    1        7.694   7.750  -2.912  0.00  0.00    +0.023 A 
ATOM     29  C   LIG    1        7.004   6.743  -2.262  0.00  0.00    +0.111 A 
ATOM     30  N   LIG    1        7.280   5.425  -2.407  0.00  0.00    -0.252 NA
ENDBRANCH  22  24
ENDBRANCH  14  16
ENDBRANCH   4  12
BRANCH   1  31
ATOM     31  C   LIG    1        2.131  -2.101  -0.496  0.00  0.00    +0.236 C 
ATOM     32  N   LIG    1        1.760  -1.011   0.079  0.00  0.00    -0.246 NA
BRANCH  31  33
ATOM     33  O   LIG    1        1.749  -3.338  -0.106  0.00  0.00    -0.491 OA
ATOM     34  H   LIG    1        2.282  -4.002  -0.583  0.00  0.00    +0.294 HD
ENDBRANCH  31  33
BRANCH  32  35
ATOM     35  C   LIG    1        0.943  -1.179   1.288  0.00  0.00    +0.180 C 
BRANCH  35  36
ATOM     36  C   LIG    1       -0.326  -0.367   1.236  0.00  0.00    +0.086 C 
ATOM     37  C   LIG    1       -1.448  -0.788   2.146  0.00  0.00    +0.039 C 
ATOM     38  C   LIG    1       -1.604  -0.909   0.654  0.00  0.00    +0.039 C 
BRANCH  36  39
ATOM     39  O   LIG    1       -0.156   1.049   1.075  0.00  0.00    -0.387 OA
ATOM     40  H   LIG    1        0.023   1.249   0.140  0.00  0.00    +0.210 HD
ENDBRANCH  36  39
ENDBRANCH  35  36
ENDBRANCH  32  35
ENDBRANCH   1  31
TORSDOF 9
