REMARK  Name = pdb/CHEMBL3890285.pdb
REMARK                            x       y       z     vdW  Elec       q    Type
REMARK                         _______ _______ _______ _____ _____    ______ ____
ROOT
ATOM      1  C   LIG    1        2.862  -4.948  -1.220  0.00  0.00    +0.149 A 
ATOM      2  N   LIG    1        2.040  -5.726  -1.940  0.00  0.00    -0.160 NA
ATOM      3  N   LIG    1        2.603  -5.808  -3.174  0.00  0.00    -0.218 N 
ATOM      4  C   LIG    1        3.700  -4.938  -3.285  0.00  0.00    +0.129 A 
ATOM      5  C   LIG    1        3.903  -4.448  -2.023  0.00  0.00    +0.078 A 
ENDROOT
BRANCH   3   6
ATOM      6  C   LIG    1        2.041  -6.699  -4.135  0.00  0.00    +0.067 A 
ATOM      7  C   LIG    1        2.814  -7.261  -5.156  0.00  0.00    +0.028 A 
ATOM      8  C   LIG    1        2.249  -8.186  -6.042  0.00  0.00    +0.002 A 
ATOM      9  C   LIG    1        0.913  -8.559  -5.914  0.00  0.00    +0.000 A 
ATOM     10  C   LIG    1        0.134  -8.006  -4.901  0.00  0.00    +0.002 A 
ATOM     11  C   LIG    1        0.696  -7.087  -4.008  0.00  0.00    +0.028 A 
ENDBRANCH   3   6
BRANCH   4  12
ATOM     12  N   LIG    1        4.412  -4.560  -4.429  0.00  0.00    -0.266 N 
ATOM     13  H   LIG    1        4.133  -4.968  -5.312  0.00  0.00    +0.157 HD
ATOM     14  C   LIG    1        5.461  -3.563  -4.415  0.00  0.00    +0.251 C 
ATOM     15  O   LIG    1        5.814  -3.005  -3.394  0.00  0.00    -0.270 OA
BRANCH  14  16
ATOM     16  C   LIG    1        6.051  -3.169  -5.717  0.00  0.00    +0.056 A 
ATOM     17  C   LIG    1        6.175  -4.036  -6.789  0.00  0.00    +0.054 A 
ATOM     18 CL   LIG    1        5.806  -5.716  -6.711  0.00  0.00    -0.083 Cl
ATOM     19  C   LIG    1        6.668  -3.563  -7.999  0.00  0.00    +0.041 A 
ATOM     20  C   LIG    1        7.092  -2.233  -8.138  0.00  0.00    +0.052 A 
ATOM     21 CL   LIG    1        7.666  -1.828  -9.721  0.00  0.00    -0.083 Cl
ATOM     22  C   LIG    1        7.072  -1.338  -7.045  0.00  0.00    +0.022 A 
ATOM     23  C   LIG    1        6.520  -1.839  -5.840  0.00  0.00    +0.026 A 
BRANCH  22  24
ATOM     24  C   LIG    1        7.598   0.052  -7.102  0.00  0.00    +0.107 A 
ATOM     25  C   LIG    1        8.249   0.676  -6.031  0.00  0.00    +0.149 A 
ATOM     26  F   LIG    1        8.424   0.053  -4.856  0.00  0.00    -0.203 F 
ATOM     27  C   LIG    1        8.746   1.968  -6.172  0.00  0.00    +0.042 A 
ATOM     28  C   LIG    1        8.604   2.618  -7.390  0.00  0.00    +0.023 A 
ATOM     29  C   LIG    1        7.942   1.952  -8.405  0.00  0.00    +0.111 A 
ATOM     30  N   LIG    1        7.420   0.709  -8.275  0.00  0.00    -0.252 NA
ENDBRANCH  22  24
ENDBRANCH  14  16
ENDBRANCH   4  12
BRANCH   1  32
ATOM     31  N   LIG    1        1.711  -5.147   0.860  0.00  0.00    -0.241 NA
ATOM     32  C   LIG    1        2.676  -4.636   0.194  0.00  0.00    +0.236 C 
BRANCH  31  34
ATOM     33  C   LIG    1        2.565  -5.312   3.184  0.00  0.00    +0.167 C 
ATOM     34  C   LIG    1        1.487  -4.785   2.253  0.00  0.00    +0.165 C 
ATOM     35  C   LIG    1        0.247  -5.499   2.774  0.00  0.00    +0.189 C 
ATOM     36  O   LIG    1        0.466  -5.811   4.160  0.00  0.00    -0.375 OA
ATOM     37  C   LIG    1        1.810  -5.453   4.492  0.00  0.00    +0.193 C 
BRANCH  33  38
ATOM     38  O   LIG    1        3.654  -4.390   3.254  0.00  0.00    -0.387 OA
ATOM     39  H   LIG    1        4.235  -4.694   3.978  0.00  0.00    +0.210 HD
ENDBRANCH  33  38
ENDBRANCH  31  34
BRANCH  32  40
ATOM     40  O   LIG    1        3.605  -3.789   0.693  0.00  0.00    -0.491 OA
ATOM     41  H   LIG    1        3.567  -3.742   1.668  0.00  0.00    +0.294 HD
ENDBRANCH  32  40
ENDBRANCH   1  32
TORSDOF 8
