REMARK  Name = pdb/CHEMBL3958931.pdb
REMARK                            x       y       z     vdW  Elec       q    Type
REMARK                         _______ _______ _______ _____ _____    ______ ____
ROOT
ATOM      1  C   LIG    1        3.697   0.333   1.125  0.00  0.00    +0.149 A 
ATOM      2  N   LIG    1        4.111   0.002   2.357  0.00  0.00    -0.160 NA
ATOM      3  N   LIG    1        4.397   1.172   2.974  0.00  0.00    -0.218 N 
ATOM      4  C   LIG    1        3.995   2.269   2.208  0.00  0.00    +0.129 A 
ATOM      5  C   LIG    1        3.635   1.744   0.984  0.00  0.00    +0.078 A 
ENDROOT
BRANCH   3   6
ATOM      6  C   LIG    1        5.014   1.150   4.254  0.00  0.00    +0.067 A 
ATOM      7  C   LIG    1        5.806   2.212   4.703  0.00  0.00    +0.028 A 
ATOM      8  C   LIG    1        6.383   2.165   5.977  0.00  0.00    +0.002 A 
ATOM      9  C   LIG    1        6.185   1.055   6.798  0.00  0.00    +0.000 A 
ATOM     10  C   LIG    1        5.431  -0.022   6.340  0.00  0.00    +0.002 A 
ATOM     11  C   LIG    1        4.859   0.016   5.067  0.00  0.00    +0.028 A 
ENDBRANCH   3   6
BRANCH   4  12
ATOM     12  N   LIG    1        3.862   3.602   2.623  0.00  0.00    -0.266 N 
ATOM     13  H   LIG    1        3.857   3.775   3.626  0.00  0.00    +0.157 HD
ATOM     14  C   LIG    1        3.694   4.706   1.719  0.00  0.00    +0.251 C 
ATOM     15  O   LIG    1        3.744   4.523   0.504  0.00  0.00    -0.270 OA
BRANCH  14  16
ATOM     16  C   LIG    1        3.443   6.062   2.266  0.00  0.00    +0.056 A 
ATOM     17  C   LIG    1        3.928   6.525   3.485  0.00  0.00    +0.054 A 
ATOM     18 CL   LIG    1        4.999   5.626   4.486  0.00  0.00    -0.083 Cl
ATOM     19  C   LIG    1        3.576   7.799   3.933  0.00  0.00    +0.041 A 
ATOM     20  C   LIG    1        2.776   8.650   3.153  0.00  0.00    +0.052 A 
ATOM     21 CL   LIG    1        2.287  10.111   3.940  0.00  0.00    -0.083 Cl
ATOM     22  C   LIG    1        2.375   8.278   1.857  0.00  0.00    +0.019 A 
ATOM     23  C   LIG    1        2.697   6.950   1.465  0.00  0.00    +0.026 A 
BRANCH  22  24
ATOM     24  C   LIG    1        1.697   9.157   0.861  0.00  0.00    +0.072 A 
ATOM     25  N   LIG    1        1.016   8.492  -0.110  0.00  0.00    -0.255 NA
ATOM     26  C   LIG    1        0.492   9.201  -1.138  0.00  0.00    +0.111 A 
ATOM     27  C   LIG    1        0.588  10.573  -1.253  0.00  0.00    +0.020 A 
ATOM     28  C   LIG    1        1.265  11.256  -0.256  0.00  0.00    +0.004 A 
ATOM     29  C   LIG    1        1.839  10.543   0.798  0.00  0.00    +0.028 A 
ENDBRANCH  22  24
ENDBRANCH  14  16
ENDBRANCH   4  12
BRANCH   1  30
ATOM     30  C   LIG    1        3.316  -0.682   0.138  0.00  0.00    +0.236 C 
ATOM     31  N   LIG    1        2.869  -0.327  -1.009  0.00  0.00    -0.247 NA
BRANCH  30  32
ATOM     32  O   LIG    1        3.468  -1.959   0.544  0.00  0.00    -0.491 OA
ATOM     33  H   LIG    1        3.104  -2.596  -0.080  0.00  0.00    +0.294 HD
ENDBRANCH  30  32
BRANCH  31  34
ATOM     34  C   LIG    1        2.475  -1.301  -2.027  0.00  0.00    +0.168 C 
BRANCH  34  35
ATOM     35  C   LIG    1        2.689  -0.706  -3.418  0.00  0.00    +0.168 C 
BRANCH  35  36
ATOM     36  N   LIG    1        1.855   0.447  -3.662  0.00  0.00    -0.250 N 
ATOM     37  N   LIG    1        0.622   0.317  -4.183  0.00  0.00    -0.158 NA
ATOM     38  C   LIG    1        0.221   1.591  -4.215  0.00  0.00    +0.244 A 
ATOM     39  N   LIG    1        1.130   2.503  -3.758  0.00  0.00    -0.223 NA
ATOM     40  C   LIG    1        2.153   1.752  -3.422  0.00  0.00    +0.219 A 
ENDBRANCH  35  36
ENDBRANCH  34  35
ENDBRANCH  31  34
ENDBRANCH   1  30
TORSDOF 9
