REMARK  Name = pdb/CHEMBL260092.pdb
REMARK                            x       y       z     vdW  Elec       q    Type
REMARK                         _______ _______ _______ _____ _____    ______ ____
ROOT
ATOM      1  C   LIG    1        2.105   4.740  -0.223  0.00  0.00    -0.004 A 
ATOM      2  C   LIG    1        2.363   5.962   0.399  0.00  0.00    +0.011 A 
ATOM      3  C   LIG    1        1.341   6.913   0.515  0.00  0.00    +0.024 A 
ATOM      4  C   LIG    1        0.062   6.669  -0.007  0.00  0.00    +0.035 A 
ATOM      5  C   LIG    1       -0.182   5.456  -0.649  0.00  0.00    +0.024 A 
ATOM      6  C   LIG    1        0.830   4.493  -0.746  0.00  0.00    +0.011 A 
ENDROOT
BRANCH   1  10
ATOM      7  C   LIG    1        3.366   0.232  -1.089  0.00  0.00    +0.147 A 
ATOM      8  C   LIG    1        3.660   1.362  -0.317  0.00  0.00    +0.143 A 
ATOM      9  N   LIG    1        2.720   2.423  -0.254  0.00  0.00    -0.245 NA
ATOM     10  C   LIG    1        3.130   3.655  -0.290  0.00  0.00    +0.051 C 
ATOM     11  C   LIG    1        4.595   4.026  -0.403  0.00  0.00    +0.074 C 
ATOM     12  C   LIG    1        5.309   3.680   0.894  0.00  0.00    +0.109 C 
ATOM     13  N   LIG    1        5.300   2.274   1.281  0.00  0.00    -0.327 N 
ATOM     14  H   LIG    1        6.193   1.948   1.646  0.00  0.00    +0.148 HD
ATOM     15  C   LIG    1        4.858   1.289   0.404  0.00  0.00    +0.149 A 
ATOM     16  N   LIG    1        5.675   0.219   0.344  0.00  0.00    -0.219 NA
ATOM     17  C   LIG    1        5.285  -0.787  -0.452  0.00  0.00    +0.225 A 
ATOM     18  N   LIG    1        4.166  -0.840  -1.182  0.00  0.00    -0.219 NA
BRANCH   7  19
ATOM     19  N   LIG    1        2.205   0.200  -1.880  0.00  0.00    -0.341 N 
ATOM     20  H   LIG    1        1.419   0.552  -1.340  0.00  0.00    +0.144 HD
ATOM     21  H   LIG    1        2.084  -0.741  -2.236  0.00  0.00    +0.144 HD
ENDBRANCH   7  19
ENDBRANCH   1  10
BRANCH   4  22
ATOM     22  N   LIG    1       -0.911   7.670   0.185  0.00  0.00    -0.269 N 
ATOM     23  H   LIG    1       -0.639   8.431   0.784  0.00  0.00    +0.156 HD
ATOM     24  C   LIG    1       -2.137   7.800  -0.454  0.00  0.00    +0.308 C 
ATOM     25  N   LIG    1       -2.807   8.917   0.016  0.00  0.00    -0.269 N 
ATOM     26  H   LIG    1       -2.359   9.414   0.768  0.00  0.00    +0.156 HD
ATOM     27  O   LIG    1       -2.551   7.047  -1.330  0.00  0.00    -0.252 OA
BRANCH  25  28
ATOM     28  C   LIG    1       -4.047   9.440  -0.403  0.00  0.00    +0.035 A 
ATOM     29  C   LIG    1       -4.488  10.606   0.241  0.00  0.00    +0.035 A 
ATOM     30  C   LIG    1       -5.709  11.216  -0.100  0.00  0.00    +0.057 A 
ATOM     31  C   LIG    1       -6.499  10.633  -1.097  0.00  0.00    +0.012 A 
ATOM     32  C   LIG    1       -6.066   9.475  -1.744  0.00  0.00    +0.002 A 
ATOM     33  C   LIG    1       -4.844   8.885  -1.403  0.00  0.00    +0.023 A 
BRANCH  30  34
ATOM     34  C   LIG    1       -6.134  12.480   0.603  0.00  0.00    +0.417 C 
ATOM     35  F   LIG    1       -5.232  13.489   0.440  0.00  0.00    -0.166 F 
ATOM     36  F   LIG    1       -6.256  12.309   1.949  0.00  0.00    -0.166 F 
ATOM     37  F   LIG    1       -7.329  12.974   0.177  0.00  0.00    -0.166 F 
ENDBRANCH  30  34
ENDBRANCH  25  28
ENDBRANCH   4  22
TORSDOF 5
