REMARK  Name = pdb/CHEMBL3671461.pdb
REMARK                            x       y       z     vdW  Elec       q    Type
REMARK                         _______ _______ _______ _____ _____    ______ ____
ROOT
ATOM      1  C   LIG    1        5.863   1.261   0.053  0.00  0.00    +0.197 C 
ATOM      2  O   LIG    1        6.364   0.133   0.117  0.00  0.00    -0.287 OA
ENDROOT
BRANCH   1   8
ATOM      3  C   LIG    1        0.948  -0.579   0.776  0.00  0.00    +0.214 A 
ATOM      4  N   LIG    1        0.929   0.625   0.208  0.00  0.00    -0.197 NA
ATOM      5  C   LIG    1        2.151   1.146   0.022  0.00  0.00    +0.147 A 
ATOM      6  N   LIG    1        2.426   2.369  -0.521  0.00  0.00    -0.325 N 
ATOM      7  C   LIG    1        3.776   2.542  -0.638  0.00  0.00    +0.100 A 
ATOM      8  C   LIG    1        4.413   1.447  -0.061  0.00  0.00    +0.051 A 
ATOM      9  C   LIG    1        3.364   0.550   0.342  0.00  0.00    +0.048 A 
ATOM     10  C   LIG    1        3.266  -0.701   0.947  0.00  0.00    +0.126 A 
ATOM     11  N   LIG    1        2.043  -1.258   1.149  0.00  0.00    -0.222 NA
BRANCH   6  12
ATOM     12  C   LIG    1        1.474   3.319  -0.895  0.00  0.00    +0.048 C 
ATOM     13  C   LIG    1        1.688   4.845  -1.191  0.00  0.00    +0.032 C 
ATOM     14  C   LIG    1        0.209   4.449  -1.704  0.00  0.00    -0.004 C 
ATOM     15  C   LIG    1       -0.051   3.357  -0.548  0.00  0.00    +0.032 C 
ATOM     16  C   LIG    1        0.979   3.261  -2.387  0.00  0.00    +0.032 C 
ENDBRANCH   6  12
BRANCH   3  17
ATOM     17  N   LIG    1       -0.273  -1.209   0.929  0.00  0.00    -0.327 N 
ATOM     18  H   LIG    1       -0.914  -0.859   0.229  0.00  0.00    +0.145 HD
ATOM     19  H   LIG    1       -0.130  -2.209   0.957  0.00  0.00    +0.145 HD
ENDBRANCH   3  17
ENDBRANCH   1   8
BRANCH   1  20
ATOM     20  C   LIG    1        6.761   2.448   0.101  0.00  0.00    +0.042 A 
ATOM     21  C   LIG    1        8.085   2.399  -0.360  0.00  0.00    +0.038 A 
ATOM     22  C   LIG    1        8.898   3.542  -0.275  0.00  0.00    +0.052 A 
ATOM     23  C   LIG    1        8.335   4.693   0.265  0.00  0.00    +0.134 A 
ATOM     24  N   LIG    1        7.067   4.770   0.729  0.00  0.00    -0.261 NA
ATOM     25  C   LIG    1        6.325   3.645   0.659  0.00  0.00    +0.122 A 
BRANCH  22  26
ATOM     26  N   LIG    1       10.225   3.472  -0.734  0.00  0.00    -0.284 N 
ATOM     27  H   LIG    1       10.549   2.554  -1.047  0.00  0.00    +0.155 HD
ATOM     28  C   LIG    1       11.213   4.441  -0.674  0.00  0.00    +0.223 C 
ATOM     29  O   LIG    1       11.052   5.580  -0.236  0.00  0.00    -0.275 OA
BRANCH  28  30
ATOM     30  C   LIG    1       12.559   4.057  -1.299  0.00  0.00    +0.151 C 
BRANCH  30  31
ATOM     31  C   LIG    1       12.957   2.605  -1.155  0.00  0.00    +0.050 A 
ATOM     32  N   LIG    1       11.951   1.688  -1.135  0.00  0.00    -0.257 NA
ATOM     33  C   LIG    1       12.269   0.387  -0.963  0.00  0.00    +0.149 A 
ATOM     34  C   LIG    1       13.566  -0.059  -0.874  0.00  0.00    +0.141 A 
ATOM     35  F   LIG    1       13.824  -1.362  -0.720  0.00  0.00    -0.204 F 
ATOM     36  C   LIG    1       14.597   0.865  -0.952  0.00  0.00    +0.041 A 
ATOM     37  C   LIG    1       14.295   2.222  -1.092  0.00  0.00    +0.026 A 
ENDBRANCH  30  31
ENDBRANCH  28  30
ENDBRANCH  22  26
ENDBRANCH   1  20
TORSDOF 7
