REMARK  Name = pdb/CHEMBL3673481.pdb
REMARK                            x       y       z     vdW  Elec       q    Type
REMARK                         _______ _______ _______ _____ _____    ______ ____
ROOT
ATOM      1  C   LIG    1       10.552  10.622   3.139  0.00  0.00    +0.161 C 
ENDROOT
BRANCH   1   2
ATOM      2  N   LIG    1        9.876  11.910   3.235  0.00  0.00    -0.293 N 
ATOM      3  C   LIG    1        9.420  12.629   2.168  0.00  0.00    +0.162 A 
ATOM      4  N   LIG    1        9.609  12.346   0.871  0.00  0.00    -0.235 NA
ATOM      5  C   LIG    1        8.997  13.257   0.058  0.00  0.00    +0.121 A 
ATOM      6  C   LIG    1        8.239  14.380   0.423  0.00  0.00    +0.002 A 
ATOM      7  C   LIG    1        8.113  14.588   1.817  0.00  0.00    +0.041 A 
ATOM      8  C   LIG    1        8.725  13.688   2.706  0.00  0.00    +0.110 A 
ATOM      9  N   LIG    1        8.767  13.648   4.073  0.00  0.00    -0.213 NA
ATOM     10  C   LIG    1        9.475  12.602   4.361  0.00  0.00    +0.195 A 
BRANCH   6  11
ATOM     11  C   LIG    1        7.631  15.311  -0.581  0.00  0.00    -0.016 A 
ATOM     12  C   LIG    1        7.781  15.111  -1.971  0.00  0.00    +0.008 A 
ATOM     13  C   LIG    1        7.225  15.980  -2.919  0.00  0.00    +0.001 A 
ATOM     14  C   LIG    1        6.496  17.085  -2.509  0.00  0.00    +0.000 A 
ATOM     15  C   LIG    1        6.317  17.315  -1.151  0.00  0.00    +0.001 A 
ATOM     16  C   LIG    1        6.874  16.440  -0.207  0.00  0.00    +0.008 A 
ENDBRANCH   6  11
BRANCH  10  17
ATOM     17  N   LIG    1        9.761  12.178   5.620  0.00  0.00    -0.329 N 
ATOM     18  H   LIG    1        9.527  12.856   6.343  0.00  0.00    +0.145 HD
ATOM     19  H   LIG    1       10.600  11.673   5.821  0.00  0.00    +0.145 HD
ENDBRANCH  10  17
ENDBRANCH   1   2
BRANCH   1  23
ATOM     20  C   LIG    1        7.787   7.261   2.915  0.00  0.00    +0.162 A 
ATOM     21  C   LIG    1        9.048   7.161   2.301  0.00  0.00    +0.162 A 
ATOM     22  C   LIG    1        9.946   8.253   2.371  0.00  0.00    +0.054 A 
ATOM     23  C   LIG    1        9.599   9.443   3.043  0.00  0.00    -0.024 A 
ATOM     24  C   LIG    1        8.363   9.482   3.690  0.00  0.00    +0.009 A 
ATOM     25  C   LIG    1        7.495   8.399   3.659  0.00  0.00    +0.050 A 
BRANCH  21  26
ATOM     26  O   LIG    1        9.490   6.081   1.567  0.00  0.00    -0.491 OA
ATOM     27  C   LIG    1        8.987   4.799   1.953  0.00  0.00    +0.277 C 
ENDBRANCH  21  26
BRANCH  20  28
ATOM     28  O   LIG    1        6.895   6.250   2.720  0.00  0.00    -0.484 OA
BRANCH  28  29
ATOM     29  C   LIG    1        5.553   6.320   3.177  0.00  0.00    +0.266 C 
BRANCH  29  33
ATOM     30  C   LIG    1        3.040   8.220   0.343  0.00  0.00    +0.214 A 
ATOM     31  N   LIG    1        3.759   8.962   1.201  0.00  0.00    -0.221 NA
ATOM     32  C   LIG    1        4.554   8.307   2.056  0.00  0.00    +0.121 A 
ATOM     33  C   LIG    1        4.650   6.926   2.144  0.00  0.00    +0.008 A 
ATOM     34  C   LIG    1        3.886   6.177   1.243  0.00  0.00    +0.013 A 
ATOM     35  C   LIG    1        3.058   6.835   0.329  0.00  0.00    +0.067 A 
BRANCH  30  37
ATOM     36  C   LIG    1        2.704  10.238  -0.721  0.00  0.00    +0.279 C 
ATOM     37  O   LIG    1        2.259   8.884  -0.577  0.00  0.00    -0.480 OA
ENDBRANCH  30  37
ENDBRANCH  29  33
ENDBRANCH  28  29
ENDBRANCH  20  28
ENDBRANCH   1  23
TORSDOF 9
