REMARK  Name = pdb/CHEMBL3675963.pdb
REMARK                            x       y       z     vdW  Elec       q    Type
REMARK                         _______ _______ _______ _____ _____    ______ ____
ROOT
ATOM      1  C   LIG    1        8.606  -2.601   1.752  0.00  0.00    +0.102 A 
ATOM      2  C   LIG    1        9.590  -3.485   1.308  0.00  0.00    +0.170 A 
ATOM      3  N   LIG    1        9.529  -4.609   0.524  0.00  0.00    -0.212 NA
ATOM      4  C   LIG    1       10.648  -5.269   0.303  0.00  0.00    +0.126 A 
ATOM      5  C   LIG    1       11.966  -4.812   0.886  0.00  0.00    +0.063 A 
ATOM      6  C   LIG    1       11.969  -3.685   1.601  0.00  0.00    +0.118 A 
ATOM      7  N   LIG    1       10.790  -3.001   1.826  0.00  0.00    -0.221 N 
ATOM      8  N   LIG    1       10.626  -1.855   2.529  0.00  0.00    -0.173 NA
ATOM      9  C   LIG    1        9.317  -1.629   2.478  0.00  0.00    +0.150 A 
ENDROOT
BRANCH   4  10
ATOM     10  N   LIG    1       10.635  -6.393  -0.505  0.00  0.00    -0.308 N 
ATOM     11  C   LIG    1        9.602  -6.658  -1.521  0.00  0.00    +0.108 C 
ATOM     12  C   LIG    1        9.777  -8.157  -1.826  0.00  0.00    +0.029 C 
ATOM     13  C   LIG    1       11.248  -8.427  -1.560  0.00  0.00    +0.021 C 
ATOM     14  C   LIG    1       11.581  -7.499  -0.402  0.00  0.00    +0.107 C 
BRANCH  11  15
ATOM     15  C   LIG    1        9.794  -5.776  -2.745  0.00  0.00    +0.011 A 
ATOM     16  C   LIG    1        8.697  -5.455  -3.557  0.00  0.00    +0.129 A 
ATOM     17  F   LIG    1        7.483  -5.936  -3.252  0.00  0.00    -0.205 F 
ATOM     18  C   LIG    1        8.832  -4.633  -4.682  0.00  0.00    +0.041 A 
ATOM     19  C   LIG    1       10.081  -4.110  -5.013  0.00  0.00    +0.041 A 
ATOM     20  C   LIG    1       11.176  -4.421  -4.219  0.00  0.00    +0.124 A 
ATOM     21  F   LIG    1       12.380  -3.917  -4.519  0.00  0.00    -0.205 F 
ATOM     22  C   LIG    1       11.045  -5.248  -3.107  0.00  0.00    +0.046 A 
ENDBRANCH  11  15
ENDBRANCH   4  10
BRANCH   1  25
ATOM     23  N   LIG    1        6.800  -3.710   0.750  0.00  0.00    -0.190 N 
ATOM     24  H   LIG    1        7.399  -4.542   0.648  0.00  0.00    +0.183 HD
ATOM     25  C   LIG    1        7.182  -2.615   1.484  0.00  0.00    +0.272 C 
ATOM     26  O   LIG    1        6.429  -1.721   1.868  0.00  0.00    -0.268 OA
BRANCH  23  27
ATOM     27  O   LIG    1        5.430  -3.867   0.441  0.00  0.00    -0.277 OA
BRANCH  27  28
ATOM     28  C   LIG    1        5.203  -3.239  -0.827  0.00  0.00    +0.223 C 
BRANCH  28  29
ATOM     29  C   LIG    1        3.722  -3.309  -1.212  0.00  0.00    +0.168 C 
BRANCH  29  30
ATOM     30  O   LIG    1        3.328  -4.683  -1.322  0.00  0.00    -0.387 OA
ATOM     31  H   LIG    1        3.367  -5.008  -0.398  0.00  0.00    +0.210 HD
ENDBRANCH  29  30
BRANCH  29  32
ATOM     32  C   LIG    1        2.799  -2.605  -0.209  0.00  0.00    +0.189 C 
BRANCH  32  33
ATOM     33  O   LIG    1        2.803  -3.280   1.047  0.00  0.00    -0.392 OA
ATOM     34  H   LIG    1        2.379  -2.685   1.693  0.00  0.00    +0.210 HD
ENDBRANCH  32  33
ENDBRANCH  29  32
ENDBRANCH  28  29
ENDBRANCH  27  28
ENDBRANCH  23  27
ENDBRANCH   1  25
TORSDOF 9
