REMARK  Name = pdb/CHEMBL3978304.pdb
REMARK                            x       y       z     vdW  Elec       q    Type
REMARK                         _______ _______ _______ _____ _____    ______ ____
ROOT
ATOM      1  C   LIG    1        6.886  -0.448  -2.834  0.00  0.00    +0.149 A 
ATOM      2  N   LIG    1        7.644  -1.414  -3.379  0.00  0.00    -0.160 NA
ATOM      3  N   LIG    1        8.908  -0.901  -3.362  0.00  0.00    -0.218 N 
ATOM      4  C   LIG    1        8.922   0.429  -2.918  0.00  0.00    +0.129 A 
ATOM      5  C   LIG    1        7.656   0.663  -2.442  0.00  0.00    +0.078 A 
ENDROOT
BRANCH   3   6
ATOM      6  C   LIG    1       10.008  -1.718  -3.731  0.00  0.00    +0.067 A 
ATOM      7  C   LIG    1       11.254  -1.563  -3.112  0.00  0.00    +0.028 A 
ATOM      8  C   LIG    1       12.314  -2.407  -3.462  0.00  0.00    +0.002 A 
ATOM      9  C   LIG    1       12.139  -3.392  -4.434  0.00  0.00    +0.000 A 
ATOM     10  C   LIG    1       10.895  -3.557  -5.041  0.00  0.00    +0.002 A 
ATOM     11  C   LIG    1        9.824  -2.737  -4.678  0.00  0.00    +0.028 A 
ENDBRANCH   3   6
BRANCH   4  12
ATOM     12  N   LIG    1        9.942   1.377  -3.066  0.00  0.00    -0.266 N 
ATOM     13  H   LIG    1       10.693   1.162  -3.702  0.00  0.00    +0.157 HD
ATOM     14  C   LIG    1        9.914   2.650  -2.370  0.00  0.00    +0.251 C 
ATOM     15  O   LIG    1        9.041   2.915  -1.582  0.00  0.00    -0.270 OA
BRANCH  14  16
ATOM     16  C   LIG    1       10.979   3.629  -2.663  0.00  0.00    +0.056 A 
ATOM     17  C   LIG    1       12.288   3.295  -3.006  0.00  0.00    +0.056 A 
ATOM     18 CL   LIG    1       12.863   1.670  -3.040  0.00  0.00    -0.083 Cl
ATOM     19  C   LIG    1       13.223   4.296  -3.271  0.00  0.00    +0.059 A 
ATOM     20  C   LIG    1       12.870   5.638  -3.137  0.00  0.00    +0.134 A 
ATOM     21  F   LIG    1       13.825   6.550  -3.377  0.00  0.00    -0.205 F 
ATOM     22  C   LIG    1       11.597   6.030  -2.713  0.00  0.00    +0.036 A 
ATOM     23  C   LIG    1       10.650   5.001  -2.507  0.00  0.00    +0.027 A 
BRANCH  22  24
ATOM     24  C   LIG    1       11.268   7.431  -2.385  0.00  0.00    +0.074 A 
ATOM     25  N   LIG    1       10.441   7.577  -1.317  0.00  0.00    -0.255 NA
ATOM     26  C   LIG    1       10.177   8.831  -0.885  0.00  0.00    +0.111 A 
ATOM     27  C   LIG    1       10.688   9.971  -1.478  0.00  0.00    +0.020 A 
ATOM     28  C   LIG    1       11.507   9.816  -2.587  0.00  0.00    +0.004 A 
ATOM     29  C   LIG    1       11.800   8.534  -3.051  0.00  0.00    +0.028 A 
ENDBRANCH  22  24
ENDBRANCH  14  16
ENDBRANCH   4  12
BRANCH   1  31
ATOM     30  N   LIG    1        4.727   0.500  -2.645  0.00  0.00    -0.246 NA
ATOM     31  C   LIG    1        5.440  -0.563  -2.744  0.00  0.00    +0.236 C 
BRANCH  30  36
ATOM     32  C   LIG    1        1.142   1.886   0.197  0.00  0.00    +0.041 C 
ATOM     33  C   LIG    1        2.652   1.902  -0.064  0.00  0.00    +0.063 C 
ATOM     34  C   LIG    1        2.982   2.616  -1.383  0.00  0.00    +0.036 C 
ATOM     35  C   LIG    1        2.645   1.776  -2.620  0.00  0.00    +0.029 C 
ATOM     36  C   LIG    1        3.269   0.366  -2.573  0.00  0.00    +0.109 C 
ATOM     37  C   LIG    1        2.853  -0.332  -1.274  0.00  0.00    +0.029 C 
ATOM     38  C   LIG    1        3.242   0.487  -0.046  0.00  0.00    +0.036 C 
BRANCH  33  39
ATOM     39  O   LIG    1        3.257   2.651   0.996  0.00  0.00    -0.389 OA
ATOM     40  H   LIG    1        3.131   2.154   1.822  0.00  0.00    +0.210 HD
ENDBRANCH  33  39
ENDBRANCH  30  36
BRANCH  31  41
ATOM     41  O   LIG    1        4.956  -1.824  -2.784  0.00  0.00    -0.491 OA
ATOM     42  H   LIG    1        5.699  -2.453  -2.850  0.00  0.00    +0.294 HD
ENDBRANCH  31  41
ENDBRANCH   1  31
TORSDOF 8
