REMARK  Name = pdb/CHEMBL3671152.pdb
REMARK                            x       y       z     vdW  Elec       q    Type
REMARK                         _______ _______ _______ _____ _____    ______ ____
ROOT
ATOM      1  C   LIG    1        2.599  -4.537  -0.635  0.00  0.00    +0.126 A 
ATOM      2  N   LIG    1        2.082  -3.458  -1.192  0.00  0.00    -0.212 NA
ATOM      3  C   LIG    1        1.040  -3.601  -2.069  0.00  0.00    +0.170 A 
ATOM      4  C   LIG    1        0.249  -2.684  -2.737  0.00  0.00    +0.100 A 
ATOM      5  C   LIG    1       -0.662  -3.477  -3.466  0.00  0.00    +0.150 A 
ATOM      6  N   LIG    1       -0.466  -4.785  -3.310  0.00  0.00    -0.173 NA
ATOM      7  N   LIG    1        0.555  -4.859  -2.426  0.00  0.00    -0.221 N 
ATOM      8  C   LIG    1        1.102  -6.003  -1.878  0.00  0.00    +0.118 A 
ATOM      9  C   LIG    1        2.090  -5.915  -0.983  0.00  0.00    +0.063 A 
ENDROOT
BRANCH   1  11
ATOM     10  C   LIG    1        3.955  -5.318   1.374  0.00  0.00    +0.108 C 
ATOM     11  N   LIG    1        3.646  -4.387   0.269  0.00  0.00    -0.308 N 
ATOM     12  C   LIG    1        4.192  -3.055   0.565  0.00  0.00    +0.107 C 
ATOM     13  C   LIG    1        4.439  -3.071   2.064  0.00  0.00    +0.021 C 
ATOM     14  C   LIG    1        4.870  -4.505   2.310  0.00  0.00    +0.029 C 
BRANCH  10  18
ATOM     15  F   LIG    1        6.706  -7.976  -1.725  0.00  0.00    -0.205 F 
ATOM     16  C   LIG    1        5.985  -7.908  -0.599  0.00  0.00    +0.124 A 
ATOM     17  C   LIG    1        5.406  -6.694  -0.228  0.00  0.00    +0.046 A 
ATOM     18  C   LIG    1        4.623  -6.607   0.935  0.00  0.00    +0.011 A 
ATOM     19  C   LIG    1        4.459  -7.773   1.699  0.00  0.00    +0.129 A 
ATOM     20  F   LIG    1        3.698  -7.744   2.803  0.00  0.00    -0.205 F 
ATOM     21  C   LIG    1        5.050  -8.984   1.332  0.00  0.00    +0.041 A 
ATOM     22  C   LIG    1        5.821  -9.052   0.175  0.00  0.00    +0.041 A 
ENDBRANCH  10  18
ENDBRANCH   1  11
BRANCH   4  23
ATOM     23  C   LIG    1        0.293  -1.236  -2.731  0.00  0.00    +0.249 C 
ATOM     24  N   LIG    1        1.541  -0.690  -2.513  0.00  0.00    -0.310 N 
ATOM     25  H   LIG    1        2.307  -1.312  -2.261  0.00  0.00    +0.149 HD
ATOM     26  O   LIG    1       -0.692  -0.559  -2.978  0.00  0.00    -0.270 OA
BRANCH  24  27
ATOM     27  C   LIG    1        1.764   0.737  -2.632  0.00  0.00    +0.123 C 
BRANCH  27  28
ATOM     28  C   LIG    1        3.227   1.146  -2.452  0.00  0.00    +0.128 C 
BRANCH  28  29
ATOM     29  N   LIG    1        4.114   0.577  -3.449  0.00  0.00    -0.283 N 
ATOM     30  C   LIG    1        4.929  -0.525  -3.248  0.00  0.00    +0.302 C 
ATOM     31  O   LIG    1        4.979  -1.227  -2.249  0.00  0.00    -0.253 OA
ATOM     32  N   LIG    1        5.697  -0.703  -4.387  0.00  0.00    -0.298 N 
ATOM     33  H   LIG    1        6.262  -1.534  -4.488  0.00  0.00    +0.150 HD
ATOM     34  C   LIG    1        5.231   0.149  -5.446  0.00  0.00    +0.124 C 
ATOM     35  C   LIG    1        4.415   1.210  -4.718  0.00  0.00    +0.128 C 
ENDBRANCH  28  29
ENDBRANCH  27  28
ENDBRANCH  24  27
ENDBRANCH   4  23
TORSDOF 6
