REMARK  Name = pdb/CHEMBL3892570.pdb
REMARK                            x       y       z     vdW  Elec       q    Type
REMARK                         _______ _______ _______ _____ _____    ______ ____
ROOT
ATOM      1  C   LIG    1        8.725  -0.803  -3.636  0.00  0.00    +0.149 A 
ATOM      2  N   LIG    1        9.868  -0.636  -4.322  0.00  0.00    -0.160 NA
ATOM      3  N   LIG    1       10.479   0.434  -3.748  0.00  0.00    -0.218 N 
ATOM      4  C   LIG    1        9.703   0.984  -2.720  0.00  0.00    +0.129 A 
ATOM      5  C   LIG    1        8.549   0.226  -2.688  0.00  0.00    +0.078 A 
ENDROOT
BRANCH   3   6
ATOM      6  C   LIG    1       11.757   0.831  -4.237  0.00  0.00    +0.067 A 
ATOM      7  C   LIG    1       12.706   1.458  -3.423  0.00  0.00    +0.028 A 
ATOM      8  C   LIG    1       13.933   1.857  -3.969  0.00  0.00    +0.002 A 
ATOM      9  C   LIG    1       14.216   1.631  -5.317  0.00  0.00    +0.000 A 
ATOM     10  C   LIG    1       13.291   0.973  -6.120  0.00  0.00    +0.002 A 
ATOM     11  C   LIG    1       12.072   0.559  -5.581  0.00  0.00    +0.028 A 
ENDBRANCH   3   6
BRANCH   4  12
ATOM     12  N   LIG    1        9.978   2.123  -1.948  0.00  0.00    -0.266 N 
ATOM     13  H   LIG    1       10.709   2.745  -2.276  0.00  0.00    +0.157 HD
ATOM     14  C   LIG    1        9.274   2.447  -0.729  0.00  0.00    +0.251 C 
ATOM     15  O   LIG    1        8.412   1.710  -0.297  0.00  0.00    -0.270 OA
BRANCH  14  16
ATOM     16  C   LIG    1        9.707   3.648   0.041  0.00  0.00    +0.056 A 
ATOM     17  C   LIG    1       10.237   4.793  -0.543  0.00  0.00    +0.054 A 
ATOM     18 CL   LIG    1       10.418   4.997  -2.247  0.00  0.00    -0.083 Cl
ATOM     19  C   LIG    1       10.627   5.862   0.265  0.00  0.00    +0.041 A 
ATOM     20  C   LIG    1       10.470   5.820   1.660  0.00  0.00    +0.052 A 
ATOM     21 CL   LIG    1       11.025   7.241   2.480  0.00  0.00    -0.083 Cl
ATOM     22  C   LIG    1        9.880   4.709   2.294  0.00  0.00    +0.019 A 
ATOM     23  C   LIG    1        9.530   3.622   1.444  0.00  0.00    +0.026 A 
BRANCH  22  24
ATOM     24  C   LIG    1        9.539   4.621   3.743  0.00  0.00    +0.072 A 
ATOM     25  N   LIG    1        8.404   3.921   4.016  0.00  0.00    -0.255 NA
ATOM     26  C   LIG    1        7.998   3.827   5.307  0.00  0.00    +0.111 A 
ATOM     27  C   LIG    1        8.677   4.385   6.373  0.00  0.00    +0.020 A 
ATOM     28  C   LIG    1        9.841   5.082   6.097  0.00  0.00    +0.004 A 
ATOM     29  C   LIG    1       10.278   5.195   4.777  0.00  0.00    +0.028 A 
ENDBRANCH  22  24
ENDBRANCH  14  16
ENDBRANCH   4  12
BRANCH   1  31
ATOM     30  N   LIG    1        6.755  -2.166  -3.350  0.00  0.00    -0.246 NA
ATOM     31  C   LIG    1        7.875  -1.953  -3.945  0.00  0.00    +0.236 C 
BRANCH  30  35
ATOM     32  C   LIG    1        4.621  -4.042  -1.209  0.00  0.00    +0.115 C 
ATOM     33  C   LIG    1        4.107  -2.935  -2.129  0.00  0.00    +0.033 C 
ATOM     34  C   LIG    1        4.513  -3.137  -3.587  0.00  0.00    +0.029 C 
ATOM     35  C   LIG    1        6.017  -3.381  -3.756  0.00  0.00    +0.109 C 
ATOM     36  C   LIG    1        6.435  -4.578  -2.893  0.00  0.00    +0.029 C 
ATOM     37  C   LIG    1        6.099  -4.368  -1.419  0.00  0.00    +0.033 C 
BRANCH  32  38
ATOM     38  O   LIG    1        4.417  -3.654   0.148  0.00  0.00    -0.392 OA
ATOM     39  H   LIG    1        4.912  -2.828   0.291  0.00  0.00    +0.210 HD
ENDBRANCH  32  38
ENDBRANCH  30  35
BRANCH  31  40
ATOM     40  O   LIG    1        8.399  -2.775  -4.886  0.00  0.00    -0.491 OA
ATOM     41  H   LIG    1        9.258  -2.406  -5.173  0.00  0.00    +0.294 HD
ENDBRANCH  31  40
ENDBRANCH   1  31
TORSDOF 8
