REMARK  Name = pdb/CHEMBL3676038.pdb
REMARK                            x       y       z     vdW  Elec       q    Type
REMARK                         _______ _______ _______ _____ _____    ______ ____
ROOT
ATOM      1  C   LIG    1        8.197  -3.741   0.677  0.00  0.00    +0.100 A 
ATOM      2  C   LIG    1        9.366  -3.403   0.020  0.00  0.00    +0.170 A 
ATOM      3  N   LIG    1        9.956  -2.189  -0.222  0.00  0.00    -0.212 NA
ATOM      4  C   LIG    1       11.079  -2.167  -0.905  0.00  0.00    +0.126 A 
ATOM      5  C   LIG    1       11.751  -3.442  -1.368  0.00  0.00    +0.063 A 
ATOM      6  C   LIG    1       11.123  -4.596  -1.120  0.00  0.00    +0.118 A 
ATOM      7  N   LIG    1        9.924  -4.600  -0.429  0.00  0.00    -0.221 N 
ATOM      8  N   LIG    1        9.166  -5.671  -0.097  0.00  0.00    -0.173 NA
ATOM      9  C   LIG    1        8.135  -5.145   0.570  0.00  0.00    +0.150 A 
ENDROOT
BRANCH   4  10
ATOM     10  N   LIG    1       11.658  -0.943  -1.219  0.00  0.00    -0.308 N 
ATOM     11  C   LIG    1       10.983   0.340  -0.923  0.00  0.00    +0.108 C 
ATOM     12  C   LIG    1       11.055   1.065  -2.277  0.00  0.00    +0.029 C 
ATOM     13  C   LIG    1       12.420   0.665  -2.806  0.00  0.00    +0.021 C 
ATOM     14  C   LIG    1       12.528  -0.793  -2.394  0.00  0.00    +0.107 C 
BRANCH  11  15
ATOM     15  C   LIG    1       11.661   1.107   0.203  0.00  0.00    +0.011 A 
ATOM     16  C   LIG    1       11.184   2.381   0.551  0.00  0.00    +0.129 A 
ATOM     17  F   LIG    1       10.131   2.898  -0.099  0.00  0.00    -0.205 F 
ATOM     18  C   LIG    1       11.771   3.140   1.564  0.00  0.00    +0.041 A 
ATOM     19  C   LIG    1       12.849   2.621   2.274  0.00  0.00    +0.041 A 
ATOM     20  C   LIG    1       13.319   1.351   1.962  0.00  0.00    +0.124 A 
ATOM     21  F   LIG    1       14.351   0.845   2.649  0.00  0.00    -0.205 F 
ATOM     22  C   LIG    1       12.739   0.595   0.944  0.00  0.00    +0.046 A 
ENDBRANCH  11  15
ENDBRANCH   4  10
BRANCH   1  25
ATOM     23  N   LIG    1        7.553  -1.515   1.227  0.00  0.00    -0.308 N 
ATOM     24  H   LIG    1        8.455  -1.290   0.812  0.00  0.00    +0.149 HD
ATOM     25  C   LIG    1        7.244  -2.858   1.322  0.00  0.00    +0.249 C 
ATOM     26  O   LIG    1        6.244  -3.286   1.893  0.00  0.00    -0.270 OA
BRANCH  23  29
ATOM     27  C   LIG    1        5.724   0.498  -0.101  0.00  0.00    +0.116 C 
ATOM     28  C   LIG    1        5.394  -0.310   1.145  0.00  0.00    +0.053 C 
ATOM     29  C   LIG    1        6.747  -0.470   1.832  0.00  0.00    +0.076 C 
ATOM     30  C   LIG    1        7.383   0.913   1.645  0.00  0.00    +0.025 C 
ATOM     31  C   LIG    1        6.813   1.474   0.339  0.00  0.00    +0.033 C 
BRANCH  27  32
ATOM     32  O   LIG    1        4.576   1.180  -0.572  0.00  0.00    -0.392 OA
ATOM     33  H   LIG    1        4.841   1.695  -1.353  0.00  0.00    +0.210 HD
ENDBRANCH  27  32
ENDBRANCH  23  29
ENDBRANCH   1  25
TORSDOF 5
