REMARK  Name = pdb/CHEMBL3671427.pdb
REMARK                            x       y       z     vdW  Elec       q    Type
REMARK                         _______ _______ _______ _____ _____    ______ ____
ROOT
ATOM      1  C   LIG    1        5.162   3.740   0.886  0.00  0.00    +0.197 C 
ATOM      2  O   LIG    1        4.155   3.207   0.455  0.00  0.00    -0.287 OA
ENDROOT
BRANCH   1  10
ATOM      3  N   LIG    1        8.140   2.279   2.504  0.00  0.00    -0.323 N 
ATOM      4  C   LIG    1        7.795   1.260   1.639  0.00  0.00    +0.147 A 
ATOM      5  N   LIG    1        8.437   0.090   1.506  0.00  0.00    -0.197 NA
ATOM      6  C   LIG    1        7.886  -0.736   0.614  0.00  0.00    +0.214 A 
ATOM      7  N   LIG    1        6.811  -0.478  -0.140  0.00  0.00    -0.222 NA
ATOM      8  C   LIG    1        6.174   0.707   0.019  0.00  0.00    +0.126 A 
ATOM      9  C   LIG    1        6.667   1.643   0.925  0.00  0.00    +0.048 A 
ATOM     10  C   LIG    1        6.318   2.960   1.346  0.00  0.00    +0.051 A 
ATOM     11  C   LIG    1        7.257   3.321   2.297  0.00  0.00    +0.100 A 
BRANCH   3  13
ATOM     12  C   LIG    1        8.589   1.604   4.830  0.00  0.00    +0.036 C 
ATOM     13  C   LIG    1        9.190   2.223   3.552  0.00  0.00    +0.064 C 
ATOM     14  C   LIG    1        9.718   3.632   3.929  0.00  0.00    +0.036 C 
BRANCH  13  15
ATOM     15  C   LIG    1       10.418   1.365   3.133  0.00  0.00    +0.183 C 
BRANCH  15  16
ATOM     16  O   LIG    1       11.025   1.848   1.936  0.00  0.00    -0.393 OA
ATOM     17  H   LIG    1       10.454   1.545   1.203  0.00  0.00    +0.209 HD
ENDBRANCH  15  16
ENDBRANCH  13  15
ENDBRANCH   3  13
BRANCH   6  18
ATOM     18  N   LIG    1        8.527  -1.941   0.413  0.00  0.00    -0.327 N 
ATOM     19  H   LIG    1        9.494  -1.874   0.696  0.00  0.00    +0.145 HD
ATOM     20  H   LIG    1        8.339  -2.276  -0.522  0.00  0.00    +0.145 HD
ENDBRANCH   6  18
ENDBRANCH   1  10
BRANCH   1  21
ATOM     21  C   LIG    1        5.223   5.224   0.954  0.00  0.00    +0.042 A 
ATOM     22  C   LIG    1        6.394   5.952   0.754  0.00  0.00    +0.038 A 
ATOM     23  C   LIG    1        6.394   7.346   0.867  0.00  0.00    +0.052 A 
ATOM     24  C   LIG    1        5.176   7.953   1.165  0.00  0.00    +0.134 A 
ATOM     25  N   LIG    1        4.005   7.279   1.318  0.00  0.00    -0.261 NA
ATOM     26  C   LIG    1        4.049   5.929   1.195  0.00  0.00    +0.122 A 
BRANCH  23  27
ATOM     27  N   LIG    1        7.621   8.015   0.671  0.00  0.00    -0.283 N 
ATOM     28  H   LIG    1        8.410   7.442   0.387  0.00  0.00    +0.155 HD
ATOM     29  C   LIG    1        7.840   9.387   0.722  0.00  0.00    +0.239 C 
ATOM     30  O   LIG    1        6.985  10.227   0.985  0.00  0.00    -0.273 OA
BRANCH  29  31
ATOM     31  C   LIG    1        9.267   9.790   0.441  0.00  0.00    +0.239 C 
BRANCH  31  32
ATOM     32  N   LIG    1        9.457  10.052  -0.969  0.00  0.00    -0.261 N 
ATOM     33  N   LIG    1        9.864   9.044  -1.777  0.00  0.00    -0.171 NA
ATOM     34  C   LIG    1        9.937   9.600  -3.001  0.00  0.00    +0.093 A 
ATOM     35  C   LIG    1       10.280   9.031  -4.239  0.00  0.00    +0.030 A 
ATOM     36  C   LIG    1       10.221   9.941  -5.321  0.00  0.00    +0.002 A 
ATOM     37  C   LIG    1        9.858  11.318  -5.178  0.00  0.00    +0.001 A 
ATOM     38  C   LIG    1        9.520  11.918  -3.948  0.00  0.00    +0.011 A 
ATOM     39  C   LIG    1        9.581  10.995  -2.911  0.00  0.00    +0.020 A 
ATOM     40  C   LIG    1        9.295  11.253  -1.600  0.00  0.00    +0.117 A 
ENDBRANCH  31  32
ENDBRANCH  29  31
ENDBRANCH  23  27
ENDBRANCH   1  21
TORSDOF 9
