REMARK  Name = pdb/CHEMBL1980995.pdb
REMARK                            x       y       z     vdW  Elec       q    Type
REMARK                         _______ _______ _______ _____ _____    ______ ____
ROOT
ATOM      1  C   LIG    1        1.511  -1.234  -1.482  0.00  0.00    +0.091 C 
ATOM      2  C   LIG    1        2.240  -2.164  -0.474  0.00  0.00    +0.187 C 
ATOM      3  C   LIG    1        1.236  -2.938   0.459  0.00  0.00    +0.174 C 
ATOM      4  N   LIG    1        0.563  -4.051  -0.215  0.00  0.00    -0.307 N 
ATOM      5  C   LIG    1       -0.700  -4.159  -0.722  0.00  0.00    +0.077 A 
ATOM      6  C   LIG    1       -1.629  -3.137  -0.885  0.00  0.00    +0.077 A 
ATOM      7  N   LIG    1       -1.461  -1.843  -0.523  0.00  0.00    -0.311 N 
ATOM      8  C   LIG    1       -2.625  -1.254  -1.055  0.00  0.00    +0.052 A 
ATOM      9  C   LIG    1       -3.011   0.102  -1.025  0.00  0.00    +0.026 A 
ATOM     10  C   LIG    1       -4.190   0.494  -1.658  0.00  0.00    +0.002 A 
ATOM     11  C   LIG    1       -4.990  -0.435  -2.305  0.00  0.00    +0.001 A 
ATOM     12  C   LIG    1       -4.635  -1.788  -2.330  0.00  0.00    +0.010 A 
ATOM     13  C   LIG    1       -3.450  -2.243  -1.708  0.00  0.00    +0.008 A 
ATOM     14  C   LIG    1       -0.402  -1.176   0.190  0.00  0.00    +0.224 C 
ATOM     15  C   LIG    1       -2.804  -3.497  -1.566  0.00  0.00    +0.022 A 
ATOM     16  C   LIG    1       -3.241  -4.736  -2.081  0.00  0.00    +0.052 A 
ATOM     17  C   LIG    1       -4.369  -5.250  -2.791  0.00  0.00    +0.245 C 
ATOM     18  O   LIG    1       -5.416  -4.770  -3.208  0.00  0.00    -0.270 OA
ATOM     19  N   LIG    1       -4.058  -6.597  -2.974  0.00  0.00    -0.307 N 
ATOM     20  H   LIG    1       -4.712  -7.193  -3.461  0.00  0.00    +0.149 HD
ATOM     21  C   LIG    1       -2.784  -7.042  -2.435  0.00  0.00    +0.141 C 
ATOM     22  C   LIG    1       -2.317  -5.780  -1.871  0.00  0.00    -0.008 A 
ATOM     23  C   LIG    1       -1.129  -5.393  -1.224  0.00  0.00    +0.015 A 
ATOM     24  C   LIG    1        0.005  -6.207  -1.023  0.00  0.00    +0.008 A 
ATOM     25  C   LIG    1        0.301  -7.570  -1.265  0.00  0.00    +0.010 A 
ATOM     26  C   LIG    1        1.571  -8.087  -1.010  0.00  0.00    +0.001 A 
ATOM     27  C   LIG    1        2.579  -7.261  -0.543  0.00  0.00    +0.002 A 
ATOM     28  C   LIG    1        2.340  -5.907  -0.289  0.00  0.00    +0.026 A 
ATOM     29  C   LIG    1        1.050  -5.364  -0.478  0.00  0.00    +0.053 A 
ATOM     30  C   LIG    1        1.975  -3.441   1.727  0.00  0.00    +0.069 C 
ATOM     31  O   LIG    1        0.249  -2.081   1.059  0.00  0.00    -0.328 OA
ATOM     32  C   LIG    1        0.541  -0.358  -0.685  0.00  0.00    +0.076 C 
ENDROOT
BRANCH   1  34
ATOM     33  C   LIG    1        1.663  -2.641  -3.490  0.00  0.00    +0.101 C 
ATOM     34  N   LIG    1        0.806  -1.888  -2.590  0.00  0.00    -0.314 NA
ATOM     35  H   LIG    1        0.267  -1.206  -3.127  0.00  0.00    +0.122 HD
ENDBRANCH   1  34
BRANCH   2  36
ATOM     36  O   LIG    1        3.135  -1.381   0.364  0.00  0.00    -0.373 OA
ATOM     37  C   LIG    1        4.153  -0.675  -0.332  0.00  0.00    +0.194 C 
ENDBRANCH   2  36
TORSDOF 2
