REMARK  Name = pdb/CHEMBL3676093.pdb
REMARK                            x       y       z     vdW  Elec       q    Type
REMARK                         _______ _______ _______ _____ _____    ______ ____
ROOT
ATOM      1  C   LIG    1        3.767  -3.956  -1.658  0.00  0.00    +0.126 A 
ATOM      2  N   LIG    1        3.499  -2.968  -2.495  0.00  0.00    -0.212 NA
ATOM      3  C   LIG    1        2.828  -3.266  -3.664  0.00  0.00    +0.170 A 
ATOM      4  C   LIG    1        2.352  -2.486  -4.714  0.00  0.00    +0.101 A 
ATOM      5  C   LIG    1        1.772  -3.416  -5.608  0.00  0.00    +0.150 A 
ATOM      6  N   LIG    1        1.849  -4.674  -5.185  0.00  0.00    -0.173 NA
ATOM      7  N   LIG    1        2.469  -4.581  -3.989  0.00  0.00    -0.221 N 
ATOM      8  C   LIG    1        2.730  -5.619  -3.118  0.00  0.00    +0.118 A 
ATOM      9  C   LIG    1        3.339  -5.379  -1.956  0.00  0.00    +0.063 A 
ENDROOT
BRANCH   1  11
ATOM     10  C   LIG    1        4.920  -2.383  -0.031  0.00  0.00    +0.110 C 
ATOM     11  N   LIG    1        4.444  -3.716  -0.462  0.00  0.00    -0.308 N 
ATOM     12  C   LIG    1        5.121  -4.762   0.309  0.00  0.00    +0.107 C 
ATOM     13  C   LIG    1        6.355  -4.092   0.884  0.00  0.00    +0.021 C 
ATOM     14  C   LIG    1        5.873  -2.681   1.149  0.00  0.00    +0.029 C 
BRANCH  10  19
ATOM     15  C   LIG    1        3.292   2.300   0.578  0.00  0.00    +0.152 C 
ATOM     16  N   LIG    1        3.058   0.869   0.685  0.00  0.00    -0.315 N 
ATOM     17  C   LIG    1        4.101  -0.003   0.353  0.00  0.00    +0.256 A 
ATOM     18  O   LIG    1        5.224   0.373   0.025  0.00  0.00    -0.267 OA
ATOM     19  C   LIG    1        3.797  -1.477   0.418  0.00  0.00    +0.040 A 
ATOM     20  C   LIG    1        2.586  -1.859   0.868  0.00  0.00    +0.050 A 
ATOM     21  C   LIG    1        1.602  -0.895   1.275  0.00  0.00    +0.140 A 
ATOM     22  F   LIG    1        0.431  -1.339   1.771  0.00  0.00    -0.204 F 
ATOM     23  C   LIG    1        1.844   0.413   1.165  0.00  0.00    +0.127 A 
ENDBRANCH  10  19
ENDBRANCH   1  11
BRANCH   4  24
ATOM     24  C   LIG    1        2.393  -1.047  -4.927  0.00  0.00    +0.253 C 
ATOM     25  N   LIG    1        3.128  -0.343  -4.000  0.00  0.00    -0.280 N 
ATOM     26  H   LIG    1        3.602  -0.906  -3.292  0.00  0.00    +0.155 HD
ATOM     27  O   LIG    1        1.829  -0.556  -5.908  0.00  0.00    -0.270 OA
BRANCH  25  28
ATOM     28  C   LIG    1        3.362   1.050  -3.980  0.00  0.00    +0.052 A 
ATOM     29  C   LIG    1        4.385   1.550  -3.178  0.00  0.00    +0.134 A 
ATOM     30  N   LIG    1        4.698   2.865  -3.048  0.00  0.00    -0.261 NA
ATOM     31  C   LIG    1        3.953   3.735  -3.757  0.00  0.00    +0.111 A 
ATOM     32  C   LIG    1        2.916   3.349  -4.588  0.00  0.00    +0.021 A 
ATOM     33  C   LIG    1        2.621   1.986  -4.703  0.00  0.00    +0.026 A 
ENDBRANCH  25  28
ENDBRANCH   4  24
TORSDOF 4
