REMARK  Name = pdb/CHEMBL3675926.pdb
REMARK                            x       y       z     vdW  Elec       q    Type
REMARK                         _______ _______ _______ _____ _____    ______ ____
ROOT
ATOM      1  C   LIG    1        2.197  -2.188   0.418  0.00  0.00    +0.126 A 
ATOM      2  N   LIG    1        2.239  -1.191  -0.438  0.00  0.00    -0.212 NA
ATOM      3  C   LIG    1        1.571  -1.341  -1.626  0.00  0.00    +0.170 A 
ATOM      4  C   LIG    1        1.574  -0.575  -2.778  0.00  0.00    +0.100 A 
ATOM      5  C   LIG    1        0.763  -1.299  -3.677  0.00  0.00    +0.150 A 
ATOM      6  N   LIG    1        0.253  -2.412  -3.148  0.00  0.00    -0.173 NA
ATOM      7  N   LIG    1        0.790  -2.461  -1.907  0.00  0.00    -0.221 N 
ATOM      8  C   LIG    1        0.676  -3.483  -0.983  0.00  0.00    +0.118 A 
ATOM      9  C   LIG    1        1.341  -3.413   0.174  0.00  0.00    +0.063 A 
ENDROOT
BRANCH   1  11
ATOM     10  C   LIG    1        3.767  -0.965   1.953  0.00  0.00    +0.105 C 
ATOM     11  N   LIG    1        2.951  -2.127   1.579  0.00  0.00    -0.308 N 
ATOM     12  C   LIG    1        3.475  -3.339   2.214  0.00  0.00    +0.107 C 
ATOM     13  C   LIG    1        4.846  -2.953   2.741  0.00  0.00    +0.021 C 
ATOM     14  C   LIG    1        4.695  -1.481   3.066  0.00  0.00    +0.029 C 
BRANCH  10  16
ATOM     15  C   LIG    1        1.741   0.287   3.056  0.00  0.00    -0.017 A 
ATOM     16  C   LIG    1        2.996   0.275   2.397  0.00  0.00    -0.019 A 
ATOM     17  C   LIG    1        3.619   1.520   2.141  0.00  0.00    +0.044 A 
ATOM     18  C   LIG    1        3.008   2.723   2.481  0.00  0.00    +0.124 A 
ATOM     19  F   LIG    1        3.623   3.880   2.202  0.00  0.00    -0.205 F 
ATOM     20  C   LIG    1        1.775   2.738   3.102  0.00  0.00    +0.039 A 
ATOM     21  C   LIG    1        1.151   1.528   3.395  0.00  0.00    +0.009 A 
BRANCH  15  22
ATOM     22  C   LIG    1        0.953  -0.953   3.414  0.00  0.00    +0.191 C 
BRANCH  22  23
ATOM     23  O   LIG    1        1.595  -1.727   4.418  0.00  0.00    -0.390 OA
ATOM     24  H   LIG    1        2.148  -1.121   4.937  0.00  0.00    +0.210 HD
ENDBRANCH  22  23
ENDBRANCH  15  22
ENDBRANCH  10  16
ENDBRANCH   1  11
BRANCH   4  25
ATOM     25  C   LIG    1        2.303   0.649  -3.029  0.00  0.00    +0.249 C 
ATOM     26  N   LIG    1        3.029   1.132  -1.959  0.00  0.00    -0.308 N 
ATOM     27  H   LIG    1        2.951   0.626  -1.077  0.00  0.00    +0.149 HD
ATOM     28  O   LIG    1        2.280   1.194  -4.137  0.00  0.00    -0.270 OA
BRANCH  26  29
ATOM     29  C   LIG    1        3.920   2.238  -2.076  0.00  0.00    +0.073 C 
ATOM     30  C   LIG    1        5.288   2.012  -2.665  0.00  0.00    +0.024 C 
ATOM     31  C   LIG    1        5.148   2.394  -1.224  0.00  0.00    +0.024 C 
ENDBRANCH  26  29
ENDBRANCH   4  25
TORSDOF 6
