REMARK  Name = pdb/CHEMBL3974598.pdb
REMARK                            x       y       z     vdW  Elec       q    Type
REMARK                         _______ _______ _______ _____ _____    ______ ____
ROOT
ATOM      1  C   UNK A  0        5.013  -1.322   2.674  0.00  0.00    +0.149 A 
ATOM      2  N   UNK A  0        4.492  -2.197   3.551  0.00  0.00    -0.160 NA
ATOM      3  N   UNK A  0        5.060  -1.901   4.746  0.00  0.00    -0.218 N 
ATOM      4  C   UNK A  0        5.769  -0.699   4.696  0.00  0.00    +0.129 A 
ATOM      5  C   UNK A  0        5.818  -0.373   3.351  0.00  0.00    +0.078 A 
ENDROOT
BRANCH   3   6
ATOM      6  C   UNK A  0        4.908  -2.819   5.824  0.00  0.00    +0.067 A 
ATOM      7  C   UNK A  0        5.923  -3.007   6.771  0.00  0.00    +0.028 A 
ATOM      8  C   UNK A  0        5.785  -4.008   7.744  0.00  0.00    +0.002 A 
ATOM      9  C   UNK A  0        4.631  -4.793   7.798  0.00  0.00    +0.000 A 
ATOM     10  C   UNK A  0        3.613  -4.595   6.870  0.00  0.00    +0.002 A 
ATOM     11  C   UNK A  0        3.759  -3.628   5.872  0.00  0.00    +0.028 A 
ENDBRANCH   3   6
BRANCH   4  12
ATOM     12  N   UNK A  0        6.248   0.089   5.759  0.00  0.00    -0.266 N 
ATOM     13  H   UNK A  0        5.865  -0.102   6.688  0.00  0.00    +0.157 HD
ATOM     14  C   UNK A  0        7.169   1.175   5.583  0.00  0.00    +0.251 C 
ATOM     15  O   UNK A  0        7.688   1.358   4.482  0.00  0.00    -0.270 OA
BRANCH  14  16
ATOM     16  C   UNK A  0        7.504   2.119   6.691  0.00  0.00    +0.056 A 
ATOM     17  C   UNK A  0        7.515   1.754   8.024  0.00  0.00    +0.054 A 
ATOM     18 CL   UNK A  0        7.302   0.133   8.568  0.00  0.00    -0.083 Cl
ATOM     19  C   UNK A  0        7.776   2.731   8.987  0.00  0.00    +0.041 A 
ATOM     20  C   UNK A  0        8.093   4.052   8.623  0.00  0.00    +0.052 A 
ATOM     21 CL   UNK A  0        8.322   5.139   9.954  0.00  0.00    -0.083 Cl
ATOM     22  C   UNK A  0        8.235   4.418   7.267  0.00  0.00    +0.022 A 
ATOM     23  C   UNK A  0        7.888   3.423   6.321  0.00  0.00    +0.026 A 
BRANCH  22  24
ATOM     24  C   UNK A  0        8.771   5.734   6.812  0.00  0.00    +0.107 A 
ATOM     25  C   UNK A  0        9.624   5.874   5.709  0.00  0.00    +0.149 A 
ATOM     26  F   UNK A  0        9.956   4.825   4.942  0.00  0.00    -0.203 F 
ATOM     27  C   UNK A  0       10.173   7.116   5.398  0.00  0.00    +0.042 A 
ATOM     28  C   UNK A  0        9.865   8.210   6.194  0.00  0.00    +0.023 A 
ATOM     29  C   UNK A  0        8.998   8.012   7.253  0.00  0.00    +0.111 A 
ATOM     30  N   UNK A  0        8.436   6.816   7.557  0.00  0.00    -0.252 NA
ENDBRANCH  22  24
ENDBRANCH  14  16
ENDBRANCH   4  12
BRANCH   1  32
ATOM     31  N   ALA A  1        5.143  -0.418   0.462  0.00  0.00    -0.244 NA
ATOM     32  C   UNK A  0        4.693  -1.341   1.238  0.00  0.00    +0.236 C 
BRANCH  31  34
ATOM     33  CB  ALA A  1        6.005   0.238  -1.719  0.00  0.00    +0.035 C 
ATOM     34  CA  ALA A  1        4.853  -0.442  -0.983  0.00  0.00    +0.131 C 
BRANCH  34  35
ATOM     35  C   ALA A  1        3.545   0.306  -1.282  0.00  0.00    +0.182 C 
BRANCH  35  36
ATOM     36  O   ALA A  1        2.444  -0.386  -0.697  0.00  0.00    -0.393 OA
ATOM     37  H   ALA A  1        1.653   0.151  -0.894  0.00  0.00    +0.209 HD
ENDBRANCH  35  36
ENDBRANCH  34  35
ENDBRANCH  31  34
BRANCH  32  38
ATOM     38  O   UNK A  0        3.909  -2.367   0.843  0.00  0.00    -0.491 OA
ATOM     39  H   UNK A  0        3.512  -2.185  -0.021  0.00  0.00    +0.294 HD
ENDBRANCH  32  38
ENDBRANCH   1  32
TORSDOF 9
