REMARK  Name = pdb/CHEMBL3910605.pdb
REMARK                            x       y       z     vdW  Elec       q    Type
REMARK                         _______ _______ _______ _____ _____    ______ ____
ROOT
ATOM      1  C   LIG    1        2.610   4.399   0.506  0.00  0.00    +0.149 A 
ATOM      2  N   LIG    1        3.119   5.610   0.765  0.00  0.00    -0.160 NA
ATOM      3  N   LIG    1        2.093   6.340   1.287  0.00  0.00    -0.218 N 
ATOM      4  C   LIG    1        0.931   5.565   1.436  0.00  0.00    +0.129 A 
ATOM      5  C   LIG    1        1.241   4.355   0.856  0.00  0.00    +0.078 A 
ENDROOT
BRANCH   3   6
ATOM      6  C   LIG    1        2.298   7.731   1.538  0.00  0.00    +0.067 A 
ATOM      7  C   LIG    1        1.518   8.455   2.443  0.00  0.00    +0.028 A 
ATOM      8  C   LIG    1        1.695   9.836   2.581  0.00  0.00    +0.002 A 
ATOM      9  C   LIG    1        2.674  10.497   1.844  0.00  0.00    +0.000 A 
ATOM     10  C   LIG    1        3.493   9.778   0.979  0.00  0.00    +0.002 A 
ATOM     11  C   LIG    1        3.314   8.400   0.830  0.00  0.00    +0.028 A 
ENDBRANCH   3   6
BRANCH   4  12
ATOM     12  N   LIG    1       -0.320   5.918   1.969  0.00  0.00    -0.266 N 
ATOM     13  H   LIG    1       -0.459   6.869   2.275  0.00  0.00    +0.157 HD
ATOM     14  C   LIG    1       -1.433   5.015   2.092  0.00  0.00    +0.251 C 
ATOM     15  O   LIG    1       -1.370   3.870   1.652  0.00  0.00    -0.270 OA
BRANCH  14  16
ATOM     16  C   LIG    1       -2.648   5.453   2.819  0.00  0.00    +0.056 A 
ATOM     17  C   LIG    1       -3.102   6.767   2.875  0.00  0.00    +0.054 A 
ATOM     18 CL   LIG    1       -2.309   8.080   2.088  0.00  0.00    -0.083 Cl
ATOM     19  C   LIG    1       -4.289   7.054   3.552  0.00  0.00    +0.041 A 
ATOM     20  C   LIG    1       -5.047   6.041   4.169  0.00  0.00    +0.052 A 
ATOM     21 CL   LIG    1       -6.562   6.568   4.817  0.00  0.00    -0.083 Cl
ATOM     22  C   LIG    1       -4.616   4.700   4.157  0.00  0.00    +0.022 A 
ATOM     23  C   LIG    1       -3.406   4.446   3.460  0.00  0.00    +0.026 A 
BRANCH  22  24
ATOM     24  C   LIG    1       -5.346   3.542   4.747  0.00  0.00    +0.107 A 
ATOM     25  C   LIG    1       -6.072   3.560   5.940  0.00  0.00    +0.149 A 
ATOM     26  F   LIG    1       -6.107   4.638   6.734  0.00  0.00    -0.203 F 
ATOM     27  C   LIG    1       -6.741   2.417   6.371  0.00  0.00    +0.042 A 
ATOM     28  C   LIG    1       -6.628   1.244   5.638  0.00  0.00    +0.023 A 
ATOM     29  C   LIG    1       -5.848   1.271   4.497  0.00  0.00    +0.111 A 
ATOM     30  N   LIG    1       -5.220   2.381   4.037  0.00  0.00    -0.252 NA
ENDBRANCH  22  24
ENDBRANCH  14  16
ENDBRANCH   4  12
BRANCH   1  32
ATOM     31  N   LIG    1        2.753   2.192  -0.324  0.00  0.00    -0.243 NA
ATOM     32  C   LIG    1        3.371   3.285  -0.067  0.00  0.00    +0.236 C 
BRANCH  31  34
ATOM     33  C   LIG    1        4.172   0.185  -0.013  0.00  0.00    +0.165 C 
ATOM     34  C   LIG    1        3.404   1.070  -1.009  0.00  0.00    +0.142 C 
ATOM     35  C   LIG    1        2.290   0.283  -1.705  0.00  0.00    +0.057 C 
ATOM     36  C   LIG    1        2.807  -1.034  -2.254  0.00  0.00    +0.162 C 
ATOM     37  O   LIG    1        3.385  -1.809  -1.206  0.00  0.00    -0.377 OA
ATOM     38  C   LIG    1        4.525  -1.167  -0.643  0.00  0.00    +0.193 C 
BRANCH  33  39
ATOM     39  O   LIG    1        5.369   0.877   0.375  0.00  0.00    -0.387 OA
ATOM     40  H   LIG    1        5.811   0.314   1.039  0.00  0.00    +0.210 HD
ENDBRANCH  33  39
ENDBRANCH  31  34
BRANCH  32  41
ATOM     41  O   LIG    1        4.686   3.490  -0.272  0.00  0.00    -0.491 OA
ATOM     42  H   LIG    1        5.148   2.636  -0.352  0.00  0.00    +0.294 HD
ENDBRANCH  32  41
ENDBRANCH   1  32
TORSDOF 8
