REMARK  Name = pdb/CHEMBL3938236.pdb
REMARK                            x       y       z     vdW  Elec       q    Type
REMARK                         _______ _______ _______ _____ _____    ______ ____
ROOT
ATOM      1  C   LIG    1        0.156  -6.560  -0.869  0.00  0.00    +0.323 A 
ATOM      2  N   LIG    1        0.084  -6.460  -2.209  0.00  0.00    -0.201 NA
ATOM      3  C   LIG    1       -1.133  -6.217  -2.755  0.00  0.00    +0.145 A 
ATOM      4  C   LIG    1       -2.292  -6.051  -2.029  0.00  0.00    +0.105 A 
ATOM      5  C   LIG    1       -2.070  -6.175  -0.661  0.00  0.00    +0.145 A 
ATOM      6  N   LIG    1       -0.887  -6.420  -0.053  0.00  0.00    -0.201 NA
ENDROOT
BRANCH   4   7
ATOM      7  N   LIG    1       -3.488  -5.734  -2.700  0.00  0.00    -0.196 NA
ATOM      8  C   LIG    1       -4.606  -5.506  -2.085  0.00  0.00    +0.285 C 
BRANCH   8   9
ATOM      9  N   LIG    1       -5.738  -5.074  -2.699  0.00  0.00    -0.269 N 
ATOM     10  H   LIG    1       -5.545  -4.791  -3.636  0.00  0.00    +0.157 HD
BRANCH   9  11
ATOM     11  C   LIG    1       -7.090  -5.078  -2.273  0.00  0.00    +0.043 A 
ATOM     12  C   LIG    1       -8.053  -4.114  -2.708  0.00  0.00    +0.003 A 
ATOM     13  C   LIG    1       -9.227  -4.047  -1.900  0.00  0.00    +0.011 A 
ATOM     14  C   LIG    1       -9.489  -4.882  -0.805  0.00  0.00    +0.013 A 
ATOM     15  C   LIG    1       -8.607  -5.894  -0.475  0.00  0.00    +0.057 A 
ATOM     16  C   LIG    1       -7.437  -5.991  -1.230  0.00  0.00    +0.036 A 
BRANCH  12  17
ATOM     17  C   LIG    1       -7.950  -3.174  -3.912  0.00  0.00    -0.016 A 
ATOM     18  C   LIG    1       -8.921  -2.167  -4.148  0.00  0.00    +0.008 A 
ATOM     19  C   LIG    1       -8.892  -1.300  -5.254  0.00  0.00    +0.001 A 
ATOM     20  C   LIG    1       -7.851  -1.363  -6.161  0.00  0.00    +0.000 A 
ATOM     21  C   LIG    1       -6.885  -2.337  -5.990  0.00  0.00    +0.001 A 
ATOM     22  C   LIG    1       -6.971  -3.249  -4.922  0.00  0.00    +0.008 A 
ENDBRANCH  12  17
BRANCH  15  23
ATOM     23  C   LIG    1       -8.899  -6.830   0.671  0.00  0.00    +0.417 C 
ATOM     24  F   LIG    1      -10.031  -7.556   0.472  0.00  0.00    -0.166 F 
ATOM     25  F   LIG    1       -9.078  -6.168   1.848  0.00  0.00    -0.166 F 
ATOM     26  F   LIG    1       -7.906  -7.732   0.902  0.00  0.00    -0.166 F 
ENDBRANCH  15  23
ENDBRANCH   9  11
ENDBRANCH   8   9
BRANCH   8  27
ATOM     27  O   LIG    1       -4.695  -5.588  -0.751  0.00  0.00    -0.481 OA
ATOM     28  H   LIG    1       -5.440  -5.081  -0.426  0.00  0.00    +0.295 HD
ENDBRANCH   8  27
ENDBRANCH   4   7
BRANCH   1  29
ATOM     29  O   LIG    1        1.372  -6.731  -0.216  0.00  0.00    -0.424 OA
BRANCH  29  33
ATOM     30  C   LIG    1        4.506  -8.991  -1.893  0.00  0.00    -0.014 A 
ATOM     31  C   LIG    1        4.266  -8.936  -0.509  0.00  0.00    +0.012 A 
ATOM     32  C   LIG    1        3.202  -8.186   0.020  0.00  0.00    +0.047 A 
ATOM     33  C   LIG    1        2.374  -7.445  -0.820  0.00  0.00    +0.132 A 
ATOM     34  C   LIG    1        2.653  -7.421  -2.175  0.00  0.00    +0.047 A 
ATOM     35  C   LIG    1        3.659  -8.221  -2.703  0.00  0.00    +0.012 A 
BRANCH  30  37
ATOM     36  C   LIG    1        6.139 -10.975  -2.025  0.00  0.00    +0.124 A 
ATOM     37  C   LIG    1        5.607  -9.768  -2.521  0.00  0.00    +0.024 A 
ATOM     38  C   LIG    1        6.172  -9.305  -3.730  0.00  0.00    +0.051 A 
ATOM     39  C   LIG    1        7.162 -10.020  -4.375  0.00  0.00    +0.142 A 
ATOM     40  F   LIG    1        7.658  -9.589  -5.540  0.00  0.00    -0.204 F 
ATOM     41  C   LIG    1        7.617 -11.178  -3.792  0.00  0.00    +0.151 A 
ATOM     42  N   LIG    1        7.133 -11.665  -2.629  0.00  0.00    -0.237 NA
BRANCH  36  43
ATOM     43  N   LIG    1        5.675 -11.595  -0.866  0.00  0.00    -0.343 N 
ATOM     44  H   LIG    1        4.682 -11.790  -0.939  0.00  0.00    +0.144 HD
ATOM     45  H   LIG    1        6.216 -12.452  -0.769  0.00  0.00    +0.144 HD
ENDBRANCH  36  43
ENDBRANCH  30  37
ENDBRANCH  29  33
ENDBRANCH   1  29
TORSDOF 10
