REMARK  Name = pdb/CHEMBL3659499.pdb
REMARK                            x       y       z     vdW  Elec       q    Type
REMARK                         _______ _______ _______ _____ _____    ______ ____
ROOT
ATOM      1  N   LIG    1        7.633   2.328   1.735  0.00  0.00    -0.266 N 
ATOM      2  C   LIG    1        7.605   3.708   1.826  0.00  0.00    +0.168 A 
ATOM      3  N   LIG    1        6.550   4.539   1.675  0.00  0.00    -0.213 NA
ATOM      4  C   LIG    1        6.847   5.850   1.790  0.00  0.00    +0.122 A 
ATOM      5  C   LIG    1        8.141   6.323   2.036  0.00  0.00    +0.046 A 
ATOM      6  C   LIG    1        9.209   5.434   2.191  0.00  0.00    +0.035 A 
ATOM      7  C   LIG    1        8.919   4.073   2.092  0.00  0.00    +0.108 A 
ATOM      8  N   LIG    1        9.732   2.980   2.217  0.00  0.00    -0.234 NA
ATOM      9  C   LIG    1        8.931   1.954   2.015  0.00  0.00    +0.207 A 
ENDROOT
BRANCH   1  14
ATOM     10  C   LIG    1        4.620   0.584   0.835  0.00  0.00    +0.213 A 
ATOM     11  N   LIG    1        5.601  -0.367   0.956  0.00  0.00    -0.245 N 
ATOM     12  H   LIG    1        5.508  -1.363   0.808  0.00  0.00    +0.192 HD
ATOM     13  N   LIG    1        6.802   0.135   1.313  0.00  0.00    -0.153 NA
ATOM     14  C   LIG    1        6.569   1.450   1.396  0.00  0.00    +0.165 A 
ATOM     15  C   LIG    1        5.237   1.784   1.103  0.00  0.00    +0.115 A 
BRANCH  10  16
ATOM     16  O   LIG    1        3.378   0.217   0.510  0.00  0.00    -0.477 OA
BRANCH  16  18
ATOM     17  C   LIG    1        2.377   1.719  -1.094  0.00  0.00    +0.048 C 
ATOM     18  C   LIG    1        2.433   1.280   0.358  0.00  0.00    +0.227 C 
ENDBRANCH  16  18
ENDBRANCH  10  16
ENDBRANCH   1  14
BRANCH   4  19
ATOM     19  N   LIG    1        5.823   6.804   1.743  0.00  0.00    -0.319 N 
ATOM     20  H   LIG    1        6.053   7.557   1.095  0.00  0.00    +0.148 HD
BRANCH  19  21
ATOM     21  C   LIG    1        4.456   6.313   1.486  0.00  0.00    +0.136 C 
ATOM     22  C   LIG    1        3.845   5.795   2.793  0.00  0.00    +0.036 C 
BRANCH  21  23
ATOM     23  C   LIG    1        3.572   7.426   0.895  0.00  0.00    +0.149 A 
ATOM     24  N   LIG    1        4.144   8.627   0.615  0.00  0.00    -0.236 NA
ATOM     25  C   LIG    1        3.339   9.567   0.069  0.00  0.00    +0.152 A 
ATOM     26  C   LIG    1        2.016   9.350  -0.224  0.00  0.00    +0.159 A 
ATOM     27  F   LIG    1        1.245  10.298  -0.769  0.00  0.00    -0.202 F 
ATOM     28  C   LIG    1        1.530   8.101   0.068  0.00  0.00    +0.152 A 
ATOM     29  N   LIG    1        2.281   7.122   0.618  0.00  0.00    -0.236 NA
ENDBRANCH  21  23
ENDBRANCH  19  21
ENDBRANCH   4  19
TORSDOF 6
