REMARK  Name = pdb/CHEMBL3639603.pdb
REMARK                            x       y       z     vdW  Elec       q    Type
REMARK                         _______ _______ _______ _____ _____    ______ ____
ROOT
ATOM      1  C   LIG    1        4.698   1.732  -5.129  0.00  0.00    +0.042 A 
ATOM      2  C   LIG    1        5.843   2.503  -4.879  0.00  0.00    +0.038 A 
ATOM      3  C   LIG    1        5.918   3.831  -5.317  0.00  0.00    +0.052 A 
ATOM      4  C   LIG    1        4.817   4.344  -6.003  0.00  0.00    +0.134 A 
ATOM      5  N   LIG    1        3.711   3.629  -6.298  0.00  0.00    -0.261 NA
ATOM      6  C   LIG    1        3.699   2.341  -5.894  0.00  0.00    +0.122 A 
ENDROOT
BRANCH   3   7
ATOM      7  N   LIG    1        7.077   4.588  -5.039  0.00  0.00    -0.283 N 
ATOM      8  H   LIG    1        7.821   4.122  -4.509  0.00  0.00    +0.155 HD
ATOM      9  C   LIG    1        7.309   5.908  -5.387  0.00  0.00    +0.239 C 
ATOM     10  O   LIG    1        6.527   6.616  -6.024  0.00  0.00    -0.273 OA
BRANCH   9  11
ATOM     11  C   LIG    1        8.577   6.540  -4.851  0.00  0.00    +0.240 C 
BRANCH  11  12
ATOM     12  N   LIG    1        9.683   5.621  -4.666  0.00  0.00    -0.255 N 
ATOM     13  C   LIG    1       10.943   5.712  -5.208  0.00  0.00    +0.070 A 
ATOM     14  C   LIG    1       11.537   6.630  -6.088  0.00  0.00    +0.031 A 
ATOM     15  C   LIG    1       12.873   6.410  -6.439  0.00  0.00    +0.040 A 
ATOM     16  C   LIG    1       13.572   5.326  -5.923  0.00  0.00    +0.124 A 
ATOM     17  F   LIG    1       14.851   5.145  -6.278  0.00  0.00    -0.205 F 
ATOM     18  C   LIG    1       12.981   4.419  -5.045  0.00  0.00    +0.050 A 
ATOM     19  C   LIG    1       11.639   4.620  -4.688  0.00  0.00    +0.022 A 
ATOM     20  C   LIG    1       10.708   3.956  -3.863  0.00  0.00    +0.143 A 
ATOM     21  N   LIG    1        9.516   4.555  -3.845  0.00  0.00    -0.178 NA
ENDBRANCH  11  12
ENDBRANCH   9  11
ENDBRANCH   3   7
BRANCH   1  22
ATOM     22  C   LIG    1        4.590   0.308  -4.635  0.00  0.00    +0.197 C 
ATOM     23  O   LIG    1        5.620  -0.352  -4.496  0.00  0.00    -0.287 OA
BRANCH  22  31
ATOM     24  N   LIG    1        1.007  -0.446  -4.178  0.00  0.00    -0.329 N 
ATOM     25  C   LIG    1        1.518  -1.698  -3.965  0.00  0.00    +0.145 A 
ATOM     26  N   LIG    1        0.779  -2.799  -3.743  0.00  0.00    -0.218 NA
ATOM     27  C   LIG    1        1.545  -3.878  -3.527  0.00  0.00    +0.223 A 
ATOM     28  N   LIG    1        2.890  -3.939  -3.496  0.00  0.00    -0.243 NA
ATOM     29  C   LIG    1        3.589  -2.799  -3.742  0.00  0.00    +0.124 A 
ATOM     30  C   LIG    1        2.902  -1.608  -4.012  0.00  0.00    +0.048 A 
ATOM     31  C   LIG    1        3.261  -0.257  -4.347  0.00  0.00    +0.051 A 
ATOM     32  C   LIG    1        2.040   0.447  -4.286  0.00  0.00    +0.100 A 
BRANCH  24  34
ATOM     33  C   LIG    1       -0.888   0.335  -2.831  0.00  0.00    +0.030 C 
ATOM     34  C   LIG    1       -0.410  -0.096  -4.216  0.00  0.00    +0.083 C 
ATOM     35  C   LIG    1       -0.738   0.980  -5.259  0.00  0.00    +0.030 C 
ENDBRANCH  24  34
ENDBRANCH  22  31
ENDBRANCH   1  22
TORSDOF 6
