REMARK  Name = pdb/CHEMBL3966108.pdb
REMARK                            x       y       z     vdW  Elec       q    Type
REMARK                         _______ _______ _______ _____ _____    ______ ____
ROOT
ATOM      1  C   LIG    1        0.720  -1.918   3.824  0.00  0.00    +0.131 C 
ATOM      2  N   LIG    1        0.220  -1.501   5.000  0.00  0.00    -0.141 NA
ATOM      3  N   LIG    1       -0.904  -2.232   5.179  0.00  0.00    -0.201 N 
ATOM      4  C   LIG    1       -1.288  -2.884   4.004  0.00  0.00    +0.185 C 
ATOM      5  C   LIG    1       -0.191  -2.789   3.177  0.00  0.00    +0.056 C 
ENDROOT
BRANCH   3   6
ATOM      6  C   LIG    1       -1.553  -2.271   6.443  0.00  0.00    +0.052 A 
ATOM      7  C   LIG    1       -1.457  -1.174   7.310  0.00  0.00    +0.025 A 
ATOM      8  C   LIG    1       -2.098  -1.211   8.552  0.00  0.00    +0.002 A 
ATOM      9  C   LIG    1       -2.798  -2.351   8.947  0.00  0.00    +0.000 A 
ATOM     10  C   LIG    1       -2.864  -3.456   8.102  0.00  0.00    +0.002 A 
ATOM     11  C   LIG    1       -2.244  -3.420   6.852  0.00  0.00    +0.025 A 
ENDBRANCH   3   6
BRANCH   4  12
ATOM     12  N   LIG    1       -2.540  -3.454   3.709  0.00  0.00    -0.282 N 
ATOM     13  H   LIG    1       -3.257  -3.389   4.424  0.00  0.00    +0.152 HD
ATOM     14  C   LIG    1       -2.874  -4.021   2.423  0.00  0.00    +0.247 C 
ATOM     15  O   LIG    1       -2.057  -4.047   1.522  0.00  0.00    -0.270 OA
BRANCH  14  16
ATOM     16  C   LIG    1       -4.248  -4.530   2.186  0.00  0.00    +0.056 A 
ATOM     17  C   LIG    1       -5.047  -5.109   3.167  0.00  0.00    +0.054 A 
ATOM     18 CL   LIG    1       -4.527  -5.371   4.785  0.00  0.00    -0.083 Cl
ATOM     19  C   LIG    1       -6.336  -5.534   2.840  0.00  0.00    +0.041 A 
ATOM     20  C   LIG    1       -6.833  -5.411   1.535  0.00  0.00    +0.052 A 
ATOM     21 CL   LIG    1       -8.521  -5.760   1.365  0.00  0.00    -0.083 Cl
ATOM     22  C   LIG    1       -6.019  -4.945   0.484  0.00  0.00    +0.022 A 
ATOM     23  C   LIG    1       -4.734  -4.473   0.859  0.00  0.00    +0.026 A 
BRANCH  22  24
ATOM     24  C   LIG    1       -6.414  -4.905  -0.951  0.00  0.00    +0.107 A 
ATOM     25  C   LIG    1       -7.212  -5.864  -1.582  0.00  0.00    +0.149 A 
ATOM     26  F   LIG    1       -7.613  -6.977  -0.952  0.00  0.00    -0.203 F 
ATOM     27  C   LIG    1       -7.563  -5.716  -2.920  0.00  0.00    +0.042 A 
ATOM     28  C   LIG    1       -7.043  -4.652  -3.641  0.00  0.00    +0.023 A 
ATOM     29  C   LIG    1       -6.191  -3.781  -2.984  0.00  0.00    +0.111 A 
ATOM     30  N   LIG    1       -5.880  -3.871  -1.665  0.00  0.00    -0.252 NA
ENDBRANCH  22  24
ENDBRANCH  14  16
ENDBRANCH   4  12
BRANCH   1  32
ATOM     31  N   LIG    1        2.532  -0.367   3.639  0.00  0.00    -0.241 NA
ATOM     32  C   LIG    1        2.009  -1.480   3.283  0.00  0.00    +0.233 C 
BRANCH  31  34
ATOM     33  C   LIG    1        3.655   0.978   1.894  0.00  0.00    +0.167 C 
ATOM     34  C   LIG    1        3.820   0.087   3.125  0.00  0.00    +0.165 C 
ATOM     35  C   LIG    1        4.480   1.011   4.153  0.00  0.00    +0.189 C 
ATOM     36  O   LIG    1        4.871   2.207   3.464  0.00  0.00    -0.375 OA
ATOM     37  C   LIG    1        3.911   2.384   2.413  0.00  0.00    +0.193 C 
BRANCH  33  38
ATOM     38  O   LIG    1        4.646   0.603   0.927  0.00  0.00    -0.387 OA
ATOM     39  H   LIG    1        5.492   0.994   1.222  0.00  0.00    +0.210 HD
ENDBRANCH  33  38
ENDBRANCH  31  34
BRANCH  32  40
ATOM     40  O   LIG    1        2.544  -2.339   2.386  0.00  0.00    -0.491 OA
ATOM     41  H   LIG    1        3.374  -2.013   2.009  0.00  0.00    +0.294 HD
ENDBRANCH  32  40
ENDBRANCH   1  32
TORSDOF 8
