REMARK  Name = pdb/CHEMBL514257.pdb
REMARK                            x       y       z     vdW  Elec       q    Type
REMARK                         _______ _______ _______ _____ _____    ______ ____
ROOT
ATOM      1  C   LIG    1        0.659   0.282   3.264  0.00  0.00    +0.217 A 
ATOM      2  N   LIG    1       -0.381   0.680   2.519  0.00  0.00    -0.198 NA
ATOM      3  C   LIG    1       -1.504  -0.070   2.477  0.00  0.00    +0.148 A 
ATOM      4  C   LIG    1       -1.574  -1.261   3.180  0.00  0.00    +0.099 A 
ATOM      5 CL   LIG    1       -2.966  -2.271   3.193  0.00  0.00    -0.078 Cl
ATOM      6  C   LIG    1       -0.453  -1.610   3.900  0.00  0.00    +0.137 A 
ATOM      7  N   LIG    1        0.667  -0.861   3.954  0.00  0.00    -0.221 NA
ENDROOT
BRANCH   1   8
ATOM      8  N   LIG    1        1.730   1.128   3.286  0.00  0.00    -0.304 N 
ATOM      9  H   LIG    1        1.733   1.772   2.516  0.00  0.00    +0.150 HD
BRANCH   8  10
ATOM     10  CA  LIG    1        3.011   0.721   3.839  0.00  0.00    +0.129 C 
BRANCH  10  11
ATOM     11  C   LIG    1        3.580   1.844   4.709  0.00  0.00    -0.025 A 
ATOM     12  C   LIG    1        3.276   3.200   4.479  0.00  0.00    +0.008 A 
ATOM     13  C   LIG    1        3.768   4.200   5.319  0.00  0.00    +0.038 A 
ATOM     14  C   LIG    1        4.585   3.856   6.386  0.00  0.00    +0.123 A 
ATOM     15  F   LIG    1        5.056   4.815   7.193  0.00  0.00    -0.205 F 
ATOM     16  C   LIG    1        4.915   2.529   6.631  0.00  0.00    +0.038 A 
ATOM     17  C   LIG    1        4.414   1.526   5.797  0.00  0.00    +0.008 A 
ENDBRANCH  10  11
BRANCH  10  18
ATOM     18  C   LIG    1        3.971   0.290   2.705  0.00  0.00    +0.182 C 
BRANCH  18  19
ATOM     19  O   LIG    1        4.192   1.329   1.745  0.00  0.00    -0.393 OA
ATOM     20  H   LIG    1        3.682   1.102   0.949  0.00  0.00    +0.209 HD
ENDBRANCH  18  19
ENDBRANCH  10  18
ENDBRANCH   8  10
ENDBRANCH   1   8
BRANCH   3  21
ATOM     21  N   LIG    1       -2.593   0.334   1.664  0.00  0.00    -0.282 N 
ATOM     22  H   LIG    1       -3.468  -0.103   1.938  0.00  0.00    +0.155 HD
BRANCH  21  23
ATOM     23  C   LIG    1       -2.713   1.457   0.929  0.00  0.00    +0.146 A 
ATOM     24  N   LIG    1       -3.888   2.029   0.622  0.00  0.00    -0.158 NA
ATOM     25  N   LIG    1       -3.544   3.123  -0.088  0.00  0.00    -0.280 N 
ATOM     26  H   LIG    1       -4.279   3.742  -0.411  0.00  0.00    +0.189 HD
ATOM     27  C   LIG    1       -2.202   3.230  -0.301  0.00  0.00    +0.041 A 
ATOM     28  C   LIG    1       -1.639   2.159   0.342  0.00  0.00    +0.068 A 
BRANCH  27  29
ATOM     29  C   LIG    1       -1.488   4.309  -1.086  0.00  0.00    +0.037 C 
ATOM     30  C   LIG    1       -0.299   3.908  -1.936  0.00  0.00    +0.010 C 
ATOM     31  C   LIG    1       -0.075   4.682  -0.683  0.00  0.00    +0.010 C 
ENDBRANCH  27  29
ENDBRANCH  21  23
ENDBRANCH   3  21
TORSDOF 8
