REMARK  Name = pdb/CHEMBL3675950.pdb
REMARK                            x       y       z     vdW  Elec       q    Type
REMARK                         _______ _______ _______ _____ _____    ______ ____
ROOT
ATOM      1  C   LIG    1        6.346   3.486  -2.572  0.00  0.00    +0.102 A 
ATOM      2  C   LIG    1        5.074   3.854  -2.164  0.00  0.00    +0.170 A 
ATOM      3  N   LIG    1        4.593   5.003  -1.588  0.00  0.00    -0.212 NA
ATOM      4  C   LIG    1        3.319   5.038  -1.254  0.00  0.00    +0.126 A 
ATOM      5  C   LIG    1        2.384   3.884  -1.546  0.00  0.00    +0.063 A 
ATOM      6  C   LIG    1        2.908   2.794  -2.113  0.00  0.00    +0.118 A 
ATOM      7  N   LIG    1        4.254   2.753  -2.423  0.00  0.00    -0.221 N 
ATOM      8  N   LIG    1        4.936   1.723  -2.970  0.00  0.00    -0.173 NA
ATOM      9  C   LIG    1        6.188   2.168  -3.051  0.00  0.00    +0.150 A 
ENDROOT
BRANCH   4  10
ATOM     10  N   LIG    1        2.810   6.156  -0.614  0.00  0.00    -0.308 N 
ATOM     11  C   LIG    1        3.583   7.393  -0.418  0.00  0.00    +0.105 C 
ATOM     12  C   LIG    1        2.977   8.009   0.856  0.00  0.00    +0.029 C 
ATOM     13  C   LIG    1        1.545   7.504   0.861  0.00  0.00    +0.021 C 
ATOM     14  C   LIG    1        1.689   6.091   0.323  0.00  0.00    +0.107 C 
BRANCH  11  15
ATOM     15  C   LIG    1        3.474   8.320  -1.621  0.00  0.00    -0.024 A 
ATOM     16  C   LIG    1        2.366   8.286  -2.482  0.00  0.00    +0.043 A 
ATOM     17  C   LIG    1        2.289   9.143  -3.574  0.00  0.00    +0.124 A 
ATOM     18  F   LIG    1        1.219   9.084  -4.378  0.00  0.00    -0.205 F 
ATOM     19  C   LIG    1        3.300  10.054  -3.842  0.00  0.00    +0.038 A 
ATOM     20  C   LIG    1        4.406  10.111  -2.998  0.00  0.00    +0.003 A 
ATOM     21  C   LIG    1        4.491   9.255  -1.892  0.00  0.00    +0.005 A 
ENDBRANCH  11  15
ENDBRANCH   4  10
BRANCH   1  24
ATOM     22  N   LIG    1        7.440   5.502  -1.973  0.00  0.00    -0.191 N 
ATOM     23  H   LIG    1        6.545   5.840  -1.624  0.00  0.00    +0.183 HD
ATOM     24  C   LIG    1        7.575   4.253  -2.519  0.00  0.00    +0.272 C 
ATOM     25  O   LIG    1        8.635   3.782  -2.937  0.00  0.00    -0.268 OA
BRANCH  22  27
ATOM     26  C   LIG    1        8.268   7.576  -1.346  0.00  0.00    +0.226 C 
ATOM     27  O   LIG    1        8.594   6.316  -1.916  0.00  0.00    -0.283 OA
ENDBRANCH  22  27
ENDBRANCH   1  24
TORSDOF 4
