REMARK  Name = pdb/CHEMBL3671141.pdb
REMARK                            x       y       z     vdW  Elec       q    Type
REMARK                         _______ _______ _______ _____ _____    ______ ____
ROOT
ATOM      1  C   LIG    1        2.760  -4.481  -0.834  0.00  0.00    +0.126 A 
ATOM      2  N   LIG    1        2.280  -3.394  -1.400  0.00  0.00    -0.212 NA
ATOM      3  C   LIG    1        1.176  -3.522  -2.215  0.00  0.00    +0.170 A 
ATOM      4  C   LIG    1        0.387  -2.590  -2.867  0.00  0.00    +0.100 A 
ATOM      5  C   LIG    1       -0.559  -3.361  -3.574  0.00  0.00    +0.150 A 
ATOM      6  N   LIG    1       -0.409  -4.673  -3.389  0.00  0.00    -0.173 NA
ATOM      7  N   LIG    1        0.611  -4.765  -2.506  0.00  0.00    -0.221 N 
ATOM      8  C   LIG    1        1.069  -5.905  -1.874  0.00  0.00    +0.118 A 
ATOM      9  C   LIG    1        2.077  -5.825  -1.000  0.00  0.00    +0.063 A 
ENDROOT
BRANCH   1  11
ATOM     10  C   LIG    1        4.678  -3.163   0.144  0.00  0.00    +0.108 C 
ATOM     11  N   LIG    1        3.927  -4.425  -0.073  0.00  0.00    -0.308 N 
ATOM     12  C   LIG    1        4.858  -5.561  -0.034  0.00  0.00    +0.107 C 
ATOM     13  C   LIG    1        6.230  -4.946  -0.244  0.00  0.00    +0.021 C 
ATOM     14  C   LIG    1        6.106  -3.628   0.491  0.00  0.00    +0.029 C 
BRANCH  10  18
ATOM     15  F   LIG    1        2.195  -2.529   4.345  0.00  0.00    -0.205 F 
ATOM     16  C   LIG    1        2.898  -2.001   3.335  0.00  0.00    +0.124 A 
ATOM     17  C   LIG    1        3.398  -2.838   2.337  0.00  0.00    +0.046 A 
ATOM     18  C   LIG    1        4.112  -2.304   1.254  0.00  0.00    +0.011 A 
ATOM     19  C   LIG    1        4.341  -0.920   1.245  0.00  0.00    +0.129 A 
ATOM     20  F   LIG    1        5.041  -0.367   0.243  0.00  0.00    -0.205 F 
ATOM     21  C   LIG    1        3.853  -0.085   2.253  0.00  0.00    +0.041 A 
ATOM     22  C   LIG    1        3.114  -0.628   3.300  0.00  0.00    +0.041 A 
ENDBRANCH  10  18
ENDBRANCH   1  11
BRANCH   4  23
ATOM     23  C   LIG    1        0.467  -1.142  -2.843  0.00  0.00    +0.249 C 
ATOM     24  N   LIG    1        1.523  -0.645  -2.108  0.00  0.00    -0.308 N 
ATOM     25  H   LIG    1        2.168  -1.326  -1.701  0.00  0.00    +0.149 HD
ATOM     26  O   LIG    1       -0.346  -0.443  -3.425  0.00  0.00    -0.270 OA
BRANCH  24  27
ATOM     27  C   LIG    1        1.785   0.742  -1.939  0.00  0.00    +0.073 C 
ATOM     28  C   LIG    1        2.035   1.285  -0.558  0.00  0.00    +0.024 C 
ATOM     29  C   LIG    1        0.797   1.680  -1.302  0.00  0.00    +0.024 C 
ENDBRANCH  24  27
ENDBRANCH   4  23
TORSDOF 4
