REMARK  Name = pdb/CHEMBL411903.pdb
REMARK                            x       y       z     vdW  Elec       q    Type
REMARK                         _______ _______ _______ _____ _____    ______ ____
ROOT
ATOM      1  C   LIG    1        2.570   5.251  -0.984  0.00  0.00    -0.004 A 
ATOM      2  C   LIG    1        2.478   6.602  -0.630  0.00  0.00    +0.011 A 
ATOM      3  C   LIG    1        1.221   7.190  -0.411  0.00  0.00    +0.024 A 
ATOM      4  C   LIG    1        0.048   6.444  -0.574  0.00  0.00    +0.035 A 
ATOM      5  C   LIG    1        0.153   5.104  -0.949  0.00  0.00    +0.024 A 
ATOM      6  C   LIG    1        1.398   4.515  -1.159  0.00  0.00    +0.011 A 
ENDROOT
BRANCH   1  10
ATOM      7  C   LIG    1        7.351   5.165  -1.411  0.00  0.00    +0.147 A 
ATOM      8  C   LIG    1        6.142   4.609  -1.835  0.00  0.00    +0.143 A 
ATOM      9  N   LIG    1        4.910   5.289  -1.599  0.00  0.00    -0.245 NA
ATOM     10  C   LIG    1        3.895   4.592  -1.179  0.00  0.00    +0.051 C 
ATOM     11  C   LIG    1        4.003   3.106  -0.871  0.00  0.00    +0.074 C 
ATOM     12  C   LIG    1        4.110   2.312  -2.164  0.00  0.00    +0.109 C 
ATOM     13  N   LIG    1        5.177   2.714  -3.076  0.00  0.00    -0.327 N 
ATOM     14  H   LIG    1        5.579   1.912  -3.561  0.00  0.00    +0.148 HD
ATOM     15  C   LIG    1        6.270   3.402  -2.541  0.00  0.00    +0.149 A 
ATOM     16  N   LIG    1        7.456   2.813  -2.781  0.00  0.00    -0.219 NA
ATOM     17  C   LIG    1        8.535   3.442  -2.295  0.00  0.00    +0.225 A 
ATOM     18  N   LIG    1        8.549   4.595  -1.615  0.00  0.00    -0.219 NA
BRANCH   7  19
ATOM     19  N   LIG    1        7.363   6.354  -0.663  0.00  0.00    -0.341 N 
ATOM     20  H   LIG    1        6.732   7.025  -1.092  0.00  0.00    +0.144 HD
ATOM     21  H   LIG    1        8.323   6.669  -0.584  0.00  0.00    +0.144 HD
ENDBRANCH   7  19
ENDBRANCH   1  10
BRANCH   4  22
ATOM     22  N   LIG    1       -1.196   7.071  -0.333  0.00  0.00    -0.269 N 
ATOM     23  H   LIG    1       -1.166   8.009   0.037  0.00  0.00    +0.156 HD
ATOM     24  C   LIG    1       -2.427   6.595  -0.753  0.00  0.00    +0.308 C 
ATOM     25  N   LIG    1       -3.466   7.383  -0.303  0.00  0.00    -0.267 N 
ATOM     26  H   LIG    1       -3.244   8.165   0.298  0.00  0.00    +0.156 HD
ATOM     27  O   LIG    1       -2.578   5.598  -1.454  0.00  0.00    -0.252 OA
BRANCH  25  28
ATOM     28  C   LIG    1       -4.845   7.200  -0.569  0.00  0.00    +0.071 A 
ATOM     29  C   LIG    1       -5.736   8.123  -0.012  0.00  0.00    +0.145 A 
ATOM     30  F   LIG    1       -5.261   9.127   0.743  0.00  0.00    -0.204 F 
ATOM     31  C   LIG    1       -7.108   8.031  -0.226  0.00  0.00    +0.041 A 
ATOM     32  C   LIG    1       -7.615   6.996  -1.012  0.00  0.00    +0.015 A 
ATOM     33  C   LIG    1       -6.749   6.052  -1.584  0.00  0.00    +0.057 A 
ATOM     34  C   LIG    1       -5.366   6.165  -1.353  0.00  0.00    +0.038 A 
BRANCH  33  35
ATOM     35  C   LIG    1       -7.300   4.933  -2.438  0.00  0.00    +0.417 C 
ATOM     36  F   LIG    1       -7.984   5.400  -3.520  0.00  0.00    -0.166 F 
ATOM     37  F   LIG    1       -8.177   4.147  -1.754  0.00  0.00    -0.166 F 
ATOM     38  F   LIG    1       -6.351   4.092  -2.931  0.00  0.00    -0.166 F 
ENDBRANCH  33  35
ENDBRANCH  25  28
ENDBRANCH   4  22
TORSDOF 5
