REMARK  Name = pdb/CHEMBL457608.pdb
REMARK                            x       y       z     vdW  Elec       q    Type
REMARK                         _______ _______ _______ _____ _____    ______ ____
ROOT
ATOM      1  C   LIG    1        2.444  -1.208   3.460  0.00  0.00    +0.217 A 
ATOM      2  N   LIG    1        1.899  -1.042   4.674  0.00  0.00    -0.198 NA
ATOM      3  C   LIG    1        2.427  -1.710   5.729  0.00  0.00    +0.148 A 
ATOM      4  C   LIG    1        3.535  -2.532   5.555  0.00  0.00    +0.099 A 
ATOM      5 CL   LIG    1        4.278  -3.423   6.825  0.00  0.00    -0.078 Cl
ATOM      6  C   LIG    1        4.031  -2.628   4.275  0.00  0.00    +0.137 A 
ATOM      7  N   LIG    1        3.507  -1.975   3.220  0.00  0.00    -0.221 NA
ENDROOT
BRANCH   1   8
ATOM      8  N   LIG    1        1.856  -0.534   2.403  0.00  0.00    -0.305 N 
ATOM      9  H   LIG    1        0.972  -0.132   2.689  0.00  0.00    +0.150 HD
BRANCH   8  11
ATOM     10  C   LIG    1        1.301  -2.628   1.127  0.00  0.00    +0.034 C 
ATOM     11  C   LIG    1        1.866  -1.199   1.100  0.00  0.00    +0.119 C 
BRANCH  11  12
ATOM     12  C   LIG    1        1.076  -0.332   0.115  0.00  0.00    +0.061 A 
ATOM     13  N   LIG    1       -0.269  -0.530   0.016  0.00  0.00    -0.255 NA
ATOM     14  C   LIG    1       -0.957   0.275  -0.828  0.00  0.00    +0.149 A 
ATOM     15  C   LIG    1       -0.375   1.302  -1.547  0.00  0.00    +0.141 A 
ATOM     16  F   LIG    1       -1.112   2.071  -2.358  0.00  0.00    -0.204 F 
ATOM     17  C   LIG    1        0.986   1.521  -1.420  0.00  0.00    +0.042 A 
ATOM     18  C   LIG    1        1.730   0.681  -0.593  0.00  0.00    +0.028 A 
ENDBRANCH  11  12
ENDBRANCH   8  11
ENDBRANCH   1   8
BRANCH   3  19
ATOM     19  N   LIG    1        1.881  -1.521   7.022  0.00  0.00    -0.282 N 
ATOM     20  H   LIG    1        2.007  -2.346   7.601  0.00  0.00    +0.155 HD
BRANCH  19  21
ATOM     21  C   LIG    1        0.798  -0.774   7.372  0.00  0.00    +0.146 A 
ATOM     22  N   LIG    1       -0.044  -1.130   8.346  0.00  0.00    -0.158 NA
ATOM     23  N   LIG    1       -0.968  -0.154   8.340  0.00  0.00    -0.280 N 
ATOM     24  H   LIG    1       -1.756  -0.229   8.981  0.00  0.00    +0.189 HD
ATOM     25  C   LIG    1       -0.706   0.856   7.471  0.00  0.00    +0.041 A 
ATOM     26  C   LIG    1        0.443   0.480   6.808  0.00  0.00    +0.068 A 
BRANCH  25  27
ATOM     27  C   LIG    1       -1.497   2.139   7.285  0.00  0.00    +0.037 C 
ATOM     28  C   LIG    1       -2.122   2.751   8.527  0.00  0.00    +0.010 C 
ATOM     29  C   LIG    1       -3.003   2.136   7.498  0.00  0.00    +0.010 C 
ENDBRANCH  25  27
ENDBRANCH  19  21
ENDBRANCH   3  19
TORSDOF 6
