REMARK  Name = pdb/CHEMBL3675941.pdb
REMARK                            x       y       z     vdW  Elec       q    Type
REMARK                         _______ _______ _______ _____ _____    ______ ____
ROOT
ATOM      1  C   LIG    1        3.863  -1.574   6.850  0.00  0.00    +0.102 A 
ATOM      2  C   LIG    1        4.785  -0.803   6.148  0.00  0.00    +0.170 A 
ATOM      3  N   LIG    1        5.018   0.555   6.079  0.00  0.00    -0.212 NA
ATOM      4  C   LIG    1        6.061   0.980   5.382  0.00  0.00    +0.126 A 
ATOM      5  C   LIG    1        6.964   0.014   4.652  0.00  0.00    +0.063 A 
ATOM      6  C   LIG    1        6.667  -1.287   4.720  0.00  0.00    +0.118 A 
ATOM      7  N   LIG    1        5.582  -1.719   5.457  0.00  0.00    -0.221 N 
ATOM      8  N   LIG    1        5.176  -2.997   5.631  0.00  0.00    -0.173 NA
ATOM      9  C   LIG    1        4.155  -2.900   6.474  0.00  0.00    +0.150 A 
ENDROOT
BRANCH   4  10
ATOM     10  N   LIG    1        6.328   2.348   5.314  0.00  0.00    -0.308 N 
ATOM     11  C   LIG    1        7.660   2.930   5.027  0.00  0.00    +0.108 C 
ATOM     12  C   LIG    1        7.711   4.160   5.957  0.00  0.00    +0.029 C 
ATOM     13  C   LIG    1        6.266   4.618   6.062  0.00  0.00    +0.021 C 
ATOM     14  C   LIG    1        5.478   3.315   6.023  0.00  0.00    +0.107 C 
BRANCH  11  15
ATOM     15  C   LIG    1        7.860   3.273   3.554  0.00  0.00    +0.011 A 
ATOM     16  C   LIG    1        9.146   3.269   2.982  0.00  0.00    +0.129 A 
ATOM     17  F   LIG    1       10.191   2.813   3.687  0.00  0.00    -0.205 F 
ATOM     18  C   LIG    1        9.379   3.689   1.664  0.00  0.00    +0.041 A 
ATOM     19  C   LIG    1        8.310   4.085   0.867  0.00  0.00    +0.041 A 
ATOM     20  C   LIG    1        7.025   4.015   1.389  0.00  0.00    +0.124 A 
ATOM     21  F   LIG    1        5.982   4.314   0.605  0.00  0.00    -0.205 F 
ATOM     22  C   LIG    1        6.795   3.626   2.711  0.00  0.00    +0.046 A 
ENDBRANCH  11  15
ENDBRANCH   4  10
BRANCH   1  25
ATOM     23  N   LIG    1        2.749   0.174   7.981  0.00  0.00    -0.191 N 
ATOM     24  H   LIG    1        3.264   0.843   7.410  0.00  0.00    +0.183 HD
ATOM     25  C   LIG    1        2.840  -1.173   7.790  0.00  0.00    +0.272 C 
ATOM     26  O   LIG    1        2.145  -2.014   8.376  0.00  0.00    -0.268 OA
BRANCH  23  28
ATOM     27  C   LIG    1        2.404   1.371   9.910  0.00  0.00    +0.226 C 
ATOM     28  O   LIG    1        1.760   0.648   8.867  0.00  0.00    -0.283 OA
ENDBRANCH  23  28
ENDBRANCH   1  25
TORSDOF 4
