REMARK  Name = pdb/CHEMBL2152289.pdb
REMARK                            x       y       z     vdW  Elec       q    Type
REMARK                         _______ _______ _______ _____ _____    ______ ____
ROOT
ATOM      1  C   LIG    1        7.392  -3.408  -0.405  0.00  0.00    +0.001 A 
ATOM      2  C   LIG    1        8.798  -3.296  -0.414  0.00  0.00    +0.022 A 
ATOM      3  C   LIG    1        9.601  -4.456  -0.346  0.00  0.00    +0.027 A 
ATOM      4  C   LIG    1       11.008  -4.761  -0.308  0.00  0.00    +0.009 A 
ATOM      5  C   LIG    1       11.102  -6.144  -0.237  0.00  0.00    +0.093 A 
ATOM      6  N   LIG    1        9.837  -6.670  -0.222  0.00  0.00    -0.345 N 
ATOM      7  H   LIG    1        9.591  -7.648  -0.174  0.00  0.00    +0.167 HD
ATOM      8  C   LIG    1        8.918  -5.665  -0.281  0.00  0.00    +0.139 A 
ATOM      9  N   LIG    1        7.589  -5.865  -0.271  0.00  0.00    -0.237 NA
ATOM     10  C   LIG    1        6.881  -4.709  -0.326  0.00  0.00    +0.121 A 
ENDROOT
BRANCH   1  13
ATOM     11  C   LIG    1        4.456  -1.099  -1.229  0.00  0.00    +0.036 A 
ATOM     12  C   LIG    1        5.268  -2.240  -1.131  0.00  0.00    +0.032 A 
ATOM     13  C   LIG    1        6.513  -2.214  -0.470  0.00  0.00    -0.013 A 
ATOM     14  C   LIG    1        6.901  -0.993   0.112  0.00  0.00    +0.031 A 
ATOM     15  C   LIG    1        6.091   0.145   0.062  0.00  0.00    +0.027 A 
ATOM     16  C   LIG    1        4.895   0.094  -0.656  0.00  0.00    +0.046 A 
BRANCH  11  19
ATOM     17  C   LIG    1        1.097  -0.783  -2.917  0.00  0.00    +0.109 C 
ATOM     18  C   LIG    1        2.281  -0.252  -2.149  0.00  0.00    +0.214 C 
ATOM     19  N   LIG    1        3.231  -1.232  -1.921  0.00  0.00    -0.286 N 
ATOM     20  H   LIG    1        3.022  -2.154  -2.284  0.00  0.00    +0.155 HD
ATOM     21  O   LIG    1        2.324   0.922  -1.793  0.00  0.00    -0.276 OA
ENDBRANCH  11  19
BRANCH  15  22
ATOM     22  N   LIG    1        6.584   1.375   0.521  0.00  0.00    -0.358 N 
ATOM     23  H   LIG    1        7.239   1.299   1.292  0.00  0.00    +0.142 HD
ATOM     24  H   LIG    1        5.855   2.061   0.702  0.00  0.00    +0.142 HD
ENDBRANCH  15  22
ENDBRANCH   1  13
BRANCH   4  25
ATOM     25  C   LIG    1       12.189  -3.894  -0.335  0.00  0.00    -0.013 A 
ATOM     26  C   LIG    1       12.175  -2.669  -1.005  0.00  0.00    +0.028 A 
ATOM     27  C   LIG    1       13.323  -1.889  -1.002  0.00  0.00    +0.111 A 
ATOM     28  N   LIG    1       14.473  -2.240  -0.392  0.00  0.00    -0.263 NA
ATOM     29  C   LIG    1       14.475  -3.428   0.245  0.00  0.00    +0.111 A 
ATOM     30  C   LIG    1       13.377  -4.274   0.303  0.00  0.00    +0.028 A 
ENDBRANCH   4  25
TORSDOF 4
