REMARK  Name = pdb/CHEMBL3659500.pdb
REMARK                            x       y       z     vdW  Elec       q    Type
REMARK                         _______ _______ _______ _____ _____    ______ ____
ROOT
ATOM      1  N   LIG    1        8.030  -0.626   1.086  0.00  0.00    -0.266 N 
ATOM      2  C   LIG    1        8.380   0.717   1.127  0.00  0.00    +0.168 A 
ATOM      3  N   LIG    1        7.610   1.815   0.900  0.00  0.00    -0.213 NA
ATOM      4  C   LIG    1        8.269   2.993   1.016  0.00  0.00    +0.122 A 
ATOM      5  C   LIG    1        9.644   3.075   1.280  0.00  0.00    +0.046 A 
ATOM      6  C   LIG    1       10.407   1.928   1.496  0.00  0.00    +0.035 A 
ATOM      7  C   LIG    1        9.742   0.707   1.422  0.00  0.00    +0.108 A 
ATOM      8  N   LIG    1       10.227  -0.561   1.579  0.00  0.00    -0.234 NA
ATOM      9  C   LIG    1        9.185  -1.332   1.368  0.00  0.00    +0.207 A 
ENDROOT
BRANCH   1  14
ATOM     10  C   LIG    1        4.662  -1.616   0.249  0.00  0.00    +0.213 A 
ATOM     11  N   LIG    1        5.399  -2.761   0.368  0.00  0.00    -0.245 N 
ATOM     12  H   LIG    1        5.091  -3.715   0.205  0.00  0.00    +0.192 HD
ATOM     13  N   LIG    1        6.692  -2.553   0.700  0.00  0.00    -0.153 NA
ATOM     14  C   LIG    1        6.773  -1.216   0.789  0.00  0.00    +0.165 A 
ATOM     15  C   LIG    1        5.541  -0.588   0.538  0.00  0.00    +0.115 A 
BRANCH  10  16
ATOM     16  O   LIG    1        3.374  -1.673  -0.073  0.00  0.00    -0.477 OA
BRANCH  16  18
ATOM     17  C   LIG    1        1.382  -0.344  -0.327  0.00  0.00    +0.048 C 
ATOM     18  C   LIG    1        2.837  -0.516  -0.719  0.00  0.00    +0.227 C 
ENDBRANCH  16  18
ENDBRANCH  10  16
ENDBRANCH   1  14
BRANCH   4  19
ATOM     19  N   LIG    1        7.619   4.219   0.800  0.00  0.00    -0.321 N 
ATOM     20  H   LIG    1        7.912   4.905   1.493  0.00  0.00    +0.148 HD
BRANCH  19  21
ATOM     21  C   LIG    1        6.163   4.263   0.634  0.00  0.00    +0.117 C 
ATOM     22  C   LIG    1        5.423   3.753   1.878  0.00  0.00    +0.034 C 
BRANCH  21  23
ATOM     23  C   LIG    1        5.761   5.728   0.372  0.00  0.00    +0.061 A 
ATOM     24  N   LIG    1        5.519   6.528   1.451  0.00  0.00    -0.255 NA
ATOM     25  C   LIG    1        5.151   7.811   1.217  0.00  0.00    +0.149 A 
ATOM     26  C   LIG    1        5.039   8.353  -0.048  0.00  0.00    +0.141 A 
ATOM     27  F   LIG    1        4.661   9.627  -0.215  0.00  0.00    -0.204 F 
ATOM     28  C   LIG    1        5.329   7.555  -1.142  0.00  0.00    +0.042 A 
ATOM     29  C   LIG    1        5.701   6.224  -0.934  0.00  0.00    +0.028 A 
ENDBRANCH  21  23
ENDBRANCH  19  21
ENDBRANCH   4  19
TORSDOF 6
