REMARK  Name = pdb/CHEMBL515062.pdb
REMARK                            x       y       z     vdW  Elec       q    Type
REMARK                         _______ _______ _______ _____ _____    ______ ____
ROOT
ATOM      1  C   LIG    1        6.445   2.106  -1.830  0.00  0.00    +0.148 A 
ATOM      2  C   LIG    1        6.698   2.687  -0.592  0.00  0.00    +0.142 A 
ATOM      3 CL   LIG    1        6.110   2.151   0.948  0.00  0.00    -0.074 Cl
ATOM      4  C   LIG    1        7.317   3.915  -0.643  0.00  0.00    +0.240 A 
ATOM      5  N   LIG    1        7.580   4.573  -1.774  0.00  0.00    -0.178 NA
ATOM      6  C   LIG    1        7.182   4.018  -2.915  0.00  0.00    +0.221 A 
ATOM      7  N   LIG    1        6.636   2.797  -2.988  0.00  0.00    -0.198 NA
ENDROOT
BRANCH   1   8
ATOM      8  N   LIG    1        5.980   0.791  -2.024  0.00  0.00    -0.301 N 
ATOM      9  H   LIG    1        5.781   0.648  -2.995  0.00  0.00    +0.150 HD
BRANCH   8  14
ATOM     10  C   LIG    1        5.971  -2.304  -0.340  0.00  0.00    +0.195 C 
ATOM     11  N   LIG    1        6.738  -1.487   0.423  0.00  0.00    -0.231 N 
ATOM     12  H   LIG    1        7.127  -1.674   1.339  0.00  0.00    +0.171 HD
ATOM     13  N   LIG    1        7.003  -0.316  -0.166  0.00  0.00    -0.108 NA
ATOM     14  C   LIG    1        6.208  -0.281  -1.234  0.00  0.00    +0.185 C 
ATOM     15  C   LIG    1        5.634  -1.555  -1.453  0.00  0.00    +0.085 C 
BRANCH  10  16
ATOM     16  O   LIG    1        5.709  -3.533   0.097  0.00  0.00    -0.476 OA
BRANCH  16  18
ATOM     17  C   LIG    1        5.853  -5.102  -1.719  0.00  0.00    +0.051 C 
ATOM     18  C   LIG    1        4.929  -4.359  -0.763  0.00  0.00    +0.169 C 
ATOM     19  C   LIG    1        4.163  -5.320   0.132  0.00  0.00    +0.051 C 
ENDBRANCH  16  18
ENDBRANCH  10  16
ENDBRANCH   8  14
ENDBRANCH   1   8
BRANCH   6  20
ATOM     20  N   LIG    1        7.255   4.773  -4.060  0.00  0.00    -0.305 N 
ATOM     21  H   LIG    1        7.053   4.220  -4.885  0.00  0.00    +0.150 HD
BRANCH  20  22
ATOM     22  C   LIG    1        8.373   5.713  -4.181  0.00  0.00    +0.119 C 
ATOM     23  C   LIG    1        9.543   5.021  -4.886  0.00  0.00    +0.034 C 
BRANCH  22  24
ATOM     24  C   LIG    1        7.886   6.962  -4.920  0.00  0.00    +0.061 A 
ATOM     25  N   LIG    1        8.429   7.268  -6.129  0.00  0.00    -0.255 NA
ATOM     26  C   LIG    1        7.947   8.361  -6.768  0.00  0.00    +0.149 A 
ATOM     27  C   LIG    1        6.941   9.164  -6.263  0.00  0.00    +0.141 A 
ATOM     28  F   LIG    1        6.496  10.219  -6.955  0.00  0.00    -0.204 F 
ATOM     29  C   LIG    1        6.395   8.854  -5.029  0.00  0.00    +0.042 A 
ATOM     30  C   LIG    1        6.876   7.743  -4.342  0.00  0.00    +0.028 A 
ENDBRANCH  22  24
ENDBRANCH  20  22
ENDBRANCH   6  20
BRANCH   4  31
ATOM     31  O   LIG    1        7.705   4.503   0.546  0.00  0.00    -0.467 OA
BRANCH  31  32
ATOM     32  C   LIG    1        7.649   5.939   0.512  0.00  0.00    +0.226 C 
BRANCH  32  33
ATOM     33  C   LIG    1        8.691   6.467   1.500  0.00  0.00    +0.202 C 
BRANCH  33  34
ATOM     34  O   LIG    1       10.004   6.054   1.113  0.00  0.00    -0.391 OA
ATOM     35  H   LIG    1       10.027   5.084   1.209  0.00  0.00    +0.210 HD
ENDBRANCH  33  34
ENDBRANCH  32  33
BRANCH  32  36
ATOM     36  C   LIG    1        6.231   6.381   0.893  0.00  0.00    +0.202 C 
BRANCH  36  37
ATOM     37  O   LIG    1        5.881   5.949   2.207  0.00  0.00    -0.391 OA
ATOM     38  H   LIG    1        5.992   4.979   2.229  0.00  0.00    +0.210 HD
ENDBRANCH  36  37
ENDBRANCH  32  36
ENDBRANCH  31  32
ENDBRANCH   4  31
TORSDOF 13
