REMARK  Name = pdb/CHEMBL3964965.pdb
REMARK                            x       y       z     vdW  Elec       q    Type
REMARK                         _______ _______ _______ _____ _____    ______ ____
ROOT
ATOM      1  C   LIG    1        4.734   1.622  -2.035  0.00  0.00    +0.149 A 
ATOM      2  N   LIG    1        4.209   2.670  -2.686  0.00  0.00    -0.160 NA
ATOM      3  N   LIG    1        4.242   3.704  -1.812  0.00  0.00    -0.218 N 
ATOM      4  C   LIG    1        4.747   3.313  -0.567  0.00  0.00    +0.129 A 
ATOM      5  C   LIG    1        5.096   1.988  -0.717  0.00  0.00    +0.078 A 
ENDROOT
BRANCH   3   6
ATOM      6  C   LIG    1        3.789   4.983  -2.241  0.00  0.00    +0.067 A 
ATOM      7  C   LIG    1        2.924   5.079  -3.342  0.00  0.00    +0.028 A 
ATOM      8  C   LIG    1        2.529   6.332  -3.819  0.00  0.00    +0.002 A 
ATOM      9  C   LIG    1        2.995   7.492  -3.204  0.00  0.00    +0.000 A 
ATOM     10  C   LIG    1        3.832   7.402  -2.096  0.00  0.00    +0.002 A 
ATOM     11  C   LIG    1        4.231   6.152  -1.621  0.00  0.00    +0.028 A 
ENDBRANCH   3   6
BRANCH   4  12
ATOM     12  N   LIG    1        4.776   4.044   0.644  0.00  0.00    -0.266 N 
ATOM     13  H   LIG    1        4.210   4.881   0.683  0.00  0.00    +0.157 HD
ATOM     14  C   LIG    1        5.534   3.632   1.793  0.00  0.00    +0.251 C 
ATOM     15  O   LIG    1        6.232   2.621   1.761  0.00  0.00    -0.270 OA
BRANCH  14  16
ATOM     16  C   LIG    1        5.412   4.412   3.044  0.00  0.00    +0.056 A 
ATOM     17  C   LIG    1        5.192   5.786   3.075  0.00  0.00    +0.054 A 
ATOM     18 CL   LIG    1        5.374   6.802   1.703  0.00  0.00    -0.083 Cl
ATOM     19  C   LIG    1        4.902   6.418   4.280  0.00  0.00    +0.041 A 
ATOM     20  C   LIG    1        4.959   5.720   5.491  0.00  0.00    +0.052 A 
ATOM     21 CL   LIG    1        4.417   6.610   6.872  0.00  0.00    -0.083 Cl
ATOM     22  C   LIG    1        5.379   4.376   5.530  0.00  0.00    +0.022 A 
ATOM     23  C   LIG    1        5.547   3.734   4.274  0.00  0.00    +0.026 A 
BRANCH  22  24
ATOM     24  C   LIG    1        5.642   3.607   6.774  0.00  0.00    +0.107 A 
ATOM     25  C   LIG    1        6.210   4.142   7.936  0.00  0.00    +0.149 A 
ATOM     26  F   LIG    1        6.645   5.407   7.997  0.00  0.00    -0.203 F 
ATOM     27  C   LIG    1        6.394   3.340   9.057  0.00  0.00    +0.042 A 
ATOM     28  C   LIG    1        6.079   1.992   8.983  0.00  0.00    +0.023 A 
ATOM     29  C   LIG    1        5.587   1.507   7.783  0.00  0.00    +0.111 A 
ATOM     30  N   LIG    1        5.351   2.277   6.692  0.00  0.00    -0.252 NA
ENDBRANCH  22  24
ENDBRANCH  14  16
ENDBRANCH   4  12
BRANCH   1  31
ATOM     31  C   LIG    1        4.837   0.295  -2.646  0.00  0.00    +0.236 C 
ATOM     32  N   LIG    1        5.257  -0.697  -1.952  0.00  0.00    -0.247 NA
BRANCH  31  33
ATOM     33  O   LIG    1        4.447   0.232  -3.934  0.00  0.00    -0.491 OA
ATOM     34  H   LIG    1        4.517  -0.651  -4.309  0.00  0.00    +0.294 HD
ENDBRANCH  31  33
BRANCH  32  35
ATOM     35  C   LIG    1        5.439  -2.035  -2.514  0.00  0.00    +0.168 C 
BRANCH  35  36
ATOM     36  C   LIG    1        5.237  -3.100  -1.434  0.00  0.00    +0.168 C 
BRANCH  36  37
ATOM     37  N   LIG    1        6.212  -3.022  -0.371  0.00  0.00    -0.250 N 
ATOM     38  N   LIG    1        7.360  -3.716  -0.444  0.00  0.00    -0.066 NA
ATOM     39  N   LIG    1        8.041  -3.472   0.668  0.00  0.00    -0.138 NA
ATOM     40  C   LIG    1        7.298  -2.628   1.443  0.00  0.00    +0.156 A 
ATOM     41  C   LIG    1        6.119  -2.336   0.803  0.00  0.00    +0.130 A 
ENDBRANCH  36  37
ENDBRANCH  35  36
ENDBRANCH  32  35
ENDBRANCH   1  31
TORSDOF 9
