REMARK  Name = pdb/CHEMBL3892403.pdb
REMARK                            x       y       z     vdW  Elec       q    Type
REMARK                         _______ _______ _______ _____ _____    ______ ____
ROOT
ATOM      1  C   LIG    1        8.712  -5.657  -1.699  0.00  0.00    +0.323 A 
ATOM      2  N   LIG    1        8.390  -6.923  -1.368  0.00  0.00    -0.201 NA
ATOM      3  C   LIG    1        8.985  -7.897  -2.092  0.00  0.00    +0.145 A 
ATOM      4  C   LIG    1        9.868  -7.679  -3.143  0.00  0.00    +0.105 A 
ATOM      5  C   LIG    1       10.077  -6.335  -3.388  0.00  0.00    +0.145 A 
ATOM      6  N   LIG    1        9.536  -5.310  -2.693  0.00  0.00    -0.201 NA
ENDROOT
BRANCH   4   7
ATOM      7  N   LIG    1       10.390  -8.787  -3.880  0.00  0.00    -0.196 NA
ATOM      8  C   LIG    1       11.506  -8.695  -4.525  0.00  0.00    +0.285 C 
BRANCH   8   9
ATOM      9  N   LIG    1       12.036  -9.723  -5.264  0.00  0.00    -0.269 N 
ATOM     10  H   LIG    1       11.475 -10.566  -5.203  0.00  0.00    +0.157 HD
BRANCH   9  11
ATOM     11  C   LIG    1       12.713  -9.665  -6.523  0.00  0.00    +0.043 A 
ATOM     12  C   LIG    1       13.320 -10.832  -7.092  0.00  0.00    +0.003 A 
ATOM     13  C   LIG    1       13.991 -10.652  -8.333  0.00  0.00    +0.011 A 
ATOM     14  C   LIG    1       14.046  -9.424  -9.009  0.00  0.00    +0.013 A 
ATOM     15  C   LIG    1       13.450  -8.296  -8.458  0.00  0.00    +0.057 A 
ATOM     16  C   LIG    1       12.816  -8.428  -7.214  0.00  0.00    +0.036 A 
BRANCH  12  17
ATOM     17  C   LIG    1       13.301 -12.223  -6.493  0.00  0.00    -0.016 A 
ATOM     18  C   LIG    1       13.318 -13.382  -7.316  0.00  0.00    +0.012 A 
ATOM     19  C   LIG    1       13.368 -14.695  -6.799  0.00  0.00    -0.050 A 
ATOM     20  C   LIG    1       13.447 -15.885  -7.716  0.00  0.00    +0.044 C 
ATOM     21  C   LIG    1       13.400 -14.876  -5.419  0.00  0.00    +0.003 A 
ATOM     22  C   LIG    1       13.356 -13.768  -4.580  0.00  0.00    +0.001 A 
ATOM     23  C   LIG    1       13.318 -12.467  -5.109  0.00  0.00    +0.008 A 
ENDBRANCH  12  17
BRANCH  15  24
ATOM     24  C   LIG    1       13.439  -6.979  -9.202  0.00  0.00    +0.417 C 
ATOM     25  F   LIG    1       12.854  -7.083 -10.427  0.00  0.00    -0.166 F 
ATOM     26  F   LIG    1       14.688  -6.484  -9.421  0.00  0.00    -0.166 F 
ATOM     27  F   LIG    1       12.759  -5.997  -8.548  0.00  0.00    -0.166 F 
ENDBRANCH  15  24
ENDBRANCH   9  11
ENDBRANCH   8   9
BRANCH   8  28
ATOM     28  O   LIG    1       12.277  -7.610  -4.422  0.00  0.00    -0.481 OA
ATOM     29  H   LIG    1       13.124  -7.735  -4.876  0.00  0.00    +0.295 HD
ENDBRANCH   8  28
ENDBRANCH   4   7
BRANCH   1  30
ATOM     30  O   LIG    1        8.129  -4.591  -1.023  0.00  0.00    -0.424 OA
BRANCH  30  34
ATOM     31  C   LIG    1        7.021  -5.159   2.972  0.00  0.00    -0.011 A 
ATOM     32  C   LIG    1        6.260  -4.351   2.115  0.00  0.00    +0.012 A 
ATOM     33  C   LIG    1        6.655  -4.158   0.783  0.00  0.00    +0.047 A 
ATOM     34  C   LIG    1        7.800  -4.788   0.296  0.00  0.00    +0.132 A 
ATOM     35  C   LIG    1        8.599  -5.530   1.162  0.00  0.00    +0.047 A 
ATOM     36  C   LIG    1        8.214  -5.709   2.485  0.00  0.00    +0.012 A 
BRANCH  31  43
ATOM     37  C   LIG    1        7.727  -8.714   5.737  0.00  0.00    +0.300 C 
ATOM     38  C   LIG    1        7.193  -8.487   7.125  0.00  0.00    +0.099 C 
ATOM     39  C   LIG    1        6.543  -7.332   7.354  0.00  0.00    +0.170 C 
ATOM     40  N   LIG    1        6.374  -6.365   6.359  0.00  0.00    -0.221 N 
ATOM     41  N   LIG    1        5.741  -5.169   6.461  0.00  0.00    -0.175 NA
ATOM     42  C   LIG    1        5.886  -4.608   5.256  0.00  0.00    +0.147 A 
ATOM     43  C   LIG    1        6.608  -5.409   4.344  0.00  0.00    +0.066 A 
ATOM     44  C   LIG    1        6.873  -6.552   5.070  0.00  0.00    +0.219 A 
ATOM     45  N   LIG    1        7.492  -7.733   4.788  0.00  0.00    -0.187 N 
ATOM     46  H   LIG    1        7.765  -7.946   3.838  0.00  0.00    +0.300 HD
BRANCH  37  47
ATOM     47  N   LIG    1        8.371  -9.821   5.547  0.00  0.00    -0.054 NA
BRANCH  47  49
ATOM     48  C   LIG    1        9.636 -11.424   4.237  0.00  0.00    +0.055 C 
ATOM     49  C   LIG    1        8.934 -10.078   4.222  0.00  0.00    +0.274 C 
ENDBRANCH  47  49
ENDBRANCH  37  47
ENDBRANCH  31  43
ENDBRANCH  30  34
ENDBRANCH   1  30
TORSDOF 11
