REMARK  Name = pdb/CHEMBL3933154.pdb
REMARK                            x       y       z     vdW  Elec       q    Type
REMARK                         _______ _______ _______ _____ _____    ______ ____
ROOT
ATOM      1  C   LIG    1        3.690   0.287   1.280  0.00  0.00    +0.149 A 
ATOM      2  N   LIG    1        4.166  -0.009   2.498  0.00  0.00    -0.160 NA
ATOM      3  N   LIG    1        4.442   1.177   3.087  0.00  0.00    -0.218 N 
ATOM      4  C   LIG    1        3.995   2.256   2.311  0.00  0.00    +0.129 A 
ATOM      5  C   LIG    1        3.626   1.697   1.104  0.00  0.00    +0.078 A 
ENDROOT
BRANCH   3   6
ATOM      6  C   LIG    1        5.007   1.192   4.392  0.00  0.00    +0.067 A 
ATOM      7  C   LIG    1        4.814   0.089   5.243  0.00  0.00    +0.028 A 
ATOM      8  C   LIG    1        5.331   0.106   6.541  0.00  0.00    +0.002 A 
ATOM      9  C   LIG    1        6.061   1.206   6.986  0.00  0.00    +0.000 A 
ATOM     10  C   LIG    1        6.287   2.284   6.133  0.00  0.00    +0.002 A 
ATOM     11  C   LIG    1        5.770   2.276   4.835  0.00  0.00    +0.028 A 
ENDBRANCH   3   6
BRANCH   4  12
ATOM     12  N   LIG    1        3.855   3.600   2.713  0.00  0.00    -0.266 N 
ATOM     13  H   LIG    1        4.277   3.879   3.586  0.00  0.00    +0.157 HD
ATOM     14  C   LIG    1        2.974   4.544   2.060  0.00  0.00    +0.251 C 
ATOM     15  O   LIG    1        2.309   4.207   1.105  0.00  0.00    -0.270 OA
BRANCH  14  16
ATOM     16  C   LIG    1        2.809   5.905   2.667  0.00  0.00    +0.056 A 
ATOM     17  C   LIG    1        3.807   6.588   3.354  0.00  0.00    +0.054 A 
ATOM     18 CL   LIG    1        5.429   6.016   3.472  0.00  0.00    -0.083 Cl
ATOM     19  C   LIG    1        3.528   7.828   3.938  0.00  0.00    +0.041 A 
ATOM     20  C   LIG    1        2.273   8.440   3.791  0.00  0.00    +0.052 A 
ATOM     21 CL   LIG    1        2.071   9.909   4.688  0.00  0.00    -0.083 Cl
ATOM     22  C   LIG    1        1.273   7.854   2.992  0.00  0.00    +0.019 A 
ATOM     23  C   LIG    1        1.567   6.554   2.484  0.00  0.00    +0.026 A 
BRANCH  22  24
ATOM     24  C   LIG    1       -0.015   8.500   2.598  0.00  0.00    +0.072 A 
ATOM     25  N   LIG    1       -1.002   7.636   2.241  0.00  0.00    -0.255 NA
ATOM     26  C   LIG    1       -2.160   8.145   1.751  0.00  0.00    +0.111 A 
ATOM     27  C   LIG    1       -2.407   9.495   1.594  0.00  0.00    +0.020 A 
ATOM     28  C   LIG    1       -1.407  10.378   1.963  0.00  0.00    +0.004 A 
ATOM     29  C   LIG    1       -0.202   9.878   2.458  0.00  0.00    +0.028 A 
ENDBRANCH  22  24
ENDBRANCH  14  16
ENDBRANCH   4  12
BRANCH   1  30
ATOM     30  C   LIG    1        3.221  -0.760   0.361  0.00  0.00    +0.236 C 
ATOM     31  N   LIG    1        2.653  -0.437  -0.745  0.00  0.00    -0.243 NA
BRANCH  30  32
ATOM     32  O   LIG    1        3.387  -2.025   0.806  0.00  0.00    -0.491 OA
ATOM     33  H   LIG    1        2.828  -2.666   0.344  0.00  0.00    +0.294 HD
ENDBRANCH  30  32
BRANCH  31  34
ATOM     34  C   LIG    1        2.162  -1.483  -1.645  0.00  0.00    +0.204 C 
BRANCH  34  35
ATOM     35  C   LIG    1        0.772  -1.883  -1.275  0.00  0.00    +0.105 A 
ATOM     36  N   LIG    1        0.511  -3.130  -0.862  0.00  0.00    -0.082 NA
ATOM     37  O   LIG    1       -0.849  -3.154  -0.590  0.00  0.00    -0.363 OA
ATOM     38  C   LIG    1       -1.377  -1.926  -0.819  0.00  0.00    +0.230 A 
ATOM     39  C   LIG    1       -0.393  -1.081  -1.258  0.00  0.00    +0.069 A 
ENDBRANCH  34  35
ENDBRANCH  31  34
ENDBRANCH   1  30
TORSDOF 8
