REMARK  Name = pdb/CHEMBL3911127.pdb
REMARK                            x       y       z     vdW  Elec       q    Type
REMARK                         _______ _______ _______ _____ _____    ______ ____
ROOT
ATOM      1  C   LIG    1        7.004  -2.662  -1.271  0.00  0.00    +0.129 A 
ATOM      2  N   LIG    1        6.858  -3.150   0.042  0.00  0.00    -0.218 N 
ATOM      3  N   LIG    1        7.828  -4.084   0.313  0.00  0.00    -0.160 NA
ATOM      4  C   LIG    1        8.683  -4.044  -0.735  0.00  0.00    +0.149 A 
ATOM      5  C   LIG    1        8.222  -3.126  -1.692  0.00  0.00    +0.078 A 
ENDROOT
BRANCH   2   6
ATOM      6  C   LIG    1        5.924  -2.774   1.065  0.00  0.00    +0.067 A 
ATOM      7  C   LIG    1        5.796  -3.574   2.216  0.00  0.00    +0.028 A 
ATOM      8  C   LIG    1        4.966  -3.182   3.276  0.00  0.00    +0.002 A 
ATOM      9  C   LIG    1        4.255  -1.988   3.204  0.00  0.00    +0.000 A 
ATOM     10  C   LIG    1        4.359  -1.195   2.065  0.00  0.00    +0.002 A 
ATOM     11  C   LIG    1        5.191  -1.580   1.002  0.00  0.00    +0.028 A 
ENDBRANCH   2   6
BRANCH   1  13
ATOM     12  C   LIG    1        6.401  -1.386  -3.339  0.00  0.00    +0.251 C 
ATOM     13  N   LIG    1        6.076  -1.912  -2.030  0.00  0.00    -0.266 N 
ATOM     14  H   LIG    1        5.150  -1.787  -1.673  0.00  0.00    +0.157 HD
ATOM     15  O   LIG    1        7.508  -1.577  -3.809  0.00  0.00    -0.270 OA
BRANCH  12  20
ATOM     16  C   LIG    1        2.597   1.108  -6.926  0.00  0.00    +0.044 C 
ATOM     17  C   LIG    1        3.680   0.603  -6.000  0.00  0.00    -0.040 A 
ATOM     18  C   LIG    1        5.026   0.403  -6.401  0.00  0.00    +0.007 A 
ATOM     19  C   LIG    1        5.840  -0.245  -5.440  0.00  0.00    +0.025 A 
ATOM     20  C   LIG    1        5.401  -0.647  -4.148  0.00  0.00    +0.056 A 
ATOM     21  C   LIG    1        4.116  -0.321  -3.760  0.00  0.00    +0.053 A 
ATOM     22 CL   LIG    1        3.455  -0.675  -2.208  0.00  0.00    -0.083 Cl
ATOM     23  C   LIG    1        3.268   0.302  -4.678  0.00  0.00    +0.024 A 
BRANCH  18  24
ATOM     24  C   LIG    1        5.596   0.831  -7.733  0.00  0.00    +0.106 A 
ATOM     25  C   LIG    1        6.934   0.684  -8.131  0.00  0.00    +0.149 A 
ATOM     26  F   LIG    1        7.861   0.097  -7.363  0.00  0.00    -0.203 F 
ATOM     27  C   LIG    1        7.367   1.163  -9.367  0.00  0.00    +0.042 A 
ATOM     28  C   LIG    1        6.462   1.775 -10.218  0.00  0.00    +0.023 A 
ATOM     29  C   LIG    1        5.157   1.882  -9.786  0.00  0.00    +0.111 A 
ATOM     30  N   LIG    1        4.724   1.440  -8.580  0.00  0.00    -0.252 NA
ENDBRANCH  18  24
ENDBRANCH  12  20
ENDBRANCH   1  13
BRANCH   4  31
ATOM     31  C   LIG    1        9.873  -4.914  -0.753  0.00  0.00    +0.236 C 
ATOM     32  N   LIG    1       10.766  -5.098  -1.650  0.00  0.00    -0.246 NA
BRANCH  31  33
ATOM     33  O   LIG    1       10.002  -5.636   0.388  0.00  0.00    -0.491 OA
ATOM     34  H   LIG    1        9.269  -5.419   0.994  0.00  0.00    +0.294 HD
ENDBRANCH  31  33
BRANCH  32  35
ATOM     35  C   LIG    1       10.861  -4.472  -2.969  0.00  0.00    +0.179 C 
BRANCH  35  36
ATOM     36  C   LIG    1       12.092  -5.062  -3.731  0.00  0.00    +0.080 C 
ATOM     37  C   LIG    1       12.307  -4.388  -5.091  0.00  0.00    +0.043 C 
ATOM     38  C   LIG    1       11.965  -6.572  -3.952  0.00  0.00    +0.043 C 
BRANCH  36  39
ATOM     39  O   LIG    1       13.273  -4.822  -2.956  0.00  0.00    -0.387 OA
ATOM     40  H   LIG    1       13.084  -5.195  -2.073  0.00  0.00    +0.210 HD
ENDBRANCH  36  39
ENDBRANCH  35  36
ENDBRANCH  32  35
ENDBRANCH   4  31
TORSDOF 9
