REMARK  Name = pdb/CHEMBL3671449.pdb
REMARK                            x       y       z     vdW  Elec       q    Type
REMARK                         _______ _______ _______ _____ _____    ______ ____
ROOT
ATOM      1  C   LIG    1        4.515   1.046  -5.517  0.00  0.00    +0.042 A 
ATOM      2  C   LIG    1        4.686   0.649  -6.862  0.00  0.00    +0.038 A 
ATOM      3  C   LIG    1        4.801   1.625  -7.869  0.00  0.00    +0.052 A 
ATOM      4  C   LIG    1        4.688   2.957  -7.465  0.00  0.00    +0.134 A 
ATOM      5  N   LIG    1        4.586   3.368  -6.178  0.00  0.00    -0.261 NA
ATOM      6  C   LIG    1        4.548   2.403  -5.239  0.00  0.00    +0.122 A 
ENDROOT
BRANCH   3   7
ATOM      7  N   LIG    1        5.049   1.227  -9.213  0.00  0.00    -0.283 N 
ATOM      8  H   LIG    1        5.191   0.232  -9.385  0.00  0.00    +0.155 HD
ATOM      9  C   LIG    1        5.286   2.089 -10.281  0.00  0.00    +0.239 C 
ATOM     10  O   LIG    1        5.189   3.315 -10.232  0.00  0.00    -0.273 OA
BRANCH   9  11
ATOM     11  C   LIG    1        5.627   1.432 -11.602  0.00  0.00    +0.239 C 
BRANCH  11  12
ATOM     12  N   LIG    1        6.886   0.721 -11.545  0.00  0.00    -0.262 N 
ATOM     13  N   LIG    1        6.895  -0.574 -11.159  0.00  0.00    -0.179 NA
ATOM     14  C   LIG    1        8.192  -0.904 -11.200  0.00  0.00    +0.138 A 
ATOM     15  C   LIG    1        8.994   0.174 -11.614  0.00  0.00    -0.007 A 
ATOM     16  C   LIG    1        8.123   1.207 -11.855  0.00  0.00    +0.112 A 
BRANCH  15  17
ATOM     17  C   LIG    1       10.500   0.194 -11.737  0.00  0.00    +0.022 C 
ATOM     18  C   LIG    1       11.223   1.454 -11.295  0.00  0.00    +0.009 C 
ATOM     19  C   LIG    1       11.153   1.118 -12.744  0.00  0.00    +0.009 C 
ENDBRANCH  15  17
ENDBRANCH  11  12
ENDBRANCH   9  11
ENDBRANCH   3   7
BRANCH   1  20
ATOM     20  C   LIG    1        4.328   0.060  -4.408  0.00  0.00    +0.197 C 
ATOM     21  O   LIG    1        4.852  -1.036  -4.479  0.00  0.00    -0.287 OA
BRANCH  20  29
ATOM     22  N   LIG    1        1.891   1.494  -2.039  0.00  0.00    -0.326 N 
ATOM     23  C   LIG    1        2.663   0.770  -1.162  0.00  0.00    +0.147 A 
ATOM     24  N   LIG    1        2.520   0.743   0.170  0.00  0.00    -0.197 NA
ATOM     25  C   LIG    1        3.353  -0.082   0.795  0.00  0.00    +0.214 A 
ATOM     26  N   LIG    1        4.265  -0.867   0.208  0.00  0.00    -0.222 NA
ATOM     27  C   LIG    1        4.390  -0.827  -1.144  0.00  0.00    +0.126 A 
ATOM     28  C   LIG    1        3.603   0.050  -1.891  0.00  0.00    +0.048 A 
ATOM     29  C   LIG    1        3.503   0.469  -3.255  0.00  0.00    +0.051 A 
ATOM     30  C   LIG    1        2.442   1.362  -3.298  0.00  0.00    +0.100 A 
BRANCH  22  32
ATOM     31  C   LIG    1       -0.505   1.471  -2.558  0.00  0.00    +0.034 C 
ATOM     32  C   LIG    1        0.613   2.190  -1.769  0.00  0.00    +0.039 C 
ATOM     33  C   LIG    1        0.209   2.202  -0.279  0.00  0.00    +0.034 C 
ATOM     34  C   LIG    1        0.678   3.661  -2.228  0.00  0.00    +0.034 C 
ENDBRANCH  22  32
BRANCH  25  35
ATOM     35  N   LIG    1        3.306  -0.058   2.177  0.00  0.00    -0.327 N 
ATOM     36  H   LIG    1        2.938   0.837   2.472  0.00  0.00    +0.145 HD
ATOM     37  H   LIG    1        4.207  -0.323   2.549  0.00  0.00    +0.145 HD
ENDBRANCH  25  35
ENDBRANCH  20  29
ENDBRANCH   1  20
TORSDOF 8
