REMARK  Name = pdb/CHEMBL3952980.pdb
REMARK                            x       y       z     vdW  Elec       q    Type
REMARK                         _______ _______ _______ _____ _____    ______ ____
ROOT
ATOM      1  C   LIG    1        9.789  -0.973  -5.204  0.00  0.00    +0.251 C 
ATOM      2  N   LIG    1        9.318   0.391  -5.016  0.00  0.00    -0.266 N 
ATOM      3  H   LIG    1        9.194   0.766  -4.077  0.00  0.00    +0.157 HD
ATOM      4  O   LIG    1       10.002  -1.412  -6.309  0.00  0.00    -0.270 OA
ENDROOT
BRANCH   1  11
ATOM      5  C   LIG    1       10.928  -4.001  -3.195  0.00  0.00    +0.019 A 
ATOM      6  C   LIG    1       10.881  -3.475  -1.889  0.00  0.00    +0.052 A 
ATOM      7 CL   LIG    1       11.463  -4.293  -0.481  0.00  0.00    -0.083 Cl
ATOM      8  C   LIG    1       10.400  -2.180  -1.642  0.00  0.00    +0.041 A 
ATOM      9  C   LIG    1        9.993  -1.343  -2.676  0.00  0.00    +0.054 A 
ATOM     10 CL   LIG    1        9.435   0.217  -2.197  0.00  0.00    -0.083 Cl
ATOM     11  C   LIG    1       10.074  -1.793  -3.996  0.00  0.00    +0.056 A 
ATOM     12  C   LIG    1       10.517  -3.118  -4.224  0.00  0.00    +0.026 A 
BRANCH   5  15
ATOM     13  C   LIG    1       12.231  -6.706  -5.315  0.00  0.00    +0.068 A 
ATOM     14  N   LIG    1       11.882  -5.479  -4.835  0.00  0.00    -0.249 NA
ATOM     15  C   LIG    1       11.380  -5.371  -3.573  0.00  0.00    +0.073 A 
ATOM     16  C   LIG    1       11.250  -6.499  -2.766  0.00  0.00    +0.028 A 
ATOM     17  C   LIG    1       11.666  -7.741  -3.238  0.00  0.00    +0.004 A 
ATOM     18  C   LIG    1       12.154  -7.851  -4.530  0.00  0.00    +0.026 A 
BRANCH  13  19
ATOM     19  C   LIG    1       12.726  -6.810  -6.746  0.00  0.00    +0.214 C 
BRANCH  19  21
ATOM     20  C   LIG    1       12.177  -6.451  -9.012  0.00  0.00    +0.194 C 
ATOM     21  O   LIG    1       11.714  -6.393  -7.668  0.00  0.00    -0.377 OA
ENDBRANCH  19  21
ENDBRANCH  13  19
ENDBRANCH   5  15
ENDBRANCH   1  11
BRANCH   2  22
ATOM     22  C   LIG    1        9.034   1.241  -6.082  0.00  0.00    +0.129 A 
ATOM     23  N   LIG    1        8.807   2.613  -6.112  0.00  0.00    -0.218 N 
ATOM     24  N   LIG    1        8.500   3.042  -7.378  0.00  0.00    -0.160 NA
ATOM     25  C   LIG    1        8.615   1.945  -8.159  0.00  0.00    +0.149 A 
ATOM     26  C   LIG    1        8.805   0.810  -7.361  0.00  0.00    +0.078 A 
BRANCH  23  27
ATOM     27  C   LIG    1        8.908   3.543  -5.040  0.00  0.00    +0.067 A 
ATOM     28  C   LIG    1        8.112   4.698  -5.049  0.00  0.00    +0.028 A 
ATOM     29  C   LIG    1        8.223   5.633  -4.014  0.00  0.00    +0.002 A 
ATOM     30  C   LIG    1        9.143   5.435  -2.985  0.00  0.00    +0.000 A 
ATOM     31  C   LIG    1        9.936   4.290  -2.973  0.00  0.00    +0.002 A 
ATOM     32  C   LIG    1        9.818   3.342  -3.993  0.00  0.00    +0.028 A 
ENDBRANCH  23  27
BRANCH  25  33
ATOM     33  C   LIG    1        8.516   2.036  -9.623  0.00  0.00    +0.236 C 
ATOM     34  N   LIG    1        8.615   1.110 -10.501  0.00  0.00    -0.247 NA
BRANCH  33  35
ATOM     35  O   LIG    1        8.311   3.298 -10.071  0.00  0.00    -0.491 OA
ATOM     36  H   LIG    1        8.282   3.911  -9.315  0.00  0.00    +0.294 HD
ENDBRANCH  33  35
BRANCH  34  37
ATOM     37  C   LIG    1        8.851  -0.294 -10.213  0.00  0.00    +0.173 C 
BRANCH  37  38
ATOM     38  C   LIG    1        7.527  -1.017  -9.950  0.00  0.00    +0.179 C 
BRANCH  38  39
ATOM     39  O   LIG    1        7.760  -2.344  -9.498  0.00  0.00    -0.393 OA
ATOM     40  H   LIG    1        8.304  -2.790 -10.171  0.00  0.00    +0.209 HD
ENDBRANCH  38  39
ENDBRANCH  37  38
ENDBRANCH  34  37
ENDBRANCH  25  33
ENDBRANCH   2  22
TORSDOF 11
