REMARK  Name = pdb/CHEMBL3671320.pdb
REMARK                            x       y       z     vdW  Elec       q    Type
REMARK                         _______ _______ _______ _____ _____    ______ ____
ROOT
ATOM      1  C   LIG    1        6.983  -1.275   1.382  0.00  0.00    +0.045 A 
ATOM      2  C   LIG    1        7.601   0.049   1.421  0.00  0.00    +0.041 A 
ATOM      3  C   LIG    1        6.874   1.169   1.466  0.00  0.00    +0.088 A 
ATOM      4  N   LIG    1        5.515   1.095   1.450  0.00  0.00    -0.328 N 
ATOM      5  H   LIG    1        4.950   1.936   1.463  0.00  0.00    +0.168 HD
ATOM      6  C   LIG    1        4.823  -0.083   1.408  0.00  0.00    +0.261 A 
ATOM      7  O   LIG    1        3.591  -0.069   1.369  0.00  0.00    -0.267 OA
ATOM      8  C   LIG    1        5.626  -1.371   1.418  0.00  0.00    +0.102 A 
ENDROOT
BRANCH   8   9
ATOM      9  C   LIG    1        4.929  -2.625   1.452  0.00  0.00    +0.146 A 
ATOM     10  N   LIG    1        3.552  -2.599   1.455  0.00  0.00    -0.338 N 
ATOM     11  H   LIG    1        2.993  -1.753   1.415  0.00  0.00    +0.167 HD
ATOM     12  C   LIG    1        3.065  -3.866   1.581  0.00  0.00    +0.067 A 
ATOM     13  C   LIG    1        1.759  -4.326   1.719  0.00  0.00    +0.041 A 
ATOM     14  C   LIG    1        1.661  -5.700   1.781  0.00  0.00    +0.044 A 
ATOM     15  C   LIG    1        0.443  -6.505   1.869  0.00  0.00    +0.248 C 
ATOM     16  O   LIG    1       -0.688  -6.035   1.958  0.00  0.00    -0.270 OA
ATOM     17  N   LIG    1        0.821  -7.832   1.801  0.00  0.00    -0.290 N 
ATOM     18  C   LIG    1        2.270  -7.969   1.699  0.00  0.00    +0.144 C 
ATOM     19  C   LIG    1        2.757  -6.558   1.697  0.00  0.00    -0.013 A 
ATOM     20  C   LIG    1        4.072  -6.082   1.580  0.00  0.00    -0.018 A 
ATOM     21  C   LIG    1        5.232  -7.028   1.508  0.00  0.00    +0.046 C 
ATOM     22  C   LIG    1        4.200  -4.673   1.544  0.00  0.00    +0.093 A 
ATOM     23  N   LIG    1        5.335  -3.886   1.496  0.00  0.00    -0.227 NA
BRANCH  17  24
ATOM     24  C   LIG    1       -0.143  -8.930   1.635  0.00  0.00    +0.079 C 
ATOM     25  C   LIG    1       -0.094  -9.983   2.743  0.00  0.00    +0.038 C 
ATOM     26  C   LIG    1        0.981 -11.049   2.527  0.00  0.00    +0.086 C 
ATOM     27  N   LIG    1        1.031 -11.630   1.181  0.00  0.00    -0.305 NA
ATOM     28  C   LIG    1        0.002 -12.641   0.965  0.00  0.00    +0.104 C 
ATOM     29  C   LIG    1        1.029 -10.617   0.126  0.00  0.00    +0.086 C 
ATOM     30  C   LIG    1       -0.086  -9.578   0.249  0.00  0.00    +0.038 C 
ENDBRANCH  17  24
ENDBRANCH   8   9
BRANCH   1  31
ATOM     31  N   LIG    1        7.911  -2.322   1.395  0.00  0.00    -0.340 N 
ATOM     32  H   LIG    1        7.528  -3.101   1.943  0.00  0.00    +0.146 HD
BRANCH  31  34
ATOM     33  C   LIG    1        9.871  -3.368   0.414  0.00  0.00    +0.028 C 
ATOM     34  C   LIG    1        8.454  -2.871   0.124  0.00  0.00    +0.072 C 
BRANCH  34  35
ATOM     35  C   LIG    1        7.541  -4.000  -0.404  0.00  0.00    +0.063 C 
BRANCH  35  36
ATOM     36  C   LIG    1        7.966  -4.674  -1.677  0.00  0.00    +0.030 A 
ATOM     37  C   LIG    1        7.530  -4.209  -2.920  0.00  0.00    +0.165 A 
ATOM     38  F   LIG    1        6.723  -3.140  -2.985  0.00  0.00    -0.202 F 
ATOM     39  C   LIG    1        7.915  -4.849  -4.097  0.00  0.00    +0.162 A 
ATOM     40  F   LIG    1        7.480  -4.394  -5.279  0.00  0.00    -0.202 F 
ATOM     41  C   LIG    1        8.749  -5.960  -4.062  0.00  0.00    +0.082 A 
ATOM     42  C   LIG    1        9.183  -6.431  -2.830  0.00  0.00    +0.162 A 
ATOM     43  F   LIG    1        9.991  -7.498  -2.781  0.00  0.00    -0.202 F 
ATOM     44  C   LIG    1        8.789  -5.803  -1.650  0.00  0.00    +0.165 A 
ATOM     45  F   LIG    1        9.214  -6.286  -0.474  0.00  0.00    -0.202 F 
ENDBRANCH  35  36
ENDBRANCH  34  35
ENDBRANCH  31  34
ENDBRANCH   1  31
TORSDOF 6
