REMARK  Name = pdb/CHEMBL3899561.pdb
REMARK                            x       y       z     vdW  Elec       q    Type
REMARK                         _______ _______ _______ _____ _____    ______ ____
ROOT
ATOM      1  C   LIG    1        3.595   0.093  -4.266  0.00  0.00    +0.149 A 
ATOM      2  N   LIG    1        4.716   0.750  -4.602  0.00  0.00    -0.160 NA
ATOM      3  N   LIG    1        4.475   2.048  -4.254  0.00  0.00    -0.218 N 
ATOM      4  C   LIG    1        3.148   2.217  -3.835  0.00  0.00    +0.129 A 
ATOM      5  C   LIG    1        2.601   0.963  -3.789  0.00  0.00    +0.078 A 
ENDROOT
BRANCH   3   6
ATOM      6  C   LIG    1        5.513   3.014  -4.407  0.00  0.00    +0.067 A 
ATOM      7  C   LIG    1        5.589   4.162  -3.609  0.00  0.00    +0.028 A 
ATOM      8  C   LIG    1        6.605   5.104  -3.824  0.00  0.00    +0.002 A 
ATOM      9  C   LIG    1        7.558   4.898  -4.819  0.00  0.00    +0.000 A 
ATOM     10  C   LIG    1        7.516   3.737  -5.586  0.00  0.00    +0.002 A 
ATOM     11  C   LIG    1        6.509   2.792  -5.373  0.00  0.00    +0.028 A 
ENDBRANCH   3   6
BRANCH   4  12
ATOM     12  N   LIG    1        2.468   3.409  -3.601  0.00  0.00    -0.266 N 
ATOM     13  H   LIG    1        3.000   4.264  -3.721  0.00  0.00    +0.157 HD
ATOM     14  C   LIG    1        1.053   3.511  -3.324  0.00  0.00    +0.251 C 
ATOM     15  O   LIG    1        0.351   2.520  -3.248  0.00  0.00    -0.270 OA
BRANCH  14  16
ATOM     16  C   LIG    1        0.486   4.887  -3.133  0.00  0.00    +0.056 A 
ATOM     17  C   LIG    1        1.220   6.067  -3.217  0.00  0.00    +0.056 A 
ATOM     18 CL   LIG    1        2.887   6.187  -3.634  0.00  0.00    -0.083 Cl
ATOM     19  C   LIG    1        0.604   7.292  -2.993  0.00  0.00    +0.059 A 
ATOM     20  C   LIG    1       -0.757   7.354  -2.736  0.00  0.00    +0.134 A 
ATOM     21  F   LIG    1       -1.283   8.575  -2.575  0.00  0.00    -0.205 F 
ATOM     22  C   LIG    1       -1.558   6.207  -2.690  0.00  0.00    +0.036 A 
ATOM     23  C   LIG    1       -0.904   4.965  -2.860  0.00  0.00    +0.027 A 
BRANCH  22  24
ATOM     24  C   LIG    1       -3.025   6.291  -2.546  0.00  0.00    +0.074 A 
ATOM     25  N   LIG    1       -3.726   5.351  -3.231  0.00  0.00    -0.255 NA
ATOM     26  C   LIG    1       -5.079   5.432  -3.207  0.00  0.00    +0.111 A 
ATOM     27  C   LIG    1       -5.782   6.404  -2.519  0.00  0.00    +0.020 A 
ATOM     28  C   LIG    1       -5.059   7.347  -1.805  0.00  0.00    +0.004 A 
ATOM     29  C   LIG    1       -3.667   7.289  -1.814  0.00  0.00    +0.028 A 
ENDBRANCH  22  24
ENDBRANCH  14  16
ENDBRANCH   4  12
BRANCH   1  30
ATOM     30  C   LIG    1        3.491  -1.349  -4.421  0.00  0.00    +0.236 C 
ATOM     31  N   LIG    1        2.390  -1.950  -4.154  0.00  0.00    -0.248 NA
BRANCH  30  32
ATOM     32  O   LIG    1        4.625  -1.954  -4.838  0.00  0.00    -0.491 OA
ATOM     33  H   LIG    1        5.308  -1.269  -4.980  0.00  0.00    +0.294 HD
ENDBRANCH  30  32
BRANCH  31  34
ATOM     34  C   LIG    1        2.383  -3.403  -4.322  0.00  0.00    +0.162 C 
BRANCH  34  35
ATOM     35  C   LIG    1        1.017  -3.911  -4.725  0.00  0.00    +0.052 C 
ATOM     36  C   LIG    1        0.923  -5.361  -4.946  0.00  0.00    +0.028 C 
ATOM     37  C   LIG    1       -0.220  -5.897  -5.404  0.00  0.00    +0.184 C 
ATOM     38  N   LIG    1       -1.319  -5.118  -5.647  0.00  0.00    -0.210 N 
ATOM     39  H   LIG    1       -2.186  -5.544  -5.945  0.00  0.00    +0.298 HD
ATOM     40  C   LIG    1       -1.334  -3.776  -5.375  0.00  0.00    +0.295 C 
ATOM     41  C   LIG    1       -0.069  -3.127  -4.909  0.00  0.00    +0.083 C 
BRANCH  40  42
ATOM     42  N   LIG    1       -2.430  -3.101  -5.523  0.00  0.00    -0.071 NA
ATOM     43  H   LIG    1       -2.278  -2.122  -5.265  0.00  0.00    +0.348 HD
ENDBRANCH  40  42
ENDBRANCH  34  35
ENDBRANCH  31  34
ENDBRANCH   1  30
TORSDOF 9
