REMARK  Name = pdb/CHEMBL3956053.pdb
REMARK                            x       y       z     vdW  Elec       q    Type
REMARK                         _______ _______ _______ _____ _____    ______ ____
ROOT
ATOM      1  C   LIG    1        3.138   0.595  -1.332  0.00  0.00    +0.131 C 
ATOM      2  N   LIG    1        3.629   0.809  -2.561  0.00  0.00    -0.141 NA
ATOM      3  N   LIG    1        3.978   2.111  -2.576  0.00  0.00    -0.201 N 
ATOM      4  C   LIG    1        3.453   2.804  -1.486  0.00  0.00    +0.185 C 
ATOM      5  C   LIG    1        2.911   1.828  -0.669  0.00  0.00    +0.056 C 
ENDROOT
BRANCH   3   6
ATOM      6  C   LIG    1        4.870   2.557  -3.582  0.00  0.00    +0.052 A 
ATOM      7  C   LIG    1        5.908   3.443  -3.278  0.00  0.00    +0.025 A 
ATOM      8  C   LIG    1        6.850   3.764  -4.260  0.00  0.00    +0.002 A 
ATOM      9  C   LIG    1        6.746   3.221  -5.542  0.00  0.00    +0.000 A 
ATOM     10  C   LIG    1        5.712   2.338  -5.845  0.00  0.00    +0.002 A 
ATOM     11  C   LIG    1        4.786   1.989  -4.863  0.00  0.00    +0.025 A 
ENDBRANCH   3   6
BRANCH   4  12
ATOM     12  N   LIG    1        3.449   4.192  -1.287  0.00  0.00    -0.282 N 
ATOM     13  H   LIG    1        3.731   4.765  -2.085  0.00  0.00    +0.152 HD
ATOM     14  C   LIG    1        3.058   4.841  -0.059  0.00  0.00    +0.247 C 
ATOM     15  O   LIG    1        2.764   4.172   0.930  0.00  0.00    -0.270 OA
BRANCH  14  16
ATOM     16  C   LIG    1        3.034   6.324   0.001  0.00  0.00    +0.056 A 
ATOM     17  C   LIG    1        3.872   7.149  -0.760  0.00  0.00    +0.054 A 
ATOM     18 CL   LIG    1        4.966   6.572  -1.955  0.00  0.00    -0.083 Cl
ATOM     19  C   LIG    1        3.877   8.524  -0.536  0.00  0.00    +0.041 A 
ATOM     20  C   LIG    1        3.030   9.114   0.411  0.00  0.00    +0.052 A 
ATOM     21 CL   LIG    1        3.311  10.803   0.677  0.00  0.00    -0.083 Cl
ATOM     22  C   LIG    1        2.087   8.346   1.123  0.00  0.00    +0.019 A 
ATOM     23  C   LIG    1        2.151   6.940   0.924  0.00  0.00    +0.026 A 
BRANCH  22  24
ATOM     24  C   LIG    1        1.052   8.918   2.032  0.00  0.00    +0.072 A 
ATOM     25  N   LIG    1        0.656   8.115   3.053  0.00  0.00    -0.255 NA
ATOM     26  C   LIG    1       -0.308   8.577   3.891  0.00  0.00    +0.111 A 
ATOM     27  C   LIG    1       -0.914   9.815   3.773  0.00  0.00    +0.020 A 
ATOM     28  C   LIG    1       -0.522  10.625   2.723  0.00  0.00    +0.004 A 
ATOM     29  C   LIG    1        0.447  10.163   1.834  0.00  0.00    +0.028 A 
ENDBRANCH  22  24
ENDBRANCH  14  16
ENDBRANCH   4  12
BRANCH   1  30
ATOM     30  C   LIG    1        2.915  -0.762  -0.836  0.00  0.00    +0.233 C 
ATOM     31  N   LIG    1        2.028  -1.001   0.063  0.00  0.00    -0.246 NA
BRANCH  30  32
ATOM     32  O   LIG    1        3.748  -1.680  -1.373  0.00  0.00    -0.491 OA
ATOM     33  H   LIG    1        3.712  -2.534  -0.928  0.00  0.00    +0.294 HD
ENDBRANCH  30  32
BRANCH  31  34
ATOM     34  C   LIG    1        1.794  -2.388   0.492  0.00  0.00    +0.184 C 
BRANCH  34  35
ATOM     35  C   LIG    1        0.331  -2.534   0.924  0.00  0.00    +0.132 C 
ATOM     36  C   LIG    1       -0.128  -3.996   1.108  0.00  0.00    +0.198 C 
ATOM     37  O   LIG    1       -0.747  -4.003  -0.206  0.00  0.00    -0.374 OA
ATOM     38  C   LIG    1       -0.663  -2.555  -0.256  0.00  0.00    +0.198 C 
BRANCH  35  39
ATOM     39  O   LIG    1        0.024  -1.620   2.006  0.00  0.00    -0.382 OA
ATOM     40  H   LIG    1        0.245  -0.746   1.634  0.00  0.00    +0.210 HD
ENDBRANCH  35  39
ENDBRANCH  34  35
ENDBRANCH  31  34
ENDBRANCH   1  30
TORSDOF 9
