REMARK  Name = pdb/CHEMBL3910457.pdb
REMARK                            x       y       z     vdW  Elec       q    Type
REMARK                         _______ _______ _______ _____ _____    ______ ____
ROOT
ATOM      1  C   LIG    1       11.068   1.285   3.197  0.00  0.00    +0.099 A 
ATOM      2  C   LIG    1        9.922   1.875   2.705  0.00  0.00    +0.179 A 
ATOM      3  N   LIG    1        9.333   3.084   2.974  0.00  0.00    -0.211 NA
ATOM      4  C   LIG    1        8.218   3.381   2.342  0.00  0.00    +0.126 A 
ATOM      5  C   LIG    1        7.541   2.392   1.417  0.00  0.00    +0.063 A 
ATOM      6  C   LIG    1        8.172   1.237   1.178  0.00  0.00    +0.118 A 
ATOM      7  N   LIG    1        9.380   0.964   1.799  0.00  0.00    -0.220 N 
ATOM      8  N   LIG    1       10.157  -0.136   1.655  0.00  0.00    -0.171 NA
ATOM      9  C   LIG    1       11.172   0.064   2.503  0.00  0.00    +0.160 A 
ENDROOT
BRANCH   4  10
ATOM     10  N   LIG    1        7.635   4.632   2.517  0.00  0.00    -0.308 N 
ATOM     11  C   LIG    1        8.158   5.603   3.503  0.00  0.00    +0.108 C 
ATOM     12  C   LIG    1        7.927   6.987   2.861  0.00  0.00    +0.029 C 
ATOM     13  C   LIG    1        7.709   6.690   1.390  0.00  0.00    +0.021 C 
ATOM     14  C   LIG    1        6.995   5.351   1.416  0.00  0.00    +0.107 C 
BRANCH  11  15
ATOM     15  C   LIG    1        7.424   5.514   4.825  0.00  0.00    +0.011 A 
ATOM     16  C   LIG    1        8.041   5.991   5.988  0.00  0.00    +0.129 A 
ATOM     17  F   LIG    1        9.288   6.479   5.928  0.00  0.00    -0.205 F 
ATOM     18  C   LIG    1        7.380   5.997   7.218  0.00  0.00    +0.041 A 
ATOM     19  C   LIG    1        6.071   5.528   7.300  0.00  0.00    +0.041 A 
ATOM     20  C   LIG    1        5.444   5.058   6.153  0.00  0.00    +0.124 A 
ATOM     21  F   LIG    1        4.179   4.623   6.223  0.00  0.00    -0.205 F 
ATOM     22  C   LIG    1        6.102   5.048   4.927  0.00  0.00    +0.046 A 
ENDBRANCH  11  15
ENDBRANCH   4  10
BRANCH   1  24
ATOM     23  C   LIG    1       12.923   1.262   4.793  0.00  0.00    +0.326 C 
ATOM     24  N   LIG    1       11.861   1.881   4.164  0.00  0.00    -0.272 N 
ATOM     25  H   LIG    1       11.576   2.813   4.443  0.00  0.00    +0.155 HD
ATOM     26  O   LIG    1       13.331   0.123   4.619  0.00  0.00    -0.263 OA
BRANCH  23  27
ATOM     27  C   LIG    1       13.616   2.162   5.833  0.00  0.00    +0.395 C 
ATOM     28  O   LIG    1       14.519   2.923   5.553  0.00  0.00    -0.240 OA
BRANCH  27  30
ATOM     29  C   LIG    1       13.586   2.734   8.113  0.00  0.00    +0.280 C 
ATOM     30  O   LIG    1       13.018   1.986   7.033  0.00  0.00    -0.461 OA
ENDBRANCH  27  30
ENDBRANCH  23  27
ENDBRANCH   1  24
TORSDOF 5
