REMARK  Name = pdb/CHEMBL2152285.pdb
REMARK                            x       y       z     vdW  Elec       q    Type
REMARK                         _______ _______ _______ _____ _____    ______ ____
ROOT
ATOM      1  C   LIG    1        2.369   0.125   0.221  0.00  0.00    +0.027 A 
ATOM      2  C   LIG    1        3.017  -1.112   0.368  0.00  0.00    +0.031 A 
ATOM      3  C   LIG    1        4.419  -1.236   0.337  0.00  0.00    -0.013 A 
ATOM      4  C   LIG    1        5.151  -0.051   0.178  0.00  0.00    +0.033 A 
ATOM      5  C   LIG    1        4.523   1.196   0.088  0.00  0.00    +0.050 A 
ATOM      6  C   LIG    1        3.137   1.289   0.155  0.00  0.00    +0.047 A 
ENDROOT
BRANCH   3   7
ATOM      7  C   LIG    1        5.100  -2.545   0.477  0.00  0.00    +0.001 A 
ATOM      8  C   LIG    1        6.347  -2.799  -0.128  0.00  0.00    +0.022 A 
ATOM      9  C   LIG    1        6.963  -4.059   0.024  0.00  0.00    +0.027 A 
ATOM     10  C   LIG    1        8.172  -4.695  -0.424  0.00  0.00    +0.009 A 
ATOM     11  C   LIG    1        8.148  -5.984   0.087  0.00  0.00    +0.093 A 
ATOM     12  N   LIG    1        6.991  -6.149   0.802  0.00  0.00    -0.345 N 
ATOM     13  H   LIG    1        6.694  -6.984   1.285  0.00  0.00    +0.167 HD
ATOM     14  C   LIG    1        6.263  -4.996   0.773  0.00  0.00    +0.139 A 
ATOM     15  N   LIG    1        5.075  -4.845   1.380  0.00  0.00    -0.237 NA
ATOM     16  C   LIG    1        4.547  -3.607   1.203  0.00  0.00    +0.121 A 
BRANCH  10  17
ATOM     17  C   LIG    1        9.270  -4.194  -1.250  0.00  0.00    -0.013 A 
ATOM     18  C   LIG    1        9.625  -2.844  -1.236  0.00  0.00    +0.028 A 
ATOM     19  C   LIG    1       10.665  -2.418  -2.049  0.00  0.00    +0.111 A 
ATOM     20  N   LIG    1       11.376  -3.235  -2.852  0.00  0.00    -0.263 NA
ATOM     21  C   LIG    1       11.030  -4.538  -2.843  0.00  0.00    +0.111 A 
ATOM     22  C   LIG    1        9.999  -5.056  -2.076  0.00  0.00    +0.028 A 
ENDBRANCH  10  17
ENDBRANCH   3   7
BRANCH   1  23
ATOM     23  N   LIG    1        0.977   0.197   0.372  0.00  0.00    -0.358 N 
ATOM     24  H   LIG    1        0.488  -0.649   0.092  0.00  0.00    +0.142 HD
ATOM     25  H   LIG    1        0.563   1.025  -0.048  0.00  0.00    +0.142 HD
ENDBRANCH   1  23
BRANCH   5  26
ATOM     26  N   LIG    1        5.347   2.362   0.088  0.00  0.00    -0.216 N 
ATOM     27  H   LIG    1        6.216   2.297  -0.443  0.00  0.00    +0.174 HD
BRANCH  26  28
ATOM     28  S   LIG    1        5.663   3.104   1.586  0.00  0.00    +0.072 S 
ATOM     29  O   LIG    1        4.476   3.827   2.003  0.00  0.00    -0.150 OA
ATOM     30  O   LIG    1        6.939   3.766   1.445  0.00  0.00    -0.150 OA
BRANCH  28  31
ATOM     31  C   LIG    1        5.882   1.723   2.685  0.00  0.00    +0.108 A 
ATOM     32  C   LIG    1        7.138   1.117   2.798  0.00  0.00    +0.029 A 
ATOM     33  C   LIG    1        7.274  -0.017   3.599  0.00  0.00    +0.002 A 
ATOM     34  C   LIG    1        6.167  -0.530   4.279  0.00  0.00    +0.000 A 
ATOM     35  C   LIG    1        4.919   0.084   4.165  0.00  0.00    +0.002 A 
ATOM     36  C   LIG    1        4.774   1.219   3.373  0.00  0.00    +0.029 A 
ENDBRANCH  28  31
ENDBRANCH  26  28
ENDBRANCH   5  26
TORSDOF 6
