REMARK  Name = pdb/CHEMBL3671403.pdb
REMARK                            x       y       z     vdW  Elec       q    Type
REMARK                         _______ _______ _______ _____ _____    ______ ____
ROOT
ATOM      1  C   LIG    1        2.835  -2.894   3.475  0.00  0.00    +0.042 A 
ATOM      2  C   LIG    1        2.700  -4.112   4.172  0.00  0.00    +0.038 A 
ATOM      3  C   LIG    1        2.762  -5.335   3.479  0.00  0.00    +0.052 A 
ATOM      4  C   LIG    1        3.008  -5.267   2.108  0.00  0.00    +0.134 A 
ATOM      5  N   LIG    1        3.131  -4.113   1.407  0.00  0.00    -0.261 NA
ATOM      6  C   LIG    1        3.036  -2.960   2.103  0.00  0.00    +0.122 A 
ENDROOT
BRANCH   3   7
ATOM      7  N   LIG    1        2.560  -6.550   4.186  0.00  0.00    -0.283 N 
ATOM      8  H   LIG    1        2.284  -6.467   5.159  0.00  0.00    +0.155 HD
ATOM      9  C   LIG    1        2.540  -7.827   3.630  0.00  0.00    +0.239 C 
ATOM     10  O   LIG    1        2.742  -8.096   2.447  0.00  0.00    -0.273 OA
BRANCH   9  11
ATOM     11  C   LIG    1        2.268  -8.942   4.617  0.00  0.00    +0.239 C 
BRANCH  11  12
ATOM     12  N   LIG    1        0.856  -9.266   4.671  0.00  0.00    -0.262 N 
ATOM     13  N   LIG    1       -0.026  -8.351   5.123  0.00  0.00    -0.167 NA
ATOM     14  C   LIG    1       -1.224  -8.973   5.040  0.00  0.00    +0.165 A 
ATOM     15  C   LIG    1       -1.063 -10.313   4.593  0.00  0.00    +0.053 A 
ATOM     16  C   LIG    1        0.285 -10.471   4.382  0.00  0.00    +0.109 A 
BRANCH  14  17
ATOM     17  C   LIG    1       -2.529  -8.307   5.395  0.00  0.00    +0.436 C 
ATOM     18  F   LIG    1       -2.791  -7.225   4.615  0.00  0.00    -0.164 F 
ATOM     19  F   LIG    1       -2.560  -7.882   6.687  0.00  0.00    -0.164 F 
ATOM     20  F   LIG    1       -3.586  -9.154   5.245  0.00  0.00    -0.164 F 
ENDBRANCH  14  17
ENDBRANCH  11  12
ENDBRANCH   9  11
ENDBRANCH   3   7
BRANCH   1  21
ATOM     21  C   LIG    1        2.861  -1.579   4.175  0.00  0.00    +0.197 C 
ATOM     22  O   LIG    1        3.300  -1.545   5.335  0.00  0.00    -0.287 OA
BRANCH  21  30
ATOM     23  N   LIG    1        1.236   1.047   2.173  0.00  0.00    -0.323 N 
ATOM     24  C   LIG    1        2.163   1.829   2.832  0.00  0.00    +0.145 A 
ATOM     25  N   LIG    1        2.346   3.161   2.706  0.00  0.00    -0.218 NA
ATOM     26  C   LIG    1        3.348   3.616   3.474  0.00  0.00    +0.223 A 
ATOM     27  N   LIG    1        4.084   2.928   4.362  0.00  0.00    -0.243 NA
ATOM     28  C   LIG    1        3.838   1.604   4.496  0.00  0.00    +0.124 A 
ATOM     29  C   LIG    1        2.878   0.988   3.692  0.00  0.00    +0.048 A 
ATOM     30  C   LIG    1        2.417  -0.357   3.499  0.00  0.00    +0.051 A 
ATOM     31  C   LIG    1        1.415  -0.271   2.544  0.00  0.00    +0.100 A 
BRANCH  23  32
ATOM     32  C   LIG    1        0.135   1.489   1.275  0.00  0.00    +0.070 C 
ATOM     33  C   LIG    1       -0.451   0.518   0.237  0.00  0.00    +0.033 C 
ATOM     34  C   LIG    1       -1.225   0.791   1.476  0.00  0.00    +0.033 C 
BRANCH  32  35
ATOM     35  C   LIG    1        0.009   2.966   0.926  0.00  0.00    +0.184 C 
BRANCH  35  36
ATOM     36  O   LIG    1        1.175   3.487   0.309  0.00  0.00    -0.393 OA
ATOM     37  H   LIG    1        1.547   4.113   0.961  0.00  0.00    +0.209 HD
ENDBRANCH  35  36
ENDBRANCH  32  35
ENDBRANCH  23  32
ENDBRANCH  21  30
ENDBRANCH   1  21
TORSDOF 9
