REMARK  Name = pdb/CHEMBL3913818.pdb
REMARK                            x       y       z     vdW  Elec       q    Type
REMARK                         _______ _______ _______ _____ _____    ______ ____
ROOT
ATOM      1  C   LIG    1        2.077  -1.965  -1.310  0.00  0.00    +0.105 A 
ATOM      2  C   LIG    1        0.740  -1.826  -1.652  0.00  0.00    +0.145 A 
ATOM      3  N   LIG    1        0.023  -2.789  -2.267  0.00  0.00    -0.201 NA
ATOM      4  C   LIG    1        0.675  -3.927  -2.591  0.00  0.00    +0.323 A 
ATOM      5  N   LIG    1        1.930  -4.211  -2.217  0.00  0.00    -0.201 NA
ATOM      6  C   LIG    1        2.576  -3.234  -1.549  0.00  0.00    +0.145 A 
ENDROOT
BRANCH   1   8
ATOM      7  C   LIG    1        4.008  -0.607  -1.196  0.00  0.00    +0.285 C 
ATOM      8  N   LIG    1        2.829  -0.933  -0.735  0.00  0.00    -0.196 NA
BRANCH   7   9
ATOM      9  O   LIG    1        4.500  -1.110  -2.343  0.00  0.00    -0.481 OA
ATOM     10  H   LIG    1        3.823  -1.555  -2.869  0.00  0.00    +0.295 HD
ENDBRANCH   7   9
BRANCH   7  11
ATOM     11  N   LIG    1        4.930   0.252  -0.660  0.00  0.00    -0.269 N 
ATOM     12  H   LIG    1        5.830   0.176  -1.134  0.00  0.00    +0.157 HD
BRANCH  11  13
ATOM     13  C   LIG    1        5.091   0.503   0.732  0.00  0.00    +0.043 A 
ATOM     14  C   LIG    1        5.592   1.737   1.248  0.00  0.00    +0.005 A 
ATOM     15  C   LIG    1        5.664   1.844   2.661  0.00  0.00    +0.011 A 
ATOM     16  C   LIG    1        5.309   0.804   3.524  0.00  0.00    +0.013 A 
ATOM     17  C   LIG    1        4.870  -0.412   3.013  0.00  0.00    +0.057 A 
ATOM     18  C   LIG    1        4.789  -0.553   1.625  0.00  0.00    +0.036 A 
BRANCH  14  19
ATOM     19  C   LIG    1        5.988   2.939   0.440  0.00  0.00    +0.002 A 
ATOM     20  C   LIG    1        5.429   3.253  -0.799  0.00  0.00    +0.119 A 
ATOM     21  N   LIG    1        5.745   4.335  -1.565  0.00  0.00    -0.263 NA
ATOM     22  C   LIG    1        6.646   5.201  -1.065  0.00  0.00    +0.111 A 
ATOM     23  C   LIG    1        7.240   5.039   0.168  0.00  0.00    +0.020 A 
ATOM     24  C   LIG    1        6.917   3.897   0.909  0.00  0.00    +0.011 A 
ENDBRANCH  14  19
BRANCH  17  25
ATOM     25  C   LIG    1        4.449  -1.525   3.936  0.00  0.00    +0.417 C 
ATOM     26  F   LIG    1        3.423  -1.158   4.752  0.00  0.00    -0.166 F 
ATOM     27  F   LIG    1        5.456  -1.929   4.758  0.00  0.00    -0.166 F 
ATOM     28  F   LIG    1        4.028  -2.646   3.286  0.00  0.00    -0.166 F 
ENDBRANCH  17  25
ENDBRANCH  11  13
ENDBRANCH   7  11
ENDBRANCH   1   8
BRANCH   4  29
ATOM     29  O   LIG    1        0.080  -4.853  -3.440  0.00  0.00    -0.424 OA
BRANCH  29  30
ATOM     30  C   LIG    1       -0.818  -4.387  -4.376  0.00  0.00    +0.132 A 
ATOM     31  C   LIG    1       -1.809  -5.270  -4.798  0.00  0.00    +0.047 A 
ATOM     32  C   LIG    1       -2.779  -4.849  -5.719  0.00  0.00    +0.012 A 
ATOM     33  C   LIG    1       -2.781  -3.538  -6.231  0.00  0.00    -0.016 A 
ATOM     34  C   LIG    1       -1.759  -2.677  -5.816  0.00  0.00    +0.012 A 
ATOM     35  C   LIG    1       -0.767  -3.110  -4.937  0.00  0.00    +0.047 A 
BRANCH  33  36
ATOM     36  C   LIG    1       -3.796  -3.059  -7.210  0.00  0.00    -0.001 A 
ATOM     37  C   LIG    1       -3.497  -2.026  -8.236  0.00  0.00    +0.021 A 
ATOM     38  C   LIG    1       -4.429  -1.632  -9.111  0.00  0.00    +0.019 A 
ATOM     39  C   LIG    1       -4.508  -0.717 -10.199  0.00  0.00    +0.031 A 
ATOM     40  C   LIG    1       -5.767  -0.852 -10.658  0.00  0.00    +0.114 A 
ATOM     41  N   LIG    1       -6.558  -1.771  -9.976  0.00  0.00    -0.237 NA
ATOM     42  C   LIG    1       -5.779  -2.250  -9.042  0.00  0.00    +0.138 A 
ATOM     43  N   LIG    1       -6.039  -3.183  -8.082  0.00  0.00    -0.345 N 
ATOM     44  H   LIG    1       -6.955  -3.608  -8.044  0.00  0.00    +0.167 HD
ATOM     45  C   LIG    1       -5.056  -3.567  -7.192  0.00  0.00    +0.093 A 
ENDBRANCH  33  36
ENDBRANCH  29  30
ENDBRANCH   4  29
TORSDOF 9
