REMARK  Name = pdb/CHEMBL3676008.pdb
REMARK                            x       y       z     vdW  Elec       q    Type
REMARK                         _______ _______ _______ _____ _____    ______ ____
ROOT
ATOM      1  C   LIG    1        8.432  -1.597  -2.039  0.00  0.00    +0.100 A 
ATOM      2  C   LIG    1        9.525  -2.340  -1.618  0.00  0.00    +0.170 A 
ATOM      3  N   LIG    1        9.628  -3.571  -1.018  0.00  0.00    -0.212 NA
ATOM      4  C   LIG    1       10.830  -4.020  -0.716  0.00  0.00    +0.126 A 
ATOM      5  C   LIG    1       12.077  -3.219  -1.021  0.00  0.00    +0.063 A 
ATOM      6  C   LIG    1       11.920  -2.037  -1.624  0.00  0.00    +0.118 A 
ATOM      7  N   LIG    1       10.652  -1.577  -1.933  0.00  0.00    -0.221 N 
ATOM      8  N   LIG    1       10.331  -0.412  -2.539  0.00  0.00    -0.173 NA
ATOM      9  C   LIG    1        9.000  -0.432  -2.598  0.00  0.00    +0.150 A 
ENDROOT
BRANCH   4  10
ATOM     10  N   LIG    1       10.968  -5.261  -0.103  0.00  0.00    -0.308 N 
ATOM     11  C   LIG    1        9.813  -6.114   0.230  0.00  0.00    +0.107 C 
ATOM     12  C   LIG    1       10.131  -6.561   1.664  0.00  0.00    +0.029 C 
ATOM     13  C   LIG    1       11.641  -6.730   1.652  0.00  0.00    +0.021 C 
ATOM     14  C   LIG    1       12.107  -5.579   0.769  0.00  0.00    +0.107 C 
BRANCH  11  15
ATOM     15  C   LIG    1        9.674  -7.277  -0.739  0.00  0.00    -0.006 A 
ATOM     16  C   LIG    1       10.756  -7.814  -1.451  0.00  0.00    +0.046 A 
ATOM     17  C   LIG    1       10.560  -8.874  -2.324  0.00  0.00    +0.142 A 
ATOM     18  F   LIG    1       11.595  -9.381  -3.006  0.00  0.00    -0.204 F 
ATOM     19  C   LIG    1        9.290  -9.390  -2.473  0.00  0.00    +0.149 A 
ATOM     20  N   LIG    1        8.215  -8.923  -1.795  0.00  0.00    -0.260 NA
ATOM     21  C   LIG    1        8.433  -7.884  -0.948  0.00  0.00    +0.116 A 
ENDBRANCH  11  15
ENDBRANCH   4  10
BRANCH   1  24
ATOM     22  N   LIG    1        6.723  -3.112  -1.347  0.00  0.00    -0.306 N 
ATOM     23  H   LIG    1        7.509  -3.680  -1.029  0.00  0.00    +0.149 HD
ATOM     24  C   LIG    1        7.021  -1.918  -1.951  0.00  0.00    +0.249 C 
ATOM     25  O   LIG    1        6.147  -1.164  -2.384  0.00  0.00    -0.270 OA
BRANCH  22  26
ATOM     26  C   LIG    1        5.363  -3.613  -1.206  0.00  0.00    +0.176 C 
BRANCH  26  28
ATOM     27  F   LIG    1        3.231  -3.371  -0.225  0.00  0.00    -0.208 F 
ATOM     28  C   LIG    1        4.466  -2.801  -0.272  0.00  0.00    +0.358 C 
ATOM     29  F   LIG    1        4.956  -2.867   0.996  0.00  0.00    -0.208 F 
ENDBRANCH  26  28
ENDBRANCH  22  26
ENDBRANCH   1  24
TORSDOF 5
