REMARK  Name = pdb/CHEMBL3897605.pdb
REMARK                            x       y       z     vdW  Elec       q    Type
REMARK                         _______ _______ _______ _____ _____    ______ ____
ROOT
ATOM      1  C   LIG    1        6.656   5.291   0.530  0.00  0.00    +0.131 C 
ATOM      2  N   LIG    1        7.203   6.399  -0.001  0.00  0.00    -0.141 NA
ATOM      3  N   LIG    1        6.275   7.369   0.176  0.00  0.00    -0.201 N 
ATOM      4  C   LIG    1        5.044   6.835   0.564  0.00  0.00    +0.185 C 
ATOM      5  C   LIG    1        5.320   5.541   0.939  0.00  0.00    +0.056 C 
ENDROOT
BRANCH   3   6
ATOM      6  C   LIG    1        6.599   8.729  -0.076  0.00  0.00    +0.052 A 
ATOM      7  C   LIG    1        7.617   9.047  -0.985  0.00  0.00    +0.025 A 
ATOM      8  C   LIG    1        7.933  10.385  -1.239  0.00  0.00    +0.002 A 
ATOM      9  C   LIG    1        7.260  11.404  -0.567  0.00  0.00    +0.000 A 
ATOM     10  C   LIG    1        6.270  11.091   0.362  0.00  0.00    +0.002 A 
ATOM     11  C   LIG    1        5.943   9.757   0.612  0.00  0.00    +0.025 A 
ENDBRANCH   3   6
BRANCH   4  12
ATOM     12  N   LIG    1        3.791   7.462   0.502  0.00  0.00    -0.282 N 
ATOM     13  H   LIG    1        3.771   8.410   0.139  0.00  0.00    +0.152 HD
ATOM     14  C   LIG    1        2.546   6.811   0.802  0.00  0.00    +0.247 C 
ATOM     15  O   LIG    1        2.516   5.635   1.154  0.00  0.00    -0.270 OA
BRANCH  14  16
ATOM     16  C   LIG    1        1.281   7.563   0.608  0.00  0.00    +0.056 A 
ATOM     17  C   LIG    1        1.174   8.943   0.757  0.00  0.00    +0.054 A 
ATOM     18 CL   LIG    1        2.441   9.935   1.364  0.00  0.00    -0.083 Cl
ATOM     19  C   LIG    1       -0.040   9.575   0.497  0.00  0.00    +0.041 A 
ATOM     20  C   LIG    1       -1.192   8.836   0.194  0.00  0.00    +0.052 A 
ATOM     21 CL   LIG    1       -2.616   9.794  -0.045  0.00  0.00    -0.083 Cl
ATOM     22  C   LIG    1       -1.162   7.425   0.160  0.00  0.00    +0.022 A 
ATOM     23  C   LIG    1        0.114   6.823   0.314  0.00  0.00    +0.026 A 
BRANCH  22  24
ATOM     24  C   LIG    1       -2.374   6.569   0.034  0.00  0.00    +0.107 A 
ATOM     25  C   LIG    1       -2.514   5.340   0.693  0.00  0.00    +0.149 A 
ATOM     26  F   LIG    1       -1.546   4.853   1.484  0.00  0.00    -0.203 F 
ATOM     27  C   LIG    1       -3.687   4.603   0.565  0.00  0.00    +0.042 A 
ATOM     28  C   LIG    1       -4.730   5.123  -0.187  0.00  0.00    +0.023 A 
ATOM     29  C   LIG    1       -4.534   6.344  -0.808  0.00  0.00    +0.111 A 
ATOM     30  N   LIG    1       -3.380   7.050  -0.737  0.00  0.00    -0.252 NA
ENDBRANCH  22  24
ENDBRANCH  14  16
ENDBRANCH   4  12
BRANCH   1  32
ATOM     31  N   LIG    1        6.736   2.981   1.067  0.00  0.00    -0.243 NA
ATOM     32  C   LIG    1        7.354   4.002   0.594  0.00  0.00    +0.233 C 
BRANCH  32  33
ATOM     33  O   LIG    1        8.613   4.003   0.111  0.00  0.00    -0.491 OA
ATOM     34  H   LIG    1        9.098   3.194   0.331  0.00  0.00    +0.294 HD
ENDBRANCH  32  33
BRANCH  31  35
ATOM     35  C   LIG    1        7.367   1.666   1.078  0.00  0.00    +0.204 C 
BRANCH  35  40
ATOM     36  C   LIG    1        9.199   0.660   5.628  0.00  0.00    +0.174 C 
ATOM     37  N   LIG    1        8.979   1.051   4.261  0.00  0.00    -0.254 N 
ATOM     38  N   LIG    1        9.975   1.598   3.543  0.00  0.00    -0.066 NA
ATOM     39  N   LIG    1        9.496   1.866   2.335  0.00  0.00    -0.133 NA
ATOM     40  C   LIG    1        8.180   1.480   2.304  0.00  0.00    +0.104 A 
ATOM     41  C   LIG    1        7.835   0.954   3.531  0.00  0.00    +0.135 A 
ENDBRANCH  35  40
ENDBRANCH  31  35
ENDBRANCH   1  32
TORSDOF 8
