REMARK  Name = pdb/CHEMBL3919225.pdb
REMARK                            x       y       z     vdW  Elec       q    Type
REMARK                         _______ _______ _______ _____ _____    ______ ____
ROOT
ATOM      1  C   LIG    1        8.184  -1.444  -3.970  0.00  0.00    +0.149 A 
ATOM      2  N   LIG    1        9.483  -1.750  -3.811  0.00  0.00    -0.160 NA
ATOM      3  N   LIG    1       10.078  -0.593  -3.385  0.00  0.00    -0.218 N 
ATOM      4  C   LIG    1        9.174   0.500  -3.485  0.00  0.00    +0.129 A 
ATOM      5  C   LIG    1        7.969  -0.064  -3.835  0.00  0.00    +0.078 A 
ENDROOT
BRANCH   3   6
ATOM      6  C   LIG    1       11.428  -0.647  -2.893  0.00  0.00    +0.067 A 
ATOM      7  C   LIG    1       12.090  -1.890  -2.833  0.00  0.00    +0.028 A 
ATOM      8  C   LIG    1       13.394  -1.988  -2.329  0.00  0.00    +0.002 A 
ATOM      9  C   LIG    1       14.066  -0.850  -1.897  0.00  0.00    +0.000 A 
ATOM     10  C   LIG    1       13.429   0.382  -1.951  0.00  0.00    +0.002 A 
ATOM     11  C   LIG    1       12.114   0.479  -2.422  0.00  0.00    +0.028 A 
ENDBRANCH   3   6
BRANCH   4  12
ATOM     12  N   LIG    1        9.418   1.854  -3.294  0.00  0.00    -0.266 N 
ATOM     13  H   LIG    1       10.361   2.191  -3.333  0.00  0.00    +0.157 HD
ATOM     14  C   LIG    1        8.372   2.811  -3.039  0.00  0.00    +0.251 C 
ATOM     15  O   LIG    1        7.204   2.481  -3.024  0.00  0.00    -0.270 OA
BRANCH  14  16
ATOM     16  C   LIG    1        8.772   4.183  -2.651  0.00  0.00    +0.056 A 
ATOM     17  C   LIG    1        9.955   4.812  -3.031  0.00  0.00    +0.054 A 
ATOM     18 CL   LIG    1       11.092   4.111  -4.125  0.00  0.00    -0.083 Cl
ATOM     19  C   LIG    1       10.252   6.080  -2.534  0.00  0.00    +0.041 A 
ATOM     20  C   LIG    1        9.372   6.741  -1.660  0.00  0.00    +0.052 A 
ATOM     21 CL   LIG    1        9.904   8.308  -1.147  0.00  0.00    -0.083 Cl
ATOM     22  C   LIG    1        8.148   6.153  -1.274  0.00  0.00    +0.022 A 
ATOM     23  C   LIG    1        7.884   4.863  -1.795  0.00  0.00    +0.026 A 
BRANCH  22  24
ATOM     24  C   LIG    1        7.171   6.780  -0.348  0.00  0.00    +0.107 A 
ATOM     25  C   LIG    1        5.790   6.559  -0.404  0.00  0.00    +0.149 A 
ATOM     26  F   LIG    1        5.238   5.768  -1.336  0.00  0.00    -0.203 F 
ATOM     27  C   LIG    1        4.950   7.154   0.531  0.00  0.00    +0.042 A 
ATOM     28  C   LIG    1        5.499   7.972   1.508  0.00  0.00    +0.023 A 
ATOM     29  C   LIG    1        6.869   8.150   1.511  0.00  0.00    +0.111 A 
ATOM     30  N   LIG    1        7.703   7.558   0.627  0.00  0.00    -0.252 NA
ENDBRANCH  22  24
ENDBRANCH  14  16
ENDBRANCH   4  12
BRANCH   1  32
ATOM     31  N   LIG    1        5.962  -2.352  -4.051  0.00  0.00    -0.246 NA
ATOM     32  C   LIG    1        7.215  -2.477  -4.320  0.00  0.00    +0.236 C 
BRANCH  31  36
ATOM     33  C   LIG    1        2.554  -1.986  -4.850  0.00  0.00    +0.115 C 
ATOM     34  C   LIG    1        3.659  -1.993  -5.906  0.00  0.00    +0.033 C 
ATOM     35  C   LIG    1        4.549  -3.228  -5.853  0.00  0.00    +0.029 C 
ATOM     36  C   LIG    1        5.100  -3.481  -4.451  0.00  0.00    +0.109 C 
ATOM     37  C   LIG    1        3.940  -3.643  -3.464  0.00  0.00    +0.029 C 
ATOM     38  C   LIG    1        2.968  -2.468  -3.459  0.00  0.00    +0.033 C 
BRANCH  33  39
ATOM     39  O   LIG    1        2.043  -0.656  -4.740  0.00  0.00    -0.392 OA
ATOM     40  H   LIG    1        2.788  -0.085  -4.480  0.00  0.00    +0.210 HD
ENDBRANCH  33  39
ENDBRANCH  31  36
BRANCH  32  41
ATOM     41  O   LIG    1        7.757  -3.547  -4.947  0.00  0.00    -0.491 OA
ATOM     42  H   LIG    1        8.723  -3.424  -5.002  0.00  0.00    +0.294 HD
ENDBRANCH  32  41
ENDBRANCH   1  32
TORSDOF 8
