REMARK  Name = pdb/CHEMBL3671137.pdb
REMARK                            x       y       z     vdW  Elec       q    Type
REMARK                         _______ _______ _______ _____ _____    ______ ____
ROOT
ATOM      1  C   LIG    1        4.323   6.074   3.674  0.00  0.00    +0.100 A 
ATOM      2  C   LIG    1        3.589   6.959   4.451  0.00  0.00    +0.170 A 
ATOM      3  N   LIG    1        2.346   7.533   4.308  0.00  0.00    -0.212 NA
ATOM      4  C   LIG    1        1.945   8.394   5.224  0.00  0.00    +0.126 A 
ATOM      5  C   LIG    1        2.840   8.799   6.378  0.00  0.00    +0.063 A 
ATOM      6  C   LIG    1        4.019   8.185   6.487  0.00  0.00    +0.118 A 
ATOM      7  N   LIG    1        4.404   7.247   5.551  0.00  0.00    -0.221 N 
ATOM      8  N   LIG    1        5.552   6.533   5.552  0.00  0.00    -0.173 NA
ATOM      9  C   LIG    1        5.496   5.835   4.422  0.00  0.00    +0.150 A 
ENDROOT
BRANCH   4  10
ATOM     10  N   LIG    1        0.676   8.953   5.125  0.00  0.00    -0.308 N 
ATOM     11  C   LIG    1       -0.020   9.677   6.206  0.00  0.00    +0.108 C 
ATOM     12  C   LIG    1       -1.503   9.356   5.952  0.00  0.00    +0.029 C 
ATOM     13  C   LIG    1       -1.575   9.250   4.440  0.00  0.00    +0.021 C 
ATOM     14  C   LIG    1       -0.278   8.525   4.097  0.00  0.00    +0.107 C 
BRANCH  11  15
ATOM     15  C   LIG    1        0.270  11.169   6.193  0.00  0.00    +0.011 A 
ATOM     16  C   LIG    1       -0.311  11.985   7.175  0.00  0.00    +0.129 A 
ATOM     17  F   LIG    1       -1.101  11.437   8.110  0.00  0.00    -0.205 F 
ATOM     18  C   LIG    1       -0.089  13.361   7.219  0.00  0.00    +0.041 A 
ATOM     19  C   LIG    1        0.751  13.952   6.279  0.00  0.00    +0.041 A 
ATOM     20  C   LIG    1        1.354  13.157   5.313  0.00  0.00    +0.124 A 
ATOM     21  F   LIG    1        2.177  13.719   4.419  0.00  0.00    -0.205 F 
ATOM     22  C   LIG    1        1.120  11.784   5.258  0.00  0.00    +0.046 A 
ENDBRANCH  11  15
ENDBRANCH   4  10
BRANCH   1  25
ATOM     23  N   LIG    1        2.808   5.753   1.845  0.00  0.00    -0.305 N 
ATOM     24  H   LIG    1        2.202   6.375   2.378  0.00  0.00    +0.150 HD
ATOM     25  C   LIG    1        4.037   5.469   2.389  0.00  0.00    +0.250 C 
ATOM     26  O   LIG    1        4.853   4.730   1.856  0.00  0.00    -0.270 OA
BRANCH  23  28
ATOM     27  C   LIG    1        3.238   5.647  -0.576  0.00  0.00    +0.032 C 
ATOM     28  C   LIG    1        2.322   5.176   0.579  0.00  0.00    +0.042 C 
ATOM     29  C   LIG    1        0.911   5.721   0.293  0.00  0.00    +0.032 C 
BRANCH  28  30
ATOM     30  C   LIG    1        2.301   3.598   0.574  0.00  0.00    +0.109 C 
BRANCH  30  31
ATOM     31  N   LIG    1        1.347   2.886   1.461  0.00  0.00    -0.296 NA
ATOM     32  C   LIG    1        1.617   3.038   2.909  0.00  0.00    +0.112 C 
ATOM     33  C   LIG    1        2.863   2.288   3.412  0.00  0.00    +0.175 C 
ATOM     34  O   LIG    1        2.777   0.888   3.110  0.00  0.00    -0.377 OA
ATOM     35  C   LIG    1        2.622   0.694   1.699  0.00  0.00    +0.175 C 
ATOM     36  C   LIG    1        1.371   1.425   1.171  0.00  0.00    +0.112 C 
ENDBRANCH  30  31
ENDBRANCH  28  30
ENDBRANCH  23  28
ENDBRANCH   1  25
TORSDOF 6
