REMARK  Name = pdb/CHEMBL94678.pdb
REMARK                            x       y       z     vdW  Elec       q    Type
REMARK                         _______ _______ _______ _____ _____    ______ ____
ROOT
ATOM      1  C   LIG    1        6.366   2.579  -0.442  0.00  0.00    +0.214 C 
ATOM      2  C   LIG    1        7.380   2.017  -1.478  0.00  0.00    +0.186 C 
ATOM      3  N   LIG    1        8.762   1.846  -1.027  0.00  0.00    -0.306 N 
ATOM      4  C   LIG    1        9.361   0.795  -0.386  0.00  0.00    +0.077 A 
ATOM      5  C   LIG    1        8.745  -0.351   0.109  0.00  0.00    +0.077 A 
ATOM      6  N   LIG    1        7.417  -0.605   0.071  0.00  0.00    -0.311 N 
ATOM      7  C   LIG    1        7.345  -1.835   0.738  0.00  0.00    +0.052 A 
ATOM      8  C   LIG    1        6.207  -2.606   1.042  0.00  0.00    +0.026 A 
ATOM      9  C   LIG    1        6.362  -3.824   1.707  0.00  0.00    +0.002 A 
ATOM     10  C   LIG    1        7.620  -4.280   2.073  0.00  0.00    +0.001 A 
ATOM     11  C   LIG    1        8.763  -3.525   1.792  0.00  0.00    +0.010 A 
ATOM     12  C   LIG    1        8.668  -2.284   1.121  0.00  0.00    +0.008 A 
ATOM     13  C   LIG    1        6.365   0.197  -0.489  0.00  0.00    +0.226 C 
ATOM     14  C   LIG    1        9.594  -1.290   0.710  0.00  0.00    +0.022 A 
ATOM     15  C   LIG    1       10.990  -1.284   0.905  0.00  0.00    +0.052 A 
ATOM     16  C   LIG    1       11.989  -2.154   1.434  0.00  0.00    +0.245 C 
ATOM     17  O   LIG    1       11.976  -3.283   1.921  0.00  0.00    -0.270 OA
ATOM     18  N   LIG    1       13.172  -1.435   1.281  0.00  0.00    -0.307 N 
ATOM     19  H   LIG    1       14.047  -1.857   1.556  0.00  0.00    +0.149 HD
ATOM     20  C   LIG    1       13.050  -0.118   0.678  0.00  0.00    +0.141 C 
ATOM     21  C   LIG    1       11.608  -0.098   0.453  0.00  0.00    -0.008 A 
ATOM     22  C   LIG    1       10.738   0.833  -0.145  0.00  0.00    +0.015 A 
ATOM     23  C   LIG    1       11.083   2.115  -0.622  0.00  0.00    +0.008 A 
ATOM     24  C   LIG    1       12.281   2.871  -0.644  0.00  0.00    +0.010 A 
ATOM     25  C   LIG    1       12.302   4.174  -1.143  0.00  0.00    +0.001 A 
ATOM     26  C   LIG    1       11.145   4.751  -1.635  0.00  0.00    +0.002 A 
ATOM     27  C   LIG    1        9.939   4.044  -1.651  0.00  0.00    +0.026 A 
ATOM     28  C   LIG    1        9.878   2.723  -1.154  0.00  0.00    +0.053 A 
ATOM     29  C   LIG    1        7.282   2.705  -2.849  0.00  0.00    +0.070 C 
ATOM     30  O   LIG    1        6.859   0.687  -1.736  0.00  0.00    -0.327 OA
ATOM     31  C   LIG    1        6.009   1.376   0.409  0.00  0.00    +0.106 C 
ENDROOT
BRANCH   1  32
ATOM     32  C   LIG    1        6.812   3.772   0.406  0.00  0.00    +0.344 C 
ATOM     33  O   LIG    1        6.062   4.715   0.651  0.00  0.00    -0.247 OA
BRANCH  32  35
ATOM     34  C   LIG    1        8.651   4.847   1.411  0.00  0.00    +0.280 C 
ATOM     35  O   LIG    1        8.064   3.652   0.888  0.00  0.00    -0.466 OA
ENDBRANCH  32  35
ENDBRANCH   1  32
BRANCH   1  36
ATOM     36  O   LIG    1        5.130   2.961  -1.110  0.00  0.00    -0.374 OA
ATOM     37  H   LIG    1        4.640   3.543  -0.492  0.00  0.00    +0.211 HD
ENDBRANCH   1  36
TORSDOF 3
