REMARK  Name = pdb/CHEMBL3910586.pdb
REMARK                            x       y       z     vdW  Elec       q    Type
REMARK                         _______ _______ _______ _____ _____    ______ ____
ROOT
ATOM      1  C   LIG    1        3.948   0.269   2.039  0.00  0.00    +0.149 A 
ATOM      2  N   LIG    1        5.052   0.525   2.762  0.00  0.00    -0.160 NA
ATOM      3  N   LIG    1        5.037   1.860   2.981  0.00  0.00    -0.218 N 
ATOM      4  C   LIG    1        4.000   2.484   2.279  0.00  0.00    +0.129 A 
ATOM      5  C   LIG    1        3.255   1.465   1.738  0.00  0.00    +0.078 A 
ENDROOT
BRANCH   3   6
ATOM      6  C   LIG    1        6.016   2.452   3.830  0.00  0.00    +0.067 A 
ATOM      7  C   LIG    1        7.247   1.803   4.025  0.00  0.00    +0.028 A 
ATOM      8  C   LIG    1        8.230   2.389   4.828  0.00  0.00    +0.002 A 
ATOM      9  C   LIG    1        7.977   3.597   5.474  0.00  0.00    +0.000 A 
ATOM     10  C   LIG    1        6.739   4.221   5.323  0.00  0.00    +0.002 A 
ATOM     11  C   LIG    1        5.759   3.655   4.501  0.00  0.00    +0.028 A 
ENDBRANCH   3   6
BRANCH   4  12
ATOM     12  N   LIG    1        3.828   3.856   2.054  0.00  0.00    -0.266 N 
ATOM     13  H   LIG    1        4.631   4.442   2.234  0.00  0.00    +0.157 HD
ATOM     14  C   LIG    1        2.596   4.419   1.531  0.00  0.00    +0.251 C 
ATOM     15  O   LIG    1        1.629   3.725   1.319  0.00  0.00    -0.270 OA
BRANCH  14  16
ATOM     16  C   LIG    1        2.575   5.904   1.376  0.00  0.00    +0.056 A 
ATOM     17  C   LIG    1        1.749   6.536   0.436  0.00  0.00    +0.054 A 
ATOM     18 CL   LIG    1        0.808   5.696  -0.743  0.00  0.00    -0.083 Cl
ATOM     19  C   LIG    1        1.710   7.934   0.382  0.00  0.00    +0.041 A 
ATOM     20  C   LIG    1        2.518   8.715   1.222  0.00  0.00    +0.052 A 
ATOM     21 CL   LIG    1        2.410  10.422   0.968  0.00  0.00    -0.083 Cl
ATOM     22  C   LIG    1        3.385   8.113   2.152  0.00  0.00    +0.019 A 
ATOM     23  C   LIG    1        3.357   6.697   2.221  0.00  0.00    +0.026 A 
BRANCH  22  24
ATOM     24  C   LIG    1        4.378   8.819   2.998  0.00  0.00    +0.072 A 
ATOM     25  N   LIG    1        5.543   8.130   3.164  0.00  0.00    -0.255 NA
ATOM     26  C   LIG    1        6.536   8.718   3.871  0.00  0.00    +0.111 A 
ATOM     27  C   LIG    1        6.433   9.972   4.443  0.00  0.00    +0.020 A 
ATOM     28  C   LIG    1        5.234  10.653   4.300  0.00  0.00    +0.004 A 
ATOM     29  C   LIG    1        4.188  10.064   3.590  0.00  0.00    +0.028 A 
ENDBRANCH  22  24
ENDBRANCH  14  16
ENDBRANCH   4  12
BRANCH   1  30
ATOM     30  C   LIG    1        3.580  -1.077   1.602  0.00  0.00    +0.236 C 
ATOM     31  N   LIG    1        2.350  -1.338   1.341  0.00  0.00    -0.243 NA
BRANCH  30  32
ATOM     32  O   LIG    1        4.619  -1.931   1.486  0.00  0.00    -0.491 OA
ATOM     33  H   LIG    1        4.318  -2.853   1.383  0.00  0.00    +0.294 HD
ENDBRANCH  30  32
BRANCH  31  34
ATOM     34  C   LIG    1        1.946  -2.685   0.930  0.00  0.00    +0.202 C 
BRANCH  34  35
ATOM     35  C   LIG    1        2.140  -3.663   2.047  0.00  0.00    +0.084 A 
ATOM     36  N   LIG    1        3.342  -4.239   2.221  0.00  0.00    -0.177 NA
ATOM     37  N   LIG    1        3.202  -4.925   3.372  0.00  0.00    -0.284 N 
ATOM     38  H   LIG    1        4.007  -5.422   3.740  0.00  0.00    +0.188 HD
ATOM     39  C   LIG    1        1.956  -4.826   3.914  0.00  0.00    +0.105 A 
ATOM     40  C   LIG    1        1.230  -4.029   3.064  0.00  0.00    +0.046 A 
ENDBRANCH  34  35
ENDBRANCH  31  34
ENDBRANCH   1  30
TORSDOF 8
