REMARK  Name = pdb/CHEMBL3671471.pdb
REMARK                            x       y       z     vdW  Elec       q    Type
REMARK                         _______ _______ _______ _____ _____    ______ ____
ROOT
ATOM      1  C   LIG    1        7.662   0.758   0.107  0.00  0.00    +0.197 C 
ATOM      2  O   LIG    1        6.860  -0.168   0.170  0.00  0.00    -0.287 OA
ENDROOT
BRANCH   1   8
ATOM      3  C   LIG    1       11.618  -2.458  -1.158  0.00  0.00    +0.214 A 
ATOM      4  N   LIG    1       12.098  -1.306  -0.679  0.00  0.00    -0.197 NA
ATOM      5  C   LIG    1       11.133  -0.431  -0.357  0.00  0.00    +0.147 A 
ATOM      6  N   LIG    1       11.307   0.818   0.169  0.00  0.00    -0.325 N 
ATOM      7  C   LIG    1       10.096   1.361   0.500  0.00  0.00    +0.100 A 
ATOM      8  C   LIG    1        9.099   0.524   0.024  0.00  0.00    +0.051 A 
ATOM      9  C   LIG    1        9.765  -0.628  -0.500  0.00  0.00    +0.048 A 
ATOM     10  C   LIG    1        9.385  -1.827  -1.094  0.00  0.00    +0.126 A 
ATOM     11  N   LIG    1       10.333  -2.737  -1.424  0.00  0.00    -0.222 NA
BRANCH   6  12
ATOM     12  C   LIG    1       12.518   1.458   0.429  0.00  0.00    +0.048 C 
ATOM     13  C   LIG    1       13.940   0.842   0.605  0.00  0.00    +0.032 C 
ATOM     14  C   LIG    1       14.104   2.449   0.582  0.00  0.00    -0.004 C 
ATOM     15  C   LIG    1       12.701   2.736   1.314  0.00  0.00    +0.032 C 
ATOM     16  C   LIG    1       13.192   2.330  -0.698  0.00  0.00    +0.032 C 
ENDBRANCH   6  12
BRANCH   3  17
ATOM     17  N   LIG    1       12.540  -3.449  -1.424  0.00  0.00    -0.327 N 
ATOM     18  H   LIG    1       13.457  -3.047  -1.550  0.00  0.00    +0.145 HD
ATOM     19  H   LIG    1       12.188  -4.071  -2.137  0.00  0.00    +0.145 HD
ENDBRANCH   3  17
ENDBRANCH   1   8
BRANCH   1  20
ATOM     20  C   LIG    1        7.160   2.155   0.096  0.00  0.00    +0.042 A 
ATOM     21  C   LIG    1        7.827   3.197  -0.569  0.00  0.00    +0.038 A 
ATOM     22  C   LIG    1        7.345   4.506  -0.506  0.00  0.00    +0.052 A 
ATOM     23  C   LIG    1        6.150   4.696   0.185  0.00  0.00    +0.134 A 
ATOM     24  N   LIG    1        5.457   3.700   0.806  0.00  0.00    -0.261 NA
ATOM     25  C   LIG    1        5.977   2.452   0.750  0.00  0.00    +0.122 A 
BRANCH  22  26
ATOM     26  N   LIG    1        8.118   5.519  -1.129  0.00  0.00    -0.284 N 
ATOM     27  H   LIG    1        8.980   5.223  -1.570  0.00  0.00    +0.155 HD
ATOM     28  C   LIG    1        7.831   6.879  -1.151  0.00  0.00    +0.222 C 
ATOM     29  O   LIG    1        6.839   7.385  -0.637  0.00  0.00    -0.275 OA
BRANCH  28  30
ATOM     30  C   LIG    1        8.895   7.705  -1.882  0.00  0.00    +0.131 C 
BRANCH  30  31
ATOM     31  C   LIG    1        8.572   9.185  -1.954  0.00  0.00    -0.039 A 
ATOM     32  C   LIG    1        7.763   9.680  -2.987  0.00  0.00    +0.005 A 
ATOM     33  C   LIG    1        7.409  11.031  -3.032  0.00  0.00    +0.019 A 
ATOM     34  C   LIG    1        7.852  11.911  -2.038  0.00  0.00    +0.052 A 
ATOM     35  C   LIG    1        8.661  11.426  -1.005  0.00  0.00    +0.019 A 
ATOM     36  C   LIG    1        9.017  10.073  -0.962  0.00  0.00    +0.005 A 
BRANCH  34  37
ATOM     37  C   LIG    1        7.472  13.289  -2.079  0.00  0.00    +0.099 C 
ATOM     38  N   LIG    1        7.160  14.415  -2.122  0.00  0.00    -0.191 NA
ENDBRANCH  34  37
ENDBRANCH  30  31
ENDBRANCH  28  30
ENDBRANCH  22  26
ENDBRANCH   1  20
TORSDOF 8
