REMARK  Name = pdb/CHEMBL457393.pdb
REMARK                            x       y       z     vdW  Elec       q    Type
REMARK                         _______ _______ _______ _____ _____    ______ ____
ROOT
ATOM      1  C   LIG    1        2.729  -1.351  -2.516  0.00  0.00    +0.218 A 
ATOM      2  N   LIG    1        2.362  -1.694  -3.754  0.00  0.00    -0.196 NA
ATOM      3  C   LIG    1        2.200  -3.003  -4.060  0.00  0.00    +0.165 A 
ATOM      4  C   LIG    1        2.435  -3.979  -3.099  0.00  0.00    +0.181 A 
ATOM      5  F   LIG    1        2.233  -5.284  -3.339  0.00  0.00    -0.200 F 
ATOM      6  C   LIG    1        2.843  -3.544  -1.869  0.00  0.00    +0.156 A 
ATOM      7  N   LIG    1        2.997  -2.244  -1.553  0.00  0.00    -0.220 NA
ENDROOT
BRANCH   1   8
ATOM      8  N   LIG    1        2.822   0.003  -2.235  0.00  0.00    -0.305 N 
ATOM      9  H   LIG    1        2.374   0.551  -2.960  0.00  0.00    +0.150 HD
BRANCH   8  11
ATOM     10  C   LIG    1        3.716   0.846  -0.142  0.00  0.00    +0.034 C 
ATOM     11  C   LIG    1        2.453   0.384  -0.870  0.00  0.00    +0.119 C 
BRANCH  11  12
ATOM     12  C   LIG    1        1.358   1.462  -0.842  0.00  0.00    +0.061 A 
ATOM     13  N   LIG    1        1.243   2.315  -1.898  0.00  0.00    -0.255 NA
ATOM     14  C   LIG    1        0.283   3.275  -1.817  0.00  0.00    +0.149 A 
ATOM     15  C   LIG    1       -0.574   3.426  -0.741  0.00  0.00    +0.141 A 
ATOM     16  F   LIG    1       -1.487   4.405  -0.720  0.00  0.00    -0.204 F 
ATOM     17  C   LIG    1       -0.465   2.549   0.323  0.00  0.00    +0.042 A 
ATOM     18  C   LIG    1        0.515   1.556   0.277  0.00  0.00    +0.028 A 
ENDBRANCH  11  12
ENDBRANCH   8  11
ENDBRANCH   1   8
BRANCH   3  19
ATOM     19  N   LIG    1        1.825  -3.387  -5.370  0.00  0.00    -0.281 N 
ATOM     20  H   LIG    1        1.235  -4.213  -5.353  0.00  0.00    +0.155 HD
BRANCH  19  21
ATOM     21  C   LIG    1        1.580  -2.567  -6.419  0.00  0.00    +0.146 A 
ATOM     22  N   LIG    1        0.695  -2.856  -7.378  0.00  0.00    -0.158 NA
ATOM     23  N   LIG    1        0.692  -1.762  -8.165  0.00  0.00    -0.280 N 
ATOM     24  H   LIG    1        0.068  -1.741  -8.963  0.00  0.00    +0.189 HD
ATOM     25  C   LIG    1        1.567  -0.799  -7.762  0.00  0.00    +0.041 A 
ATOM     26  C   LIG    1        2.202  -1.317  -6.661  0.00  0.00    +0.068 A 
BRANCH  25  27
ATOM     27  C   LIG    1        1.818   0.570  -8.354  0.00  0.00    +0.037 C 
ATOM     28  C   LIG    1        0.647   1.373  -8.882  0.00  0.00    +0.010 C 
ATOM     29  C   LIG    1        1.619   0.775  -9.839  0.00  0.00    +0.010 C 
ENDBRANCH  25  27
ENDBRANCH  19  21
ENDBRANCH   3  19
TORSDOF 6
