REMARK  Name = pdb/CHEMBL513953.pdb
REMARK                            x       y       z     vdW  Elec       q    Type
REMARK                         _______ _______ _______ _____ _____    ______ ____
ROOT
ATOM      1  C   LIG    1        7.184   4.226  -1.492  0.00  0.00    +0.149 A 
ATOM      2  C   LIG    1        8.464   4.784  -1.519  0.00  0.00    +0.121 A 
ATOM      3 CL   LIG    1        9.863   3.855  -1.930  0.00  0.00    -0.076 Cl
ATOM      4  C   LIG    1        8.579   6.118  -1.138  0.00  0.00    +0.144 A 
ATOM      5  N   LIG    1        7.492   6.842  -0.850  0.00  0.00    -0.198 NA
ATOM      6  C   LIG    1        6.290   6.275  -0.937  0.00  0.00    +0.219 A 
ATOM      7  N   LIG    1        6.098   4.989  -1.232  0.00  0.00    -0.198 NA
ENDROOT
BRANCH   1   8
ATOM      8  N   LIG    1        7.007   2.830  -1.703  0.00  0.00    -0.282 N 
ATOM      9  H   LIG    1        7.505   2.513  -2.530  0.00  0.00    +0.155 HD
BRANCH   8  14
ATOM     10  C   LIG    1        4.570   0.388  -0.908  0.00  0.00    +0.213 A 
ATOM     11  N   LIG    1        4.580   1.255   0.147  0.00  0.00    -0.245 N 
ATOM     12  H   LIG    1        4.010   1.205   0.982  0.00  0.00    +0.192 HD
ATOM     13  N   LIG    1        5.471   2.247   0.039  0.00  0.00    -0.156 NA
ATOM     14  C   LIG    1        6.050   2.051  -1.156  0.00  0.00    +0.149 A 
ATOM     15  C   LIG    1        5.553   0.858  -1.752  0.00  0.00    +0.112 A 
BRANCH  10  16
ATOM     16  O   LIG    1        3.689  -0.618  -0.910  0.00  0.00    -0.474 OA
BRANCH  16  18
ATOM     17  C   LIG    1        4.795  -2.751  -0.940  0.00  0.00    +0.051 C 
ATOM     18  C   LIG    1        3.979  -1.745  -1.745  0.00  0.00    +0.169 C 
ATOM     19  C   LIG    1        2.653  -2.374  -2.171  0.00  0.00    +0.051 C 
ENDBRANCH  16  18
ENDBRANCH  10  16
ENDBRANCH   8  14
ENDBRANCH   1   8
BRANCH   4  20
ATOM     20  N   LIG    1        9.813   6.802  -1.141  0.00  0.00    -0.325 N 
ATOM     21  H   LIG    1       10.593   6.160  -1.008  0.00  0.00    +0.148 HD
BRANCH  20  22
ATOM     22  C   LIG    1        9.851   7.945  -0.210  0.00  0.00    +0.136 C 
BRANCH  22  23
ATOM     23  C   LIG    1       11.230   8.632  -0.218  0.00  0.00    +0.157 C 
BRANCH  23  24
ATOM     24  O   LIG    1       12.278   7.686   0.067  0.00  0.00    -0.388 OA
ATOM     25  H   LIG    1       11.995   7.163   0.838  0.00  0.00    +0.210 HD
ENDBRANCH  23  24
BRANCH  23  26
ATOM     26  C   LIG    1       11.523   9.300  -1.565  0.00  0.00    +0.188 C 
BRANCH  26  27
ATOM     27  O   LIG    1       12.790   9.960  -1.525  0.00  0.00    -0.392 OA
ATOM     28  H   LIG    1       13.428   9.279  -1.238  0.00  0.00    +0.210 HD
ENDBRANCH  26  27
ENDBRANCH  23  26
ENDBRANCH  22  23
ENDBRANCH  20  22
ENDBRANCH   4  20
BRANCH   6  29
ATOM     29  N   LIG    1        5.174   7.059  -0.717  0.00  0.00    -0.305 N 
ATOM     30  H   LIG    1        4.349   6.585  -1.062  0.00  0.00    +0.150 HD
BRANCH  29  31
ATOM     31  C   LIG    1        5.311   8.480  -1.053  0.00  0.00    +0.119 C 
ATOM     32  C   LIG    1        4.937   8.700  -2.522  0.00  0.00    +0.034 C 
BRANCH  31  33
ATOM     33  C   LIG    1        4.460   9.337  -0.114  0.00  0.00    +0.061 A 
ATOM     34  N   LIG    1        4.004  10.533  -0.580  0.00  0.00    -0.255 NA
ATOM     35  C   LIG    1        3.291  11.305   0.273  0.00  0.00    +0.149 A 
ATOM     36  C   LIG    1        3.023  10.952   1.581  0.00  0.00    +0.141 A 
ATOM     37  F   LIG    1        2.311  11.760   2.375  0.00  0.00    -0.204 F 
ATOM     38  C   LIG    1        3.505   9.747   2.061  0.00  0.00    +0.042 A 
ATOM     39  C   LIG    1        4.242   8.932   1.208  0.00  0.00    +0.028 A 
ENDBRANCH  31  33
ENDBRANCH  29  31
ENDBRANCH   6  29
TORSDOF 13
