REMARK  Name = pdb/CHEMBL3109646.pdb
REMARK                            x       y       z     vdW  Elec       q    Type
REMARK                         _______ _______ _______ _____ _____    ______ ____
ROOT
ATOM      1  N   LIG    1        2.721  -0.594  -0.608  0.00  0.00    -0.278 N 
ATOM      2  C   LIG    1        4.018  -0.225  -1.055  0.00  0.00    +0.307 C 
ATOM      3  N   LIG    1        4.016   0.189  -2.391  0.00  0.00    -0.269 N 
ATOM      4  H   LIG    1        3.378  -0.346  -2.944  0.00  0.00    +0.156 HD
ATOM      5  O   LIG    1        5.021  -0.364  -0.389  0.00  0.00    -0.252 OA
ENDROOT
BRANCH   3   6
ATOM      6  C   LIG    1        5.178   0.520  -3.101  0.00  0.00    +0.035 A 
ATOM      7  C   LIG    1        5.348  -0.108  -4.340  0.00  0.00    +0.024 A 
ATOM      8  C   LIG    1        6.520   0.084  -5.062  0.00  0.00    +0.017 A 
ATOM      9  C   LIG    1        7.494   0.963  -4.585  0.00  0.00    +0.016 A 
ATOM     10  C   LIG    1        7.286   1.639  -3.374  0.00  0.00    +0.017 A 
ATOM     11  C   LIG    1        6.124   1.424  -2.632  0.00  0.00    +0.024 A 
BRANCH   9  12
ATOM     12  S   LIG    1        8.995   1.160  -5.514  0.00  0.00    -0.016 S 
BRANCH  12  13
ATOM     13  C   LIG    1        8.932   2.920  -5.864  0.00  0.00    +0.448 C 
ATOM     14  F   LIG    1        9.004   3.141  -7.198  0.00  0.00    -0.160 F 
ATOM     15  F   LIG    1        9.980   3.562  -5.292  0.00  0.00    -0.160 F 
ATOM     16  F   LIG    1        7.805   3.530  -5.426  0.00  0.00    -0.160 F 
ENDBRANCH  12  13
ENDBRANCH   9  12
ENDBRANCH   3   6
BRANCH   1  18
ATOM     17  C   LIG    1        2.404  -0.558   1.943  0.00  0.00    +0.028 C 
ATOM     18  C   LIG    1        2.620  -1.375   0.664  0.00  0.00    +0.072 C 
ATOM     19  C   LIG    1        1.535  -2.463   0.617  0.00  0.00    +0.028 C 
ENDBRANCH   1  18
BRANCH   1  20
ATOM     20  C   LIG    1        1.509  -0.212  -1.340  0.00  0.00    +0.146 C 
BRANCH  20  21
ATOM     21  C   LIG    1        0.938   1.078  -0.866  0.00  0.00    -0.004 A 
ATOM     22  C   LIG    1        1.206   2.402  -1.362  0.00  0.00    +0.023 A 
ATOM     23  C   LIG    1        2.018   2.987  -2.355  0.00  0.00    +0.013 A 
ATOM     24  C   LIG    1        1.996   4.378  -2.488  0.00  0.00    +0.020 A 
ATOM     25  C   LIG    1        1.170   5.121  -1.657  0.00  0.00    +0.113 A 
ATOM     26  N   LIG    1        0.348   4.615  -0.713  0.00  0.00    -0.237 NA
ATOM     27  C   LIG    1        0.418   3.276  -0.619  0.00  0.00    +0.138 A 
ATOM     28  N   LIG    1       -0.316   2.540   0.263  0.00  0.00    -0.346 N 
ATOM     29  H   LIG    1       -0.968   2.947   0.916  0.00  0.00    +0.167 HD
ATOM     30  C   LIG    1       -0.032   1.212   0.113  0.00  0.00    +0.090 A 
ENDBRANCH  20  21
ENDBRANCH   1  20
TORSDOF 6
