REMARK  Name = pdb/CHEMBL3639583.pdb
REMARK                            x       y       z     vdW  Elec       q    Type
REMARK                         _______ _______ _______ _____ _____    ______ ____
ROOT
ATOM      1  N   LIG    1        8.164   2.884  -1.648  0.00  0.00    -0.266 N 
ATOM      2  C   LIG    1        8.333   4.023  -0.880  0.00  0.00    +0.168 A 
ATOM      3  N   LIG    1        7.510   5.091  -0.767  0.00  0.00    -0.213 NA
ATOM      4  C   LIG    1        7.911   6.021   0.128  0.00  0.00    +0.122 A 
ATOM      5  C   LIG    1        9.075   5.884   0.897  0.00  0.00    +0.046 A 
ATOM      6  C   LIG    1        9.928   4.789   0.718  0.00  0.00    +0.035 A 
ATOM      7  C   LIG    1        9.529   3.819  -0.202  0.00  0.00    +0.108 A 
ATOM      8  N   LIG    1       10.121   2.640  -0.566  0.00  0.00    -0.234 NA
ATOM      9  C   LIG    1        9.283   2.107  -1.429  0.00  0.00    +0.207 A 
ENDROOT
BRANCH   1  14
ATOM     10  C   LIG    1        5.122   2.502  -3.545  0.00  0.00    +0.213 A 
ATOM     11  N   LIG    1        5.852   1.360  -3.733  0.00  0.00    -0.245 N 
ATOM     12  H   LIG    1        5.590   0.548  -4.287  0.00  0.00    +0.192 HD
ATOM     13  N   LIG    1        7.044   1.354  -3.099  0.00  0.00    -0.153 NA
ATOM     14  C   LIG    1        7.059   2.539  -2.473  0.00  0.00    +0.165 A 
ATOM     15  C   LIG    1        5.906   3.295  -2.722  0.00  0.00    +0.115 A 
BRANCH  10  16
ATOM     16  O   LIG    1        3.934   2.664  -4.120  0.00  0.00    -0.477 OA
BRANCH  16  18
ATOM     17  C   LIG    1        2.369   4.275  -4.984  0.00  0.00    +0.048 C 
ATOM     18  C   LIG    1        3.279   3.903  -3.832  0.00  0.00    +0.227 C 
ENDBRANCH  16  18
ENDBRANCH  10  16
ENDBRANCH   1  14
BRANCH   4  19
ATOM     19  N   LIG    1        7.065   7.115   0.409  0.00  0.00    -0.321 N 
ATOM     20  H   LIG    1        7.617   7.891   0.777  0.00  0.00    +0.148 HD
BRANCH  19  21
ATOM     21  C   LIG    1        6.307   7.623  -0.753  0.00  0.00    +0.120 C 
BRANCH  21  22
ATOM     22  C   LIG    1        7.146   8.639  -1.544  0.00  0.00    +0.062 A 
ATOM     23  N   LIG    1        8.050   9.394  -0.851  0.00  0.00    -0.255 NA
ATOM     24  C   LIG    1        8.774  10.299  -1.557  0.00  0.00    +0.149 A 
ATOM     25  C   LIG    1        8.640  10.497  -2.919  0.00  0.00    +0.141 A 
ATOM     26  F   LIG    1        9.391  11.403  -3.557  0.00  0.00    -0.204 F 
ATOM     27  C   LIG    1        7.715   9.738  -3.615  0.00  0.00    +0.042 A 
ATOM     28  C   LIG    1        6.954   8.794  -2.922  0.00  0.00    +0.028 A 
ENDBRANCH  21  22
BRANCH  21  29
ATOM     29  C   LIG    1        4.982   8.243  -0.257  0.00  0.00    +0.025 C 
ATOM     30  C   LIG    1        5.131   9.412   0.711  0.00  0.00    +0.006 C 
ENDBRANCH  21  29
ENDBRANCH  19  21
ENDBRANCH   4  19
TORSDOF 7
