REMARK  Name = pdb/CHEMBL3950400.pdb
REMARK                            x       y       z     vdW  Elec       q    Type
REMARK                         _______ _______ _______ _____ _____    ______ ____
ROOT
ATOM      1  C   LIG    1        5.321   2.072   1.708  0.00  0.00    +0.149 A 
ATOM      2  N   LIG    1        5.508   3.108   2.545  0.00  0.00    -0.160 NA
ATOM      3  N   LIG    1        4.775   4.132   1.996  0.00  0.00    -0.218 N 
ATOM      4  C   LIG    1        4.223   3.765   0.767  0.00  0.00    +0.129 A 
ATOM      5  C   LIG    1        4.587   2.458   0.574  0.00  0.00    +0.078 A 
ENDROOT
BRANCH   3   6
ATOM      6  C   LIG    1        4.637   5.366   2.694  0.00  0.00    +0.067 A 
ATOM      7  C   LIG    1        3.505   6.178   2.531  0.00  0.00    +0.028 A 
ATOM      8  C   LIG    1        3.386   7.367   3.259  0.00  0.00    +0.002 A 
ATOM      9  C   LIG    1        4.397   7.758   4.136  0.00  0.00    +0.000 A 
ATOM     10  C   LIG    1        5.527   6.959   4.296  0.00  0.00    +0.002 A 
ATOM     11  C   LIG    1        5.642   5.757   3.591  0.00  0.00    +0.028 A 
ENDBRANCH   3   6
BRANCH   4  12
ATOM     12  N   LIG    1        3.516   4.559  -0.147  0.00  0.00    -0.266 N 
ATOM     13  H   LIG    1        3.541   5.564  -0.033  0.00  0.00    +0.157 HD
ATOM     14  C   LIG    1        2.780   3.981  -1.240  0.00  0.00    +0.251 C 
ATOM     15  O   LIG    1        2.727   2.777  -1.396  0.00  0.00    -0.270 OA
BRANCH  14  16
ATOM     16  C   LIG    1        2.014   4.858  -2.142  0.00  0.00    +0.056 A 
ATOM     17  C   LIG    1        2.377   6.160  -2.481  0.00  0.00    +0.056 A 
ATOM     18 CL   LIG    1        3.754   6.963  -1.823  0.00  0.00    -0.083 Cl
ATOM     19  C   LIG    1        1.614   6.857  -3.417  0.00  0.00    +0.059 A 
ATOM     20  C   LIG    1        0.497   6.258  -4.004  0.00  0.00    +0.134 A 
ATOM     21  F   LIG    1       -0.189   6.988  -4.895  0.00  0.00    -0.205 F 
ATOM     22  C   LIG    1        0.090   4.958  -3.682  0.00  0.00    +0.036 A 
ATOM     23  C   LIG    1        0.874   4.277  -2.733  0.00  0.00    +0.027 A 
BRANCH  22  24
ATOM     24  C   LIG    1       -1.082   4.298  -4.289  0.00  0.00    +0.074 A 
ATOM     25  N   LIG    1       -1.690   3.364  -3.510  0.00  0.00    -0.255 NA
ATOM     26  C   LIG    1       -2.758   2.709  -4.022  0.00  0.00    +0.111 A 
ATOM     27  C   LIG    1       -3.262   2.933  -5.290  0.00  0.00    +0.020 A 
ATOM     28  C   LIG    1       -2.634   3.882  -6.081  0.00  0.00    +0.004 A 
ATOM     29  C   LIG    1       -1.531   4.570  -5.579  0.00  0.00    +0.028 A 
ENDBRANCH  22  24
ENDBRANCH  14  16
ENDBRANCH   4  12
BRANCH   1  30
ATOM     30  C   LIG    1        5.869   0.740   1.952  0.00  0.00    +0.236 C 
ATOM     31  N   LIG    1        5.672  -0.198   1.096  0.00  0.00    -0.244 NA
BRANCH  30  32
ATOM     32  O   LIG    1        6.579   0.594   3.092  0.00  0.00    -0.491 OA
ATOM     33  H   LIG    1        6.608   1.444   3.569  0.00  0.00    +0.294 HD
ENDBRANCH  30  32
BRANCH  31  34
ATOM     34  C   LIG    1        6.303  -1.479   1.402  0.00  0.00    +0.183 C 
BRANCH  34  35
ATOM     35  C   LIG    1        5.564  -2.585   0.732  0.00  0.00    +0.011 A 
ATOM     36  C   LIG    1        4.962  -3.675   1.328  0.00  0.00    +0.110 A 
ATOM     37  N   LIG    1        4.448  -4.435   0.320  0.00  0.00    -0.284 N 
ATOM     38  H   LIG    1        3.941  -5.311   0.392  0.00  0.00    +0.188 HD
ATOM     39  N   LIG    1        4.673  -3.924  -0.900  0.00  0.00    -0.182 NA
ATOM     40  C   LIG    1        5.346  -2.797  -0.649  0.00  0.00    +0.139 A 
ENDBRANCH  34  35
ENDBRANCH  31  34
ENDBRANCH   1  30
TORSDOF 8
