REMARK  Name = pdb/CHEMBL3671132.pdb
REMARK                            x       y       z     vdW  Elec       q    Type
REMARK                         _______ _______ _______ _____ _____    ______ ____
ROOT
ATOM      1  C   LIG    1        0.961  -7.210   0.408  0.00  0.00    +0.126 A 
ATOM      2  N   LIG    1        1.178  -6.009  -0.087  0.00  0.00    -0.212 NA
ATOM      3  C   LIG    1        0.445  -5.612  -1.176  0.00  0.00    +0.170 A 
ATOM      4  C   LIG    1        0.430  -4.428  -1.896  0.00  0.00    +0.100 A 
ATOM      5  C   LIG    1       -0.511  -4.660  -2.921  0.00  0.00    +0.150 A 
ATOM      6  N   LIG    1       -1.077  -5.865  -2.855  0.00  0.00    -0.173 NA
ATOM      7  N   LIG    1       -0.493  -6.446  -1.781  0.00  0.00    -0.221 N 
ATOM      8  C   LIG    1       -0.725  -7.714  -1.278  0.00  0.00    +0.118 A 
ATOM      9  C   LIG    1       -0.053  -8.148  -0.206  0.00  0.00    +0.063 A 
ENDROOT
BRANCH   1  11
ATOM     10  C   LIG    1        1.245  -8.587   2.508  0.00  0.00    +0.108 C 
ATOM     11  N   LIG    1        1.703  -7.620   1.505  0.00  0.00    -0.308 N 
ATOM     12  C   LIG    1        2.856  -6.866   2.003  0.00  0.00    +0.107 C 
ATOM     13  C   LIG    1        2.979  -7.221   3.481  0.00  0.00    +0.021 C 
ATOM     14  C   LIG    1        1.670  -7.914   3.820  0.00  0.00    +0.029 C 
BRANCH  10  18
ATOM     15  F   LIG    1        3.808 -11.884  -0.111  0.00  0.00    -0.205 F 
ATOM     16  C   LIG    1        3.080 -11.597   0.975  0.00  0.00    +0.124 A 
ATOM     17  C   LIG    1        2.598 -10.302   1.152  0.00  0.00    +0.046 A 
ATOM     18  C   LIG    1        1.832  -9.971   2.284  0.00  0.00    +0.011 A 
ATOM     19  C   LIG    1        1.559 -10.998   3.200  0.00  0.00    +0.129 A 
ATOM     20  F   LIG    1        0.796 -10.747   4.273  0.00  0.00    -0.205 F 
ATOM     21  C   LIG    1        2.046 -12.294   3.023  0.00  0.00    +0.041 A 
ATOM     22  C   LIG    1        2.814 -12.596   1.903  0.00  0.00    +0.041 A 
ENDBRANCH  10  18
ENDBRANCH   1  11
BRANCH   4  23
ATOM     23  C   LIG    1        1.200  -3.226  -1.663  0.00  0.00    +0.249 C 
ATOM     24  N   LIG    1        2.040  -3.279  -0.577  0.00  0.00    -0.310 N 
ATOM     25  H   LIG    1        2.102  -4.171  -0.085  0.00  0.00    +0.149 HD
ATOM     26  O   LIG    1        1.089  -2.235  -2.389  0.00  0.00    -0.270 OA
BRANCH  24  27
ATOM     27  C   LIG    1        2.900  -2.185  -0.180  0.00  0.00    +0.120 C 
BRANCH  27  28
ATOM     28  C   LIG    1        2.549  -1.654   1.227  0.00  0.00    +0.103 C 
BRANCH  28  29
ATOM     29  N   LIG    1        3.407  -0.534   1.675  0.00  0.00    -0.297 NA
ATOM     30  C   LIG    1        3.073  -0.098   3.055  0.00  0.00    +0.112 C 
ATOM     31  C   LIG    1        1.709   0.609   3.170  0.00  0.00    +0.175 C 
ATOM     32  O   LIG    1        1.624   1.732   2.283  0.00  0.00    -0.377 OA
ATOM     33  C   LIG    1        1.893   1.347   0.928  0.00  0.00    +0.175 C 
ATOM     34  C   LIG    1        3.265   0.661   0.807  0.00  0.00    +0.112 C 
ENDBRANCH  28  29
ENDBRANCH  27  28
ENDBRANCH  24  27
ENDBRANCH   4  23
TORSDOF 6
