REMARK  Name = pdb/CHEMBL211168.pdb
REMARK                            x       y       z     vdW  Elec       q    Type
REMARK                         _______ _______ _______ _____ _____    ______ ____
ROOT
ATOM      1  C   LIG    1        8.092  -2.373  -2.476  0.00  0.00    +0.106 A 
ATOM      2  C   LIG    1        7.310  -1.221  -2.451  0.00  0.00    +0.098 A 
ATOM      3  C   LIG    1        8.154  -0.106  -2.803  0.00  0.00    +0.121 A 
ATOM      4  N   LIG    1        9.449  -0.343  -2.979  0.00  0.00    -0.202 NA
ATOM      5  S   LIG    1        9.710  -1.960  -2.799  0.00  0.00    +0.029 S 
ENDROOT
BRANCH   1  10
ATOM      6  N   LIG    1        7.802  -5.944  -2.091  0.00  0.00    -0.313 N 
ATOM      7  H   LIG    1        7.077  -5.925  -1.390  0.00  0.00    +0.146 HD
ATOM      8  H   LIG    1        8.410  -6.754  -2.053  0.00  0.00    +0.146 HD
ATOM      9  C   LIG    1        8.488  -4.795  -2.343  0.00  0.00    +0.302 C 
ATOM     10  N   LIG    1        7.688  -3.684  -2.272  0.00  0.00    -0.262 N 
ATOM     11  H   LIG    1        6.692  -3.826  -2.134  0.00  0.00    +0.157 HD
ATOM     12  O   LIG    1        9.678  -4.861  -2.608  0.00  0.00    -0.253 OA
ENDBRANCH   1  10
BRANCH   2  13
ATOM     13  C   LIG    1        5.891  -1.255  -2.120  0.00  0.00    +0.246 C 
ATOM     14  N   LIG    1        5.230  -0.060  -2.089  0.00  0.00    -0.325 N 
ATOM     15  H   LIG    1        4.266  -0.033  -1.789  0.00  0.00    +0.145 HD
ATOM     16  H   LIG    1        5.686   0.828  -2.299  0.00  0.00    +0.145 HD
ATOM     17  O   LIG    1        5.299  -2.288  -1.856  0.00  0.00    -0.270 OA
ENDBRANCH   2  13
BRANCH   3  18
ATOM     18  S   LIG    1        7.629   1.557  -3.020  0.00  0.00    -0.096 S 
BRANCH  18  19
ATOM     19  C   LIG    1        7.232   1.539  -4.822  0.00  0.00    +0.083 C 
ATOM     20  C   LIG    1        6.445   2.790  -5.190  0.00  0.00    -0.031 A 
ATOM     21  C   LIG    1        5.074   2.648  -5.498  0.00  0.00    +0.005 A 
ATOM     22  C   LIG    1        4.271   3.757  -5.759  0.00  0.00    +0.000 A 
ATOM     23  C   LIG    1        4.819   5.031  -5.708  0.00  0.00    +0.000 A 
ATOM     24  C   LIG    1        6.176   5.191  -5.434  0.00  0.00    +0.004 A 
ATOM     25  C   LIG    1        7.010   4.082  -5.197  0.00  0.00    -0.043 A 
ATOM     26  C   LIG    1        8.475   4.343  -4.929  0.00  0.00    +0.035 C 
ATOM     27  C   LIG    1        9.419   3.639  -5.901  0.00  0.00    +0.005 C 
ATOM     28  C   LIG    1        9.649   2.163  -5.597  0.00  0.00    +0.002 C 
ATOM     29  C   LIG    1        8.418   1.277  -5.762  0.00  0.00    +0.019 C 
ENDBRANCH  18  19
ENDBRANCH   3  18
TORSDOF 4
