REMARK  Name = pdb/CHEMBL3977894.pdb
REMARK                            x       y       z     vdW  Elec       q    Type
REMARK                         _______ _______ _______ _____ _____    ______ ____
ROOT
ATOM      1  C   LIG    1        9.760  -0.422  -2.455  0.00  0.00    +0.149 A 
ATOM      2  N   LIG    1       10.730   0.368  -2.946  0.00  0.00    -0.160 NA
ATOM      3  N   LIG    1       10.368   1.637  -2.607  0.00  0.00    -0.218 N 
ATOM      4  C   LIG    1        9.166   1.649  -1.886  0.00  0.00    +0.129 A 
ATOM      5  C   LIG    1        8.846   0.333  -1.696  0.00  0.00    +0.078 A 
ENDROOT
BRANCH   3   6
ATOM      6  C   LIG    1       11.162   2.739  -3.038  0.00  0.00    +0.067 A 
ATOM      7  C   LIG    1       10.590   4.000  -3.245  0.00  0.00    +0.028 A 
ATOM      8  C   LIG    1       11.381   5.070  -3.668  0.00  0.00    +0.002 A 
ATOM      9  C   LIG    1       12.745   4.892  -3.886  0.00  0.00    +0.000 A 
ATOM     10  C   LIG    1       13.322   3.638  -3.697  0.00  0.00    +0.002 A 
ATOM     11  C   LIG    1       12.533   2.556  -3.289  0.00  0.00    +0.028 A 
ENDBRANCH   3   6
BRANCH   4  12
ATOM     12  N   LIG    1        8.442   2.730  -1.364  0.00  0.00    -0.266 N 
ATOM     13  H   LIG    1        8.896   3.628  -1.301  0.00  0.00    +0.157 HD
ATOM     14  C   LIG    1        7.070   2.596  -0.929  0.00  0.00    +0.251 C 
ATOM     15  O   LIG    1        6.467   1.535  -1.040  0.00  0.00    -0.270 OA
BRANCH  14  16
ATOM     16  C   LIG    1        6.347   3.784  -0.449  0.00  0.00    +0.056 A 
ATOM     17  C   LIG    1        6.981   4.829   0.240  0.00  0.00    +0.054 A 
ATOM     18 CL   LIG    1        8.675   4.886   0.568  0.00  0.00    -0.083 Cl
ATOM     19  C   LIG    1        6.216   5.906   0.679  0.00  0.00    +0.041 A 
ATOM     20  C   LIG    1        4.825   5.955   0.465  0.00  0.00    +0.052 A 
ATOM     21 CL   LIG    1        4.096   7.445   0.957  0.00  0.00    -0.083 Cl
ATOM     22  C   LIG    1        4.140   4.902  -0.173  0.00  0.00    +0.022 A 
ATOM     23  C   LIG    1        4.955   3.825  -0.619  0.00  0.00    +0.026 A 
BRANCH  22  24
ATOM     24  C   LIG    1        2.672   4.848  -0.451  0.00  0.00    +0.107 A 
ATOM     25  C   LIG    1        1.670   5.379   0.367  0.00  0.00    +0.149 A 
ATOM     26  F   LIG    1        1.937   5.933   1.556  0.00  0.00    -0.203 F 
ATOM     27  C   LIG    1        0.332   5.292  -0.007  0.00  0.00    +0.042 A 
ATOM     28  C   LIG    1       -0.008   4.617  -1.168  0.00  0.00    +0.023 A 
ATOM     29  C   LIG    1        1.018   4.065  -1.913  0.00  0.00    +0.111 A 
ATOM     30  N   LIG    1        2.335   4.172  -1.591  0.00  0.00    -0.252 NA
ENDBRANCH  22  24
ENDBRANCH  14  16
ENDBRANCH   4  12
BRANCH   1  32
ATOM     31  N   LIG    1       10.482  -2.504  -3.403  0.00  0.00    -0.247 NA
ATOM     32  C   LIG    1        9.651  -1.867  -2.665  0.00  0.00    +0.236 C 
BRANCH  32  33
ATOM     33  O   LIG    1        8.587  -2.416  -2.032  0.00  0.00    -0.491 OA
ATOM     34  H   LIG    1        8.627  -3.383  -2.051  0.00  0.00    +0.294 HD
ENDBRANCH  32  33
BRANCH  31  35
ATOM     35  C   LIG    1       10.353  -3.940  -3.648  0.00  0.00    +0.176 C 
BRANCH  35  37
ATOM     36  C   LIG    1       11.097  -6.229  -2.860  0.00  0.00    +0.039 C 
ATOM     37  C   LIG    1       11.132  -4.731  -2.589  0.00  0.00    +0.133 C 
BRANCH  37  38
ATOM     38  O   LIG    1       10.535  -4.509  -1.306  0.00  0.00    -0.390 OA
ATOM     39  H   LIG    1       11.141  -4.908  -0.654  0.00  0.00    +0.210 HD
ENDBRANCH  37  38
ENDBRANCH  35  37
ENDBRANCH  31  35
ENDBRANCH   1  32
TORSDOF 9
