REMARK  Name = pdb/CHEMBL3673477.pdb
REMARK                            x       y       z     vdW  Elec       q    Type
REMARK                         _______ _______ _______ _____ _____    ______ ____
ROOT
ATOM      1  C   LIG    1        3.041   0.477  -1.745  0.00  0.00    +0.162 A 
ATOM      2  C   LIG    1        2.799  -0.527  -2.710  0.00  0.00    +0.162 A 
ATOM      3  C   LIG    1        2.732  -0.173  -4.068  0.00  0.00    +0.050 A 
ATOM      4  C   LIG    1        2.942   1.145  -4.476  0.00  0.00    +0.009 A 
ATOM      5  C   LIG    1        3.231   2.132  -3.535  0.00  0.00    -0.024 A 
ATOM      6  C   LIG    1        3.239   1.791  -2.179  0.00  0.00    +0.054 A 
ENDROOT
BRANCH   1   8
ATOM      7  C   LIG    1        3.713   1.080   0.473  0.00  0.00    +0.277 C 
ATOM      8  O   LIG    1        3.043   0.173  -0.406  0.00  0.00    -0.491 OA
ENDBRANCH   1   8
BRANCH   2   9
ATOM      9  O   LIG    1        2.635  -1.880  -2.494  0.00  0.00    -0.484 OA
BRANCH   9  10
ATOM     10  C   LIG    1        2.201  -2.222  -1.180  0.00  0.00    +0.266 C 
BRANCH  10  11
ATOM     11  C   LIG    1        1.628  -3.610  -1.087  0.00  0.00    +0.008 A 
ATOM     12  C   LIG    1        0.571  -3.847  -0.212  0.00  0.00    +0.118 A 
ATOM     13  N   LIG    1        0.006  -5.057  -0.003  0.00  0.00    -0.251 NA
ATOM     14  C   LIG    1        0.514  -6.116  -0.696  0.00  0.00    +0.144 A 
ATOM     15  C   LIG    1        1.574  -5.962  -1.593  0.00  0.00    +0.033 A 
ATOM     16  C   LIG    1        2.143  -4.702  -1.778  0.00  0.00    +0.010 A 
BRANCH  14  17
ATOM     17  C   LIG    1       -0.074  -7.501  -0.465  0.00  0.00    +0.434 C 
ATOM     18  F   LIG    1       -1.393  -7.596  -0.801  0.00  0.00    -0.164 F 
ATOM     19  F   LIG    1        0.016  -7.912   0.833  0.00  0.00    -0.164 F 
ATOM     20  F   LIG    1        0.553  -8.475  -1.192  0.00  0.00    -0.164 F 
ENDBRANCH  14  17
ENDBRANCH  10  11
ENDBRANCH   9  10
ENDBRANCH   2   9
BRANCH   5  21
ATOM     21  C   LIG    1        3.574   3.546  -3.929  0.00  0.00    +0.161 C 
BRANCH  21  22
ATOM     22  N   LIG    1        4.997   3.713  -4.128  0.00  0.00    -0.293 N 
ATOM     23  C   LIG    1        5.879   4.167  -3.176  0.00  0.00    +0.162 A 
ATOM     24  N   LIG    1        5.624   4.443  -1.878  0.00  0.00    -0.235 NA
ATOM     25  C   LIG    1        6.739   4.876  -1.224  0.00  0.00    +0.121 A 
ATOM     26  C   LIG    1        8.020   5.039  -1.766  0.00  0.00    +0.005 A 
ATOM     27  C   LIG    1        8.199   4.746  -3.125  0.00  0.00    +0.041 A 
ATOM     28  C   LIG    1        7.088   4.291  -3.844  0.00  0.00    +0.110 A 
ATOM     29  N   LIG    1        6.957   3.925  -5.159  0.00  0.00    -0.213 NA
ATOM     30  C   LIG    1        5.715   3.570  -5.297  0.00  0.00    +0.195 A 
BRANCH  26  31
ATOM     31  C   LIG    1        9.127   5.488  -0.943  0.00  0.00    +0.021 A 
ATOM     32  C   LIG    1       10.446   5.123  -1.126  0.00  0.00    +0.116 A 
ATOM     33  N   LIG    1       11.156   5.731  -0.131  0.00  0.00    -0.274 N 
ATOM     34  C   LIG    1       12.579   5.632   0.086  0.00  0.00    +0.172 C 
ATOM     35  N   LIG    1       10.396   6.477   0.689  0.00  0.00    -0.179 NA
ATOM     36  C   LIG    1        9.163   6.326   0.197  0.00  0.00    +0.143 A 
ENDBRANCH  26  31
BRANCH  30  37
ATOM     37  N   LIG    1        5.165   3.106  -6.444  0.00  0.00    -0.329 N 
ATOM     38  H   LIG    1        5.863   2.902  -7.157  0.00  0.00    +0.145 HD
ATOM     39  H   LIG    1        4.473   2.371  -6.397  0.00  0.00    +0.145 HD
ENDBRANCH  30  37
ENDBRANCH  21  22
ENDBRANCH   5  21
TORSDOF 9
