REMARK  Name = pdb/CHEMBL3957376.pdb
REMARK                            x       y       z     vdW  Elec       q    Type
REMARK                         _______ _______ _______ _____ _____    ______ ____
ROOT
ATOM      1  C   LIG    1        0.225   3.998   0.612  0.00  0.00    +0.042 A 
ATOM      2  C   LIG    1        0.718   5.313   0.590  0.00  0.00    +0.042 A 
ATOM      3  C   LIG    1        0.012   6.373   1.189  0.00  0.00    +0.086 A 
ATOM      4  C   LIG    1       -1.178   6.019   1.823  0.00  0.00    +0.138 A 
ATOM      5  N   LIG    1       -1.690   4.766   1.884  0.00  0.00    -0.260 NA
ATOM      6  C   LIG    1       -0.954   3.786   1.317  0.00  0.00    +0.122 A 
ENDROOT
BRANCH   1   7
ATOM      7  C   LIG    1        0.952   2.885  -0.062  0.00  0.00    +0.197 C 
ATOM      8  O   LIG    1        2.193   2.935  -0.090  0.00  0.00    -0.287 OA
BRANCH   7  17
ATOM      9  N   LIG    1       -1.498   0.391  -1.241  0.00  0.00    -0.336 N 
ATOM     10  C   LIG    1       -0.348  -0.190  -1.757  0.00  0.00    +0.089 A 
ATOM     11  C   LIG    1       -0.109  -1.331  -2.530  0.00  0.00    +0.165 A 
ATOM     12  F   LIG    1       -1.085  -2.099  -3.023  0.00  0.00    -0.202 F 
ATOM     13  C   LIG    1        1.212  -1.634  -2.819  0.00  0.00    +0.151 A 
ATOM     14  N   LIG    1        2.274  -0.913  -2.406  0.00  0.00    -0.260 NA
ATOM     15  C   LIG    1        2.049   0.210  -1.678  0.00  0.00    +0.121 A 
ATOM     16  C   LIG    1        0.739   0.615  -1.352  0.00  0.00    +0.032 A 
ATOM     17  C   LIG    1        0.215   1.769  -0.680  0.00  0.00    +0.049 A 
ATOM     18  C   LIG    1       -1.159   1.662  -0.830  0.00  0.00    +0.099 A 
BRANCH   9  20
ATOM     19  C   LIG    1       -2.797  -1.502  -0.270  0.00  0.00    +0.036 C 
ATOM     20  C   LIG    1       -2.862  -0.189  -1.081  0.00  0.00    +0.063 C 
ATOM     21  C   LIG    1       -3.522  -0.439  -2.450  0.00  0.00    +0.036 C 
BRANCH  20  22
ATOM     22  C   LIG    1       -3.841   0.766  -0.301  0.00  0.00    +0.183 C 
BRANCH  22  23
ATOM     23  O   LIG    1       -3.412   1.006   1.040  0.00  0.00    -0.393 OA
ATOM     24  H   LIG    1       -4.020   1.658   1.433  0.00  0.00    +0.209 HD
ENDBRANCH  22  23
ENDBRANCH  20  22
ENDBRANCH   9  20
ENDBRANCH   7  17
ENDBRANCH   1   7
BRANCH   3  25
ATOM     25  N   LIG    1        0.614   7.641   1.131  0.00  0.00    -0.216 NA
ATOM     26  C   LIG    1        0.147   8.796   1.463  0.00  0.00    +0.192 C 
BRANCH  26  27
ATOM     27  O   LIG    1       -1.104   9.078   1.883  0.00  0.00    -0.495 OA
ATOM     28  H   LIG    1       -1.744   8.410   1.614  0.00  0.00    +0.293 HD
ENDBRANCH  26  27
BRANCH  26  29
ATOM     29  C   LIG    1        0.970  10.060   1.317  0.00  0.00    +0.130 C 
BRANCH  29  30
ATOM     30  C   LIG    1        0.799  10.737  -0.031  0.00  0.00    -0.038 A 
ATOM     31  C   LIG    1       -0.415  10.686  -0.737  0.00  0.00    +0.016 A 
ATOM     32  C   LIG    1       -0.587  11.351  -1.961  0.00  0.00    +0.055 A 
ATOM     33  C   LIG    1        0.481  12.088  -2.482  0.00  0.00    +0.012 A 
ATOM     34  C   LIG    1        1.690  12.160  -1.789  0.00  0.00    +0.001 A 
ATOM     35  C   LIG    1        1.847  11.495  -0.570  0.00  0.00    +0.004 A 
BRANCH  32  36
ATOM     36  C   LIG    1       -1.913  11.263  -2.673  0.00  0.00    +0.417 C 
ATOM     37  F   LIG    1       -2.942  11.730  -1.912  0.00  0.00    -0.166 F 
ATOM     38  F   LIG    1       -2.248   9.981  -2.996  0.00  0.00    -0.166 F 
ATOM     39  F   LIG    1       -1.960  11.967  -3.837  0.00  0.00    -0.166 F 
ENDBRANCH  32  36
ENDBRANCH  29  30
ENDBRANCH  26  29
ENDBRANCH   3  25
TORSDOF 10
