REMARK  Name = pdb/CHEMBL3902577.pdb
REMARK                            x       y       z     vdW  Elec       q    Type
REMARK                         _______ _______ _______ _____ _____    ______ ____
ROOT
ATOM      1  C   LIG    1        7.373   3.352  -0.049  0.00  0.00    +0.149 A 
ATOM      2  N   LIG    1        7.934   4.388  -0.692  0.00  0.00    -0.160 NA
ATOM      3  N   LIG    1        7.179   5.479  -0.372  0.00  0.00    -0.218 N 
ATOM      4  C   LIG    1        6.059   5.106   0.395  0.00  0.00    +0.129 A 
ATOM      5  C   LIG    1        6.204   3.757   0.626  0.00  0.00    +0.078 A 
ENDROOT
BRANCH   3   6
ATOM      6  C   LIG    1        7.596   6.768  -0.847  0.00  0.00    +0.067 A 
ATOM      7  C   LIG    1        8.388   6.843  -2.008  0.00  0.00    +0.028 A 
ATOM      8  C   LIG    1        8.862   8.074  -2.481  0.00  0.00    +0.002 A 
ATOM      9  C   LIG    1        8.573   9.246  -1.791  0.00  0.00    +0.000 A 
ATOM     10  C   LIG    1        7.798   9.187  -0.635  0.00  0.00    +0.002 A 
ATOM     11  C   LIG    1        7.308   7.956  -0.166  0.00  0.00    +0.028 A 
ENDBRANCH   3   6
BRANCH   4  12
ATOM     12  N   LIG    1        4.965   5.880   0.797  0.00  0.00    -0.266 N 
ATOM     13  H   LIG    1        4.974   6.862   0.551  0.00  0.00    +0.157 HD
ATOM     14  C   LIG    1        3.811   5.364   1.501  0.00  0.00    +0.251 C 
ATOM     15  O   LIG    1        3.710   4.185   1.796  0.00  0.00    -0.270 OA
BRANCH  14  16
ATOM     16  C   LIG    1        2.717   6.313   1.822  0.00  0.00    +0.056 A 
ATOM     17  C   LIG    1        2.939   7.660   2.080  0.00  0.00    +0.054 A 
ATOM     18 CL   LIG    1        4.493   8.397   2.123  0.00  0.00    -0.083 Cl
ATOM     19  C   LIG    1        1.863   8.495   2.352  0.00  0.00    +0.041 A 
ATOM     20  C   LIG    1        0.550   8.004   2.392  0.00  0.00    +0.052 A 
ATOM     21 CL   LIG    1       -0.645   9.237   2.590  0.00  0.00    -0.083 Cl
ATOM     22  C   LIG    1        0.275   6.632   2.207  0.00  0.00    +0.022 A 
ATOM     23  C   LIG    1        1.398   5.811   1.903  0.00  0.00    +0.026 A 
BRANCH  22  24
ATOM     24  C   LIG    1       -1.073   5.996   2.280  0.00  0.00    +0.107 A 
ATOM     25  C   LIG    1       -2.115   6.396   3.121  0.00  0.00    +0.149 A 
ATOM     26  F   LIG    1       -1.974   7.379   4.018  0.00  0.00    -0.203 F 
ATOM     27  C   LIG    1       -3.336   5.730   3.097  0.00  0.00    +0.042 A 
ATOM     28  C   LIG    1       -3.493   4.625   2.275  0.00  0.00    +0.023 A 
ATOM     29  C   LIG    1       -2.413   4.241   1.503  0.00  0.00    +0.111 A 
ATOM     30  N   LIG    1       -1.224   4.899   1.479  0.00  0.00    -0.252 NA
ENDBRANCH  22  24
ENDBRANCH  14  16
ENDBRANCH   4  12
BRANCH   1  32
ATOM     31  N   LIG    1        7.073   1.005   0.012  0.00  0.00    -0.221 NA
ATOM     32  C   LIG    1        7.896   1.982  -0.092  0.00  0.00    +0.238 C 
BRANCH  32  33
ATOM     33  O   LIG    1        9.235   1.889  -0.206  0.00  0.00    -0.491 OA
ATOM     34  H   LIG    1        9.559   0.986  -0.366  0.00  0.00    +0.294 HD
ENDBRANCH  32  33
BRANCH  31  35
ATOM     35  C   LIG    1        7.493  -0.405   0.027  0.00  0.00    +0.294 C 
BRANCH  35  38
ATOM     36  C   LIG    1       10.133  -0.883  -2.661  0.00  0.00    +0.174 C 
ATOM     37  N   LIG    1        9.481  -0.580  -1.391  0.00  0.00    -0.255 NA
ATOM     38  C   LIG    1        8.211  -0.766  -1.271  0.00  0.00    +0.222 C 
BRANCH  38  39
ATOM     39  O   LIG    1        7.422  -1.219  -2.257  0.00  0.00    -0.493 OA
ATOM     40  H   LIG    1        7.909  -1.490  -3.048  0.00  0.00    +0.293 HD
ENDBRANCH  38  39
ENDBRANCH  35  38
BRANCH  35  41
ATOM     41  C   LIG    1        6.292  -1.240   0.188  0.00  0.00    +0.099 C 
ATOM     42  N   LIG    1        5.352  -1.936   0.309  0.00  0.00    -0.194 NA
ENDBRANCH  35  41
ENDBRANCH  31  35
ENDBRANCH   1  32
TORSDOF 10
