REMARK  Name = pdb/CHEMBL3671430.pdb
REMARK                            x       y       z     vdW  Elec       q    Type
REMARK                         _______ _______ _______ _____ _____    ______ ____
ROOT
ATOM      1  C   LIG    1       12.499   4.230  -1.216  0.00  0.00    +0.197 C 
ATOM      2  O   LIG    1       12.929   5.277  -1.723  0.00  0.00    -0.287 OA
ENDROOT
BRANCH   1   3
ATOM      3  C   LIG    1       13.358   3.058  -1.041  0.00  0.00    +0.051 A 
ATOM      4  C   LIG    1       14.472   2.675  -1.840  0.00  0.00    +0.048 A 
ATOM      5  C   LIG    1       15.099   3.178  -2.976  0.00  0.00    +0.126 A 
ATOM      6  N   LIG    1       16.202   2.566  -3.456  0.00  0.00    -0.222 NA
ATOM      7  C   LIG    1       16.647   1.466  -2.834  0.00  0.00    +0.214 A 
ATOM      8  N   LIG    1       16.092   0.866  -1.771  0.00  0.00    -0.197 NA
ATOM      9  C   LIG    1       15.002   1.506  -1.310  0.00  0.00    +0.147 A 
ATOM     10  N   LIG    1       14.210   1.120  -0.245  0.00  0.00    -0.323 N 
ATOM     11  C   LIG    1       13.256   2.097  -0.049  0.00  0.00    +0.100 A 
BRANCH   7  12
ATOM     12  N   LIG    1       17.844   0.953  -3.299  0.00  0.00    -0.327 N 
ATOM     13  H   LIG    1       18.346   1.701  -3.762  0.00  0.00    +0.145 HD
ATOM     14  H   LIG    1       18.323   0.496  -2.536  0.00  0.00    +0.145 HD
ENDBRANCH   7  12
BRANCH  10  15
ATOM     15  C   LIG    1       14.343  -0.125   0.552  0.00  0.00    +0.064 C 
ATOM     16  C   LIG    1       13.283  -0.202   1.688  0.00  0.00    +0.036 C 
ATOM     17  C   LIG    1       15.724  -0.173   1.237  0.00  0.00    +0.036 C 
BRANCH  15  18
ATOM     18  C   LIG    1       14.149  -1.369  -0.355  0.00  0.00    +0.183 C 
BRANCH  18  19
ATOM     19  O   LIG    1       14.229  -2.577   0.407  0.00  0.00    -0.393 OA
ATOM     20  H   LIG    1       14.182  -3.320  -0.220  0.00  0.00    +0.209 HD
ENDBRANCH  18  19
ENDBRANCH  15  18
ENDBRANCH  10  15
ENDBRANCH   1   3
BRANCH   1  23
ATOM     21  C   LIG    1        8.942   5.138  -0.167  0.00  0.00    +0.052 A 
ATOM     22  C   LIG    1       10.309   5.275  -0.459  0.00  0.00    +0.038 A 
ATOM     23  C   LIG    1       11.068   4.149  -0.840  0.00  0.00    +0.042 A 
ATOM     24  C   LIG    1       10.413   2.925  -0.930  0.00  0.00    +0.122 A 
ATOM     25  N   LIG    1        9.106   2.749  -0.665  0.00  0.00    -0.261 NA
ATOM     26  C   LIG    1        8.402   3.855  -0.307  0.00  0.00    +0.134 A 
BRANCH  21  28
ATOM     27  C   LIG    1        6.809   6.354   0.325  0.00  0.00    +0.223 C 
ATOM     28  N   LIG    1        8.195   6.267   0.284  0.00  0.00    -0.284 N 
ATOM     29  H   LIG    1        8.706   7.117   0.515  0.00  0.00    +0.155 HD
ATOM     30  O   LIG    1        6.049   5.480  -0.096  0.00  0.00    -0.275 OA
BRANCH  27  31
ATOM     31  C   LIG    1        6.223   7.569   1.025  0.00  0.00    +0.151 C 
BRANCH  31  36
ATOM     32  C   LIG    1        7.162  13.052  -0.383  0.00  0.00    +0.045 C 
ATOM     33  C   LIG    1        6.885  11.590  -0.209  0.00  0.00    -0.032 A 
ATOM     34  C   LIG    1        7.913  10.688   0.047  0.00  0.00    +0.114 A 
ATOM     35  N   LIG    1        7.736   9.378   0.366  0.00  0.00    -0.259 NA
ATOM     36  C   LIG    1        6.462   8.917   0.386  0.00  0.00    +0.050 A 
ATOM     37  C   LIG    1        5.378   9.726   0.024  0.00  0.00    +0.024 A 
ATOM     38  C   LIG    1        5.594  11.074  -0.272  0.00  0.00    +0.006 A 
ENDBRANCH  31  36
ENDBRANCH  27  31
ENDBRANCH  21  28
ENDBRANCH   1  23
TORSDOF 9
