REMARK  Name = pdb/CHEMBL3984317.pdb
REMARK                            x       y       z     vdW  Elec       q    Type
REMARK                         _______ _______ _______ _____ _____    ______ ____
ROOT
ATOM      1  C   LIG    1       -0.930  -4.730   0.112  0.00  0.00    +0.149 A 
ATOM      2  N   LIG    1       -1.503  -5.943   0.066  0.00  0.00    -0.160 NA
ATOM      3  N   LIG    1       -0.491  -6.846   0.211  0.00  0.00    -0.218 N 
ATOM      4  C   LIG    1        0.736  -6.178   0.400  0.00  0.00    +0.129 A 
ATOM      5  C   LIG    1        0.457  -4.838   0.290  0.00  0.00    +0.078 A 
ENDROOT
BRANCH   3   6
ATOM      6  C   LIG    1       -0.805  -8.249   0.192  0.00  0.00    +0.067 A 
ATOM      7  C   LIG    1       -2.141  -8.651  -0.011  0.00  0.00    +0.028 A 
ATOM      8  C   LIG    1       -2.488 -10.008  -0.068  0.00  0.00    +0.002 A 
ATOM      9  C   LIG    1       -1.509 -10.986   0.065  0.00  0.00    +0.000 A 
ATOM     10  C   LIG    1       -0.191 -10.607   0.285  0.00  0.00    +0.002 A 
ATOM     11  C   LIG    1        0.156  -9.252   0.368  0.00  0.00    +0.028 A 
ENDBRANCH   3   6
BRANCH   4  12
ATOM     12  N   LIG    1        2.016  -6.693   0.592  0.00  0.00    -0.266 N 
ATOM     13  H   LIG    1        2.216  -7.614   0.254  0.00  0.00    +0.157 HD
ATOM     14  C   LIG    1        3.085  -5.943   1.214  0.00  0.00    +0.251 C 
ATOM     15  O   LIG    1        2.894  -4.850   1.692  0.00  0.00    -0.270 OA
BRANCH  14  16
ATOM     16  C   LIG    1        4.410  -6.607   1.319  0.00  0.00    +0.056 A 
ATOM     17  C   LIG    1        4.864  -7.567   0.413  0.00  0.00    +0.054 A 
ATOM     18 CL   LIG    1        3.979  -8.074  -0.982  0.00  0.00    -0.083 Cl
ATOM     19  C   LIG    1        6.109  -8.161   0.608  0.00  0.00    +0.041 A 
ATOM     20  C   LIG    1        6.906  -7.831   1.716  0.00  0.00    +0.052 A 
ATOM     21 CL   LIG    1        8.357  -8.766   1.853  0.00  0.00    -0.083 Cl
ATOM     22  C   LIG    1        6.497  -6.859   2.650  0.00  0.00    +0.019 A 
ATOM     23  C   LIG    1        5.224  -6.265   2.418  0.00  0.00    +0.026 A 
BRANCH  22  24
ATOM     24  C   LIG    1        7.268  -6.446   3.856  0.00  0.00    +0.072 A 
ATOM     25  N   LIG    1        6.508  -6.085   4.925  0.00  0.00    -0.255 NA
ATOM     26  C   LIG    1        7.141  -5.699   6.062  0.00  0.00    +0.111 A 
ATOM     27  C   LIG    1        8.515  -5.660   6.207  0.00  0.00    +0.020 A 
ATOM     28  C   LIG    1        9.287  -6.016   5.114  0.00  0.00    +0.004 A 
ATOM     29  C   LIG    1        8.661  -6.389   3.925  0.00  0.00    +0.028 A 
ENDBRANCH  22  24
ENDBRANCH  14  16
ENDBRANCH   4  12
BRANCH   1  31
ATOM     30  N   LIG    1       -1.123  -2.417  -0.461  0.00  0.00    -0.208 NA
ATOM     31  C   LIG    1       -1.685  -3.483   0.024  0.00  0.00    +0.241 C 
BRANCH  30  34
ATOM     32  C   LIG    1       -0.216   0.684  -0.145  0.00  0.00    +0.070 C 
ATOM     33  C   LIG    1       -1.526   0.081  -0.500  0.00  0.00    +0.085 A 
ATOM     34  C   LIG    1       -1.918  -1.278  -0.631  0.00  0.00    +0.108 A 
ATOM     35  C   LIG    1       -3.223  -1.237  -1.053  0.00  0.00    +0.133 A 
ATOM     36  N   LIG    1       -3.578   0.075  -1.033  0.00  0.00    -0.282 N 
ATOM     37  H   LIG    1       -4.495   0.477  -1.201  0.00  0.00    +0.188 HD
ATOM     38  N   LIG    1       -2.566   0.899  -0.732  0.00  0.00    -0.177 NA
ENDBRANCH  30  34
BRANCH  31  39
ATOM     39  O   LIG    1       -2.930  -3.574   0.549  0.00  0.00    -0.491 OA
ATOM     40  H   LIG    1       -3.308  -2.698   0.698  0.00  0.00    +0.294 HD
ENDBRANCH  31  39
ENDBRANCH   1  31
TORSDOF 7
