REMARK  Name = pdb/CHEMBL3954631.pdb
REMARK                            x       y       z     vdW  Elec       q    Type
REMARK                         _______ _______ _______ _____ _____    ______ ____
ROOT
ATOM      1  C   LIG    1        6.768  -1.804   1.612  0.00  0.00    +0.098 A 
ATOM      2  C   LIG    1        7.572  -2.657   0.885  0.00  0.00    +0.179 A 
ATOM      3  N   LIG    1        7.286  -3.526  -0.142  0.00  0.00    -0.211 NA
ATOM      4  C   LIG    1        8.287  -4.188  -0.678  0.00  0.00    +0.126 A 
ATOM      5  C   LIG    1        9.704  -4.058  -0.170  0.00  0.00    +0.063 A 
ATOM      6  C   LIG    1        9.919  -3.208   0.842  0.00  0.00    +0.118 A 
ATOM      7  N   LIG    1        8.863  -2.489   1.382  0.00  0.00    -0.220 N 
ATOM      8  N   LIG    1        8.907  -1.586   2.394  0.00  0.00    -0.171 NA
ATOM      9  C   LIG    1        7.642  -1.177   2.525  0.00  0.00    +0.160 A 
ENDROOT
BRANCH   4  10
ATOM     10  N   LIG    1        8.070  -5.054  -1.746  0.00  0.00    -0.308 N 
ATOM     11  C   LIG    1        6.722  -5.606  -2.010  0.00  0.00    +0.108 C 
ATOM     12  C   LIG    1        6.454  -5.342  -3.505  0.00  0.00    +0.029 C 
ATOM     13  C   LIG    1        7.578  -4.423  -3.956  0.00  0.00    +0.021 C 
ATOM     14  C   LIG    1        8.724  -4.785  -3.031  0.00  0.00    +0.107 C 
BRANCH  11  15
ATOM     15  C   LIG    1        6.677  -7.095  -1.711  0.00  0.00    +0.011 A 
ATOM     16  C   LIG    1        5.447  -7.701  -1.426  0.00  0.00    +0.129 A 
ATOM     17  F   LIG    1        4.332  -6.959  -1.390  0.00  0.00    -0.205 F 
ATOM     18  C   LIG    1        5.341  -9.074  -1.195  0.00  0.00    +0.041 A 
ATOM     19  C   LIG    1        6.479  -9.876  -1.258  0.00  0.00    +0.041 A 
ATOM     20  C   LIG    1        7.705  -9.291  -1.547  0.00  0.00    +0.124 A 
ATOM     21  F   LIG    1        8.800 -10.058  -1.624  0.00  0.00    -0.205 F 
ATOM     22  C   LIG    1        7.813  -7.921  -1.769  0.00  0.00    +0.046 A 
ENDBRANCH  11  15
ENDBRANCH   4  10
BRANCH   1  24
ATOM     23  C   LIG    1        4.568  -0.851   2.116  0.00  0.00    +0.303 C 
ATOM     24  N   LIG    1        5.409  -1.680   1.404  0.00  0.00    -0.273 N 
ATOM     25  H   LIG    1        5.021  -2.250   0.656  0.00  0.00    +0.155 HD
ATOM     26  O   LIG    1        4.849  -0.102   3.041  0.00  0.00    -0.265 OA
BRANCH  23  30
ATOM     27  C   LIG    1        0.851  -1.671   2.436  0.00  0.00    +0.128 C 
ATOM     28  N   LIG    1        2.258  -1.463   2.664  0.00  0.00    -0.311 N 
ATOM     29  H   LIG    1        2.625  -1.511   3.609  0.00  0.00    +0.149 HD
ATOM     30  C   LIG    1        3.098  -0.999   1.672  0.00  0.00    +0.299 C 
ATOM     31  O   LIG    1        2.780  -0.779   0.513  0.00  0.00    -0.265 OA
ENDBRANCH  23  30
ENDBRANCH   1  24
TORSDOF 4
