REMARK  Name = pdb/CHEMBL3671412.pdb
REMARK                            x       y       z     vdW  Elec       q    Type
REMARK                         _______ _______ _______ _____ _____    ______ ____
ROOT
ATOM      1  C   LIG    1        3.732   6.349   0.757  0.00  0.00    +0.042 A 
ATOM      2  C   LIG    1        3.770   7.476  -0.081  0.00  0.00    +0.038 A 
ATOM      3  C   LIG    1        2.586   8.072  -0.530  0.00  0.00    +0.052 A 
ATOM      4  C   LIG    1        1.394   7.505  -0.086  0.00  0.00    +0.134 A 
ATOM      5  N   LIG    1        1.323   6.399   0.706  0.00  0.00    -0.261 NA
ATOM      6  C   LIG    1        2.490   5.849   1.114  0.00  0.00    +0.122 A 
ENDROOT
BRANCH   3   7
ATOM      7  N   LIG    1        2.694   9.194  -1.389  0.00  0.00    -0.284 N 
ATOM      8  H   LIG    1        3.635   9.483  -1.632  0.00  0.00    +0.155 HD
ATOM      9  C   LIG    1        1.643   9.919  -1.945  0.00  0.00    +0.223 C 
ATOM     10  O   LIG    1        0.454   9.676  -1.755  0.00  0.00    -0.275 OA
BRANCH   9  11
ATOM     11  C   LIG    1        2.128  11.031  -2.867  0.00  0.00    +0.151 C 
BRANCH  11  12
ATOM     12  C   LIG    1        1.015  11.847  -3.479  0.00  0.00    +0.050 A 
ATOM     13  N   LIG    1        0.623  12.963  -2.814  0.00  0.00    -0.258 NA
ATOM     14  C   LIG    1       -0.379  13.697  -3.365  0.00  0.00    +0.131 A 
ATOM     15  C   LIG    1       -0.988  13.391  -4.571  0.00  0.00    +0.059 A 
ATOM     16 CL   LIG    1       -2.221  14.391  -5.223  0.00  0.00    -0.082 Cl
ATOM     17  C   LIG    1       -0.568  12.255  -5.248  0.00  0.00    +0.023 A 
ATOM     18  C   LIG    1        0.440  11.465  -4.693  0.00  0.00    +0.025 A 
ENDBRANCH  11  12
ENDBRANCH   9  11
ENDBRANCH   3   7
BRANCH   1  19
ATOM     19  C   LIG    1        4.995   5.823   1.324  0.00  0.00    +0.197 C 
ATOM     20  O   LIG    1        5.916   6.628   1.489  0.00  0.00    -0.287 OA
BRANCH  19  28
ATOM     21  N   LIG    1        5.077   2.152   1.652  0.00  0.00    -0.323 N 
ATOM     22  C   LIG    1        5.962   2.517   2.648  0.00  0.00    +0.145 A 
ATOM     23  N   LIG    1        6.652   1.681   3.443  0.00  0.00    -0.218 NA
ATOM     24  C   LIG    1        7.469   2.324   4.291  0.00  0.00    +0.223 A 
ATOM     25  N   LIG    1        7.664   3.649   4.402  0.00  0.00    -0.243 NA
ATOM     26  C   LIG    1        6.956   4.456   3.582  0.00  0.00    +0.124 A 
ATOM     27  C   LIG    1        6.054   3.904   2.669  0.00  0.00    +0.048 A 
ATOM     28  C   LIG    1        5.160   4.418   1.683  0.00  0.00    +0.051 A 
ATOM     29  C   LIG    1        4.562   3.315   1.094  0.00  0.00    +0.100 A 
BRANCH  21  30
ATOM     30  C   LIG    1        4.795   0.770   1.176  0.00  0.00    +0.065 C 
ATOM     31  C   LIG    1        4.808  -0.278   2.316  0.00  0.00    +0.036 C 
ATOM     32  C   LIG    1        3.376   0.692   0.557  0.00  0.00    +0.036 C 
BRANCH  30  33
ATOM     33  C   LIG    1        5.856   0.350   0.113  0.00  0.00    +0.187 C 
BRANCH  33  35
ATOM     34  C   LIG    1        6.561  -1.424  -1.311  0.00  0.00    +0.194 C 
ATOM     35  O   LIG    1        5.572  -0.962  -0.398  0.00  0.00    -0.381 OA
ENDBRANCH  33  35
ENDBRANCH  30  33
ENDBRANCH  21  30
ENDBRANCH  19  28
ENDBRANCH   1  19
TORSDOF 8
