REMARK  Name = pdb/CHEMBL3972530.pdb
REMARK                            x       y       z     vdW  Elec       q    Type
REMARK                         _______ _______ _______ _____ _____    ______ ____
ROOT
ATOM      1  C   LIG    1        1.750   1.778  -2.256  0.00  0.00    +0.131 A 
ATOM      2  C   LIG    1        0.965   2.006  -3.364  0.00  0.00    +0.183 A 
ATOM      3  N   LIG    1        0.197   1.172  -4.132  0.00  0.00    -0.211 NA
ATOM      4  C   LIG    1       -0.415   1.666  -5.189  0.00  0.00    +0.126 A 
ATOM      5  C   LIG    1       -0.320   3.139  -5.523  0.00  0.00    +0.063 A 
ATOM      6  C   LIG    1        0.399   3.920  -4.707  0.00  0.00    +0.118 A 
ATOM      7  N   LIG    1        1.057   3.373  -3.618  0.00  0.00    -0.220 N 
ATOM      8  N   LIG    1        1.838   4.014  -2.712  0.00  0.00    -0.171 NA
ATOM      9  C   LIG    1        2.273   3.035  -1.910  0.00  0.00    +0.165 A 
ENDROOT
BRANCH   4  10
ATOM     10  N   LIG    1       -1.168   0.805  -5.981  0.00  0.00    -0.308 N 
ATOM     11  C   LIG    1       -1.588   1.088  -7.364  0.00  0.00    +0.108 C 
ATOM     12  C   LIG    1       -1.911  -0.287  -7.975  0.00  0.00    +0.029 C 
ATOM     13  C   LIG    1       -1.142  -1.263  -7.104  0.00  0.00    +0.021 C 
ATOM     14  C   LIG    1       -1.249  -0.636  -5.722  0.00  0.00    +0.107 C 
BRANCH  11  15
ATOM     15  C   LIG    1       -2.786   2.007  -7.431  0.00  0.00    +0.011 A 
ATOM     16  C   LIG    1       -2.961   2.830  -8.550  0.00  0.00    +0.129 A 
ATOM     17  F   LIG    1       -2.068   2.788  -9.550  0.00  0.00    -0.205 F 
ATOM     18  C   LIG    1       -4.035   3.712  -8.649  0.00  0.00    +0.041 A 
ATOM     19  C   LIG    1       -4.969   3.778  -7.616  0.00  0.00    +0.041 A 
ATOM     20  C   LIG    1       -4.818   2.953  -6.507  0.00  0.00    +0.124 A 
ATOM     21  F   LIG    1       -5.714   3.015  -5.514  0.00  0.00    -0.205 F 
ATOM     22  C   LIG    1       -3.748   2.069  -6.409  0.00  0.00    +0.046 A 
ENDBRANCH  11  15
ENDBRANCH   4  10
BRANCH   1  24
ATOM     23  C   LIG    1        1.241  -0.381  -1.508  0.00  0.00    +0.241 C 
ATOM     24  N   LIG    1        2.105   0.583  -1.615  0.00  0.00    -0.206 NA
BRANCH  23  25
ATOM     25  C   LIG    1        1.543  -1.680  -0.848  0.00  0.00    +0.143 A 
ATOM     26  N   LIG    1        0.616  -2.677  -0.946  0.00  0.00    -0.247 NA
ATOM     27  C   LIG    1        0.936  -3.838  -0.338  0.00  0.00    +0.131 A 
ATOM     28  C   LIG    1        2.128  -4.017   0.342  0.00  0.00    +0.130 A 
ATOM     29  N   LIG    1        3.060  -3.043   0.441  0.00  0.00    -0.259 NA
ATOM     30  C   LIG    1        2.741  -1.868  -0.173  0.00  0.00    +0.143 A 
ENDBRANCH  23  25
BRANCH  23  31
ATOM     31  O   LIG    1       -0.037  -0.383  -1.945  0.00  0.00    -0.491 OA
ATOM     32  H   LIG    1       -0.198   0.315  -2.602  0.00  0.00    +0.294 HD
ENDBRANCH  23  31
ENDBRANCH   1  24
TORSDOF 5
