REMARK  Name = pdb/CHEMBL3895402.pdb
REMARK                            x       y       z     vdW  Elec       q    Type
REMARK                         _______ _______ _______ _____ _____    ______ ____
ROOT
ATOM      1  C   LIG    1        5.403   5.090   0.883  0.00  0.00    +0.149 A 
ATOM      2  N   LIG    1        5.703   6.353   1.240  0.00  0.00    -0.160 NA
ATOM      3  N   LIG    1        4.519   7.031   1.201  0.00  0.00    -0.218 N 
ATOM      4  C   LIG    1        3.474   6.166   0.858  0.00  0.00    +0.129 A 
ATOM      5  C   LIG    1        4.010   4.913   0.720  0.00  0.00    +0.078 A 
ENDROOT
BRANCH   3   6
ATOM      6  C   LIG    1        4.463   8.401   1.618  0.00  0.00    +0.067 A 
ATOM      7  C   LIG    1        5.649   9.065   1.972  0.00  0.00    +0.028 A 
ATOM      8  C   LIG    1        5.613  10.384   2.439  0.00  0.00    +0.002 A 
ATOM      9  C   LIG    1        4.399  11.053   2.561  0.00  0.00    +0.000 A 
ATOM     10  C   LIG    1        3.217  10.406   2.221  0.00  0.00    +0.002 A 
ATOM     11  C   LIG    1        3.246   9.089   1.753  0.00  0.00    +0.028 A 
ENDBRANCH   3   6
BRANCH   4  12
ATOM     12  N   LIG    1        2.143   6.500   0.627  0.00  0.00    -0.266 N 
ATOM     13  H   LIG    1        1.966   7.241  -0.046  0.00  0.00    +0.157 HD
ATOM     14  C   LIG    1        0.958   5.867   1.137  0.00  0.00    +0.251 C 
ATOM     15  O   LIG    1       -0.076   6.182   0.538  0.00  0.00    -0.270 OA
BRANCH  14  16
ATOM     16  C   LIG    1        0.946   4.937   2.278  0.00  0.00    +0.056 A 
ATOM     17  C   LIG    1        1.772   5.029   3.413  0.00  0.00    +0.056 A 
ATOM     18 CL   LIG    1        2.659   6.438   3.846  0.00  0.00    -0.083 Cl
ATOM     19  C   LIG    1        1.773   4.017   4.368  0.00  0.00    +0.059 A 
ATOM     20  C   LIG    1        0.834   2.996   4.303  0.00  0.00    +0.134 A 
ATOM     21  F   LIG    1        0.865   2.078   5.277  0.00  0.00    -0.205 F 
ATOM     22  C   LIG    1       -0.136   2.949   3.293  0.00  0.00    +0.036 A 
ATOM     23  C   LIG    1       -0.036   3.916   2.271  0.00  0.00    +0.027 A 
BRANCH  22  24
ATOM     24  C   LIG    1       -1.210   1.933   3.289  0.00  0.00    +0.074 A 
ATOM     25  N   LIG    1       -1.685   1.596   2.064  0.00  0.00    -0.255 NA
ATOM     26  C   LIG    1       -2.661   0.658   2.004  0.00  0.00    +0.111 A 
ATOM     27  C   LIG    1       -3.209   0.037   3.112  0.00  0.00    +0.020 A 
ATOM     28  C   LIG    1       -2.733   0.398   4.362  0.00  0.00    +0.004 A 
ATOM     29  C   LIG    1       -1.727   1.358   4.453  0.00  0.00    +0.028 A 
ENDBRANCH  22  24
ENDBRANCH  14  16
ENDBRANCH   4  12
BRANCH   1  31
ATOM     30  N   LIG    1        6.342   3.024   0.087  0.00  0.00    -0.241 NA
ATOM     31  C   LIG    1        6.474   4.105   0.773  0.00  0.00    +0.236 C 
BRANCH  30  33
ATOM     32  C   LIG    1        8.716   2.674  -0.596  0.00  0.00    +0.038 C 
ATOM     33  C   LIG    1        7.482   2.074   0.110  0.00  0.00    +0.139 C 
BRANCH  33  34
ATOM     34  C   LIG    1        7.114   0.711  -0.457  0.00  0.00    +0.013 A 
ATOM     35  C   LIG    1        8.061  -0.234  -0.822  0.00  0.00    +0.119 A 
ATOM     36  N   LIG    1        7.783  -1.488  -1.241  0.00  0.00    -0.243 NA
ATOM     37  C   LIG    1        6.485  -1.810  -1.283  0.00  0.00    +0.221 A 
ATOM     38  N   LIG    1        5.470  -1.001  -0.953  0.00  0.00    -0.243 NA
ATOM     39  C   LIG    1        5.815   0.243  -0.544  0.00  0.00    +0.119 A 
ENDBRANCH  33  34
ENDBRANCH  30  33
BRANCH  31  40
ATOM     40  O   LIG    1        7.591   4.445   1.457  0.00  0.00    -0.491 OA
ATOM     41  H   LIG    1        7.489   5.359   1.794  0.00  0.00    +0.294 HD
ENDBRANCH  31  40
ENDBRANCH   1  31
TORSDOF 8
