REMARK  Name = pdb/CHEMBL3673482.pdb
REMARK                            x       y       z     vdW  Elec       q    Type
REMARK                         _______ _______ _______ _____ _____    ______ ____
ROOT
ATOM      1  C   LIG    1       10.324  11.159  -0.718  0.00  0.00    +0.161 C 
ENDROOT
BRANCH   1   2
ATOM      2  N   LIG    1       11.559  11.542  -0.047  0.00  0.00    -0.293 N 
ATOM      3  C   LIG    1       12.080  11.025   1.115  0.00  0.00    +0.162 A 
ATOM      4  N   LIG    1       11.662   9.985   1.837  0.00  0.00    -0.235 NA
ATOM      5  C   LIG    1       12.404   9.739   2.937  0.00  0.00    +0.121 A 
ATOM      6  C   LIG    1       13.521  10.464   3.380  0.00  0.00    +0.002 A 
ATOM      7  C   LIG    1       13.887  11.562   2.573  0.00  0.00    +0.041 A 
ATOM      8  C   LIG    1       13.171  11.836   1.402  0.00  0.00    +0.110 A 
ATOM      9  N   LIG    1       13.358  12.782   0.431  0.00  0.00    -0.213 NA
ATOM     10  C   LIG    1       12.400  12.542  -0.476  0.00  0.00    +0.195 A 
BRANCH   6  11
ATOM     11  C   LIG    1       14.277  10.079   4.604  0.00  0.00    -0.016 A 
ATOM     12  C   LIG    1       13.910   8.972   5.401  0.00  0.00    +0.011 A 
ATOM     13  C   LIG    1       14.637   8.603   6.538  0.00  0.00    +0.039 A 
ATOM     14  C   LIG    1       15.748   9.341   6.907  0.00  0.00    +0.123 A 
ATOM     15  F   LIG    1       16.445   8.992   7.994  0.00  0.00    -0.205 F 
ATOM     16  C   LIG    1       16.144  10.437   6.161  0.00  0.00    +0.039 A 
ATOM     17  C   LIG    1       15.416  10.798   5.023  0.00  0.00    +0.011 A 
ENDBRANCH   6  11
BRANCH  10  18
ATOM     18  N   LIG    1       12.282  13.185  -1.627  0.00  0.00    -0.329 N 
ATOM     19  H   LIG    1       13.051  13.822  -1.818  0.00  0.00    +0.145 HD
ATOM     20  H   LIG    1       12.072  12.639  -2.472  0.00  0.00    +0.145 HD
ENDBRANCH  10  18
ENDBRANCH   1   2
BRANCH   1  24
ATOM     21  C   LIG    1        8.439   7.989   1.559  0.00  0.00    +0.162 A 
ATOM     22  C   LIG    1        9.284   7.684   0.454  0.00  0.00    +0.162 A 
ATOM     23  C   LIG    1        9.890   8.764  -0.212  0.00  0.00    +0.054 A 
ATOM     24  C   LIG    1        9.550  10.094   0.004  0.00  0.00    -0.024 A 
ATOM     25  C   LIG    1        8.635  10.378   0.994  0.00  0.00    +0.009 A 
ATOM     26  C   LIG    1        8.142   9.346   1.782  0.00  0.00    +0.050 A 
BRANCH  22  27
ATOM     27  O   LIG    1        9.540   6.406  -0.015  0.00  0.00    -0.491 OA
ATOM     28  C   LIG    1       10.404   6.321  -1.185  0.00  0.00    +0.277 C 
ENDBRANCH  22  27
BRANCH  21  29
ATOM     29  O   LIG    1        7.861   7.050   2.404  0.00  0.00    -0.484 OA
BRANCH  29  30
ATOM     30  C   LIG    1        7.528   7.492   3.775  0.00  0.00    +0.266 C 
BRANCH  30  34
ATOM     31  C   LIG    1        3.685   9.228   4.640  0.00  0.00    +0.214 A 
ATOM     32  N   LIG    1        4.515   8.951   5.666  0.00  0.00    -0.221 NA
ATOM     33  C   LIG    1        5.725   8.412   5.346  0.00  0.00    +0.121 A 
ATOM     34  C   LIG    1        6.152   8.112   4.045  0.00  0.00    +0.008 A 
ATOM     35  C   LIG    1        5.268   8.465   3.024  0.00  0.00    +0.013 A 
ATOM     36  C   LIG    1        4.026   9.027   3.315  0.00  0.00    +0.067 A 
BRANCH  31  38
ATOM     37  C   LIG    1        2.254  10.288   6.152  0.00  0.00    +0.279 C 
ATOM     38  O   LIG    1        2.397   9.665   4.881  0.00  0.00    -0.480 OA
ENDBRANCH  31  38
ENDBRANCH  30  34
ENDBRANCH  29  30
ENDBRANCH  21  29
ENDBRANCH   1  24
TORSDOF 9
