REMARK  Name = pdb/CHEMBL3975484.pdb
REMARK                            x       y       z     vdW  Elec       q    Type
REMARK                         _______ _______ _______ _____ _____    ______ ____
ROOT
ATOM      1  C   LIG    1        2.918  -1.723   0.345  0.00  0.00    +0.149 A 
ATOM      2  N   LIG    1        2.439  -2.892  -0.109  0.00  0.00    -0.160 NA
ATOM      3  N   LIG    1        3.339  -3.325  -1.029  0.00  0.00    -0.218 N 
ATOM      4  C   LIG    1        4.300  -2.346  -1.302  0.00  0.00    +0.129 A 
ATOM      5  C   LIG    1        4.100  -1.372  -0.349  0.00  0.00    +0.078 A 
ENDROOT
BRANCH   3   6
ATOM      6  C   LIG    1        3.173  -4.607  -1.626  0.00  0.00    +0.067 A 
ATOM      7  C   LIG    1        4.266  -5.339  -2.105  0.00  0.00    +0.028 A 
ATOM      8  C   LIG    1        4.065  -6.599  -2.681  0.00  0.00    +0.002 A 
ATOM      9  C   LIG    1        2.780  -7.134  -2.779  0.00  0.00    +0.000 A 
ATOM     10  C   LIG    1        1.692  -6.419  -2.286  0.00  0.00    +0.002 A 
ATOM     11  C   LIG    1        1.886  -5.166  -1.698  0.00  0.00    +0.028 A 
ENDBRANCH   3   6
BRANCH   4  12
ATOM     12  N   LIG    1        5.201  -2.290  -2.381  0.00  0.00    -0.266 N 
ATOM     13  H   LIG    1        5.177  -3.046  -3.054  0.00  0.00    +0.157 HD
ATOM     14  C   LIG    1        6.053  -1.150  -2.627  0.00  0.00    +0.251 C 
ATOM     15  O   LIG    1        6.090  -0.211  -1.859  0.00  0.00    -0.270 OA
BRANCH  14  16
ATOM     16  C   LIG    1        6.859  -1.096  -3.869  0.00  0.00    +0.056 A 
ATOM     17  C   LIG    1        7.415  -2.207  -4.490  0.00  0.00    +0.054 A 
ATOM     18 CL   LIG    1        7.264  -3.811  -3.882  0.00  0.00    -0.083 Cl
ATOM     19  C   LIG    1        8.164  -2.035  -5.654  0.00  0.00    +0.041 A 
ATOM     20  C   LIG    1        8.400  -0.756  -6.185  0.00  0.00    +0.052 A 
ATOM     21 CL   LIG    1        9.171  -0.751  -7.736  0.00  0.00    -0.083 Cl
ATOM     22  C   LIG    1        7.954   0.405  -5.524  0.00  0.00    +0.022 A 
ATOM     23  C   LIG    1        7.135   0.190  -4.387  0.00  0.00    +0.026 A 
BRANCH  22  24
ATOM     24  C   LIG    1        8.282   1.803  -5.917  0.00  0.00    +0.107 A 
ATOM     25  C   LIG    1        9.500   2.199  -6.477  0.00  0.00    +0.149 A 
ATOM     26  F   LIG    1       10.525   1.350  -6.623  0.00  0.00    -0.203 F 
ATOM     27  C   LIG    1        9.706   3.524  -6.847  0.00  0.00    +0.042 A 
ATOM     28  C   LIG    1        8.723   4.462  -6.576  0.00  0.00    +0.023 A 
ATOM     29  C   LIG    1        7.572   4.027  -5.942  0.00  0.00    +0.111 A 
ATOM     30  N   LIG    1        7.325   2.730  -5.621  0.00  0.00    -0.252 NA
ENDBRANCH  22  24
ENDBRANCH  14  16
ENDBRANCH   4  12
BRANCH   1  31
ATOM     31  C   LIG    1        2.236  -0.907   1.358  0.00  0.00    +0.236 C 
ATOM     32  N   LIG    1        2.670   0.275   1.615  0.00  0.00    -0.243 NA
BRANCH  31  33
ATOM     33  O   LIG    1        1.159  -1.478   1.935  0.00  0.00    -0.491 OA
ATOM     34  H   LIG    1        0.896  -1.022   2.749  0.00  0.00    +0.294 HD
ENDBRANCH  31  33
BRANCH  32  35
ATOM     35  C   LIG    1        1.899   1.167   2.480  0.00  0.00    +0.204 C 
BRANCH  35  36
ATOM     36  C   LIG    1        2.253   1.007   3.917  0.00  0.00    +0.105 A 
ATOM     37  N   LIG    1        1.580   0.135   4.682  0.00  0.00    -0.082 NA
ATOM     38  O   LIG    1        2.114   0.272   5.956  0.00  0.00    -0.363 OA
ATOM     39  C   LIG    1        3.097   1.206   5.936  0.00  0.00    +0.230 A 
ATOM     40  C   LIG    1        3.232   1.701   4.666  0.00  0.00    +0.069 A 
ENDBRANCH  35  36
ENDBRANCH  32  35
ENDBRANCH   1  31
TORSDOF 8
