REMARK  Name = pdb/CHEMBL3908178.pdb
REMARK                            x       y       z     vdW  Elec       q    Type
REMARK                         _______ _______ _______ _____ _____    ______ ____
ROOT
ATOM      1  C   LIG    1        5.643   0.209   2.813  0.00  0.00    +0.133 A 
ATOM      2  C   LIG    1        4.900   1.331   3.123  0.00  0.00    +0.183 A 
ATOM      3  N   LIG    1        3.658   1.540   3.677  0.00  0.00    -0.211 NA
ATOM      4  C   LIG    1        3.228   2.776   3.831  0.00  0.00    +0.126 A 
ATOM      5  C   LIG    1        4.088   3.959   3.454  0.00  0.00    +0.063 A 
ATOM      6  C   LIG    1        5.290   3.708   2.929  0.00  0.00    +0.118 A 
ATOM      7  N   LIG    1        5.714   2.404   2.741  0.00  0.00    -0.220 N 
ATOM      8  N   LIG    1        6.894   2.008   2.197  0.00  0.00    -0.171 NA
ATOM      9  C   LIG    1        6.856   0.679   2.288  0.00  0.00    +0.165 A 
ENDROOT
BRANCH   4  10
ATOM     10  N   LIG    1        1.957   3.007   4.354  0.00  0.00    -0.308 N 
ATOM     11  C   LIG    1        1.148   4.202   4.017  0.00  0.00    +0.107 C 
ATOM     12  C   LIG    1       -0.295   3.667   3.874  0.00  0.00    +0.029 C 
ATOM     13  C   LIG    1       -0.177   2.149   3.918  0.00  0.00    +0.021 C 
ATOM     14  C   LIG    1        1.074   1.905   4.740  0.00  0.00    +0.107 C 
BRANCH  11  15
ATOM     15  C   LIG    1        1.251   5.294   5.083  0.00  0.00    -0.006 A 
ATOM     16  C   LIG    1        1.090   6.665   4.794  0.00  0.00    +0.046 A 
ATOM     17 CL   LIG    1        0.868   7.243   3.181  0.00  0.00    -0.083 Cl
ATOM     18  C   LIG    1        1.124   7.634   5.814  0.00  0.00    +0.023 A 
ATOM     19  C   LIG    1        1.335   7.257   7.139  0.00  0.00    +0.040 A 
ATOM     20  C   LIG    1        1.518   5.916   7.432  0.00  0.00    +0.124 A 
ATOM     21  F   LIG    1        1.741   5.541   8.697  0.00  0.00    -0.205 F 
ATOM     22  C   LIG    1        1.473   4.948   6.431  0.00  0.00    +0.045 A 
ENDBRANCH  11  15
ENDBRANCH   4  10
BRANCH   1  24
ATOM     23  C   LIG    1        4.793  -1.884   2.324  0.00  0.00    +0.283 C 
ATOM     24  N   LIG    1        5.427  -1.132   3.137  0.00  0.00    -0.194 NA
BRANCH  23  27
ATOM     25  C   LIG    1        2.686  -1.967  -0.763  0.00  0.00    +0.133 C 
ATOM     26  C   LIG    1        3.741  -2.647   0.125  0.00  0.00    +0.140 C 
ATOM     27  N   LIG    1        4.057  -1.672   1.175  0.00  0.00    -0.283 N 
ATOM     28  C   LIG    1        3.210  -0.494   1.021  0.00  0.00    +0.112 C 
ATOM     29  C   LIG    1        2.037  -0.980   0.188  0.00  0.00    +0.052 C 
BRANCH  25  30
ATOM     30  O   LIG    1        1.725  -2.896  -1.246  0.00  0.00    -0.390 OA
ATOM     31  H   LIG    1        0.962  -2.392  -1.579  0.00  0.00    +0.210 HD
ENDBRANCH  25  30
ENDBRANCH  23  27
BRANCH  23  32
ATOM     32  O   LIG    1        4.825  -3.188   2.677  0.00  0.00    -0.481 OA
ATOM     33  H   LIG    1        4.167  -3.705   2.211  0.00  0.00    +0.295 HD
ENDBRANCH  23  32
ENDBRANCH   1  24
TORSDOF 6
