REMARK  Name = pdb/CHEMBL3949290.pdb
REMARK                            x       y       z     vdW  Elec       q    Type
REMARK                         _______ _______ _______ _____ _____    ______ ____
ROOT
ATOM      1  C   LIG    1        3.253  -0.801  -1.191  0.00  0.00    +0.149 A 
ATOM      2  N   LIG    1        3.265  -1.545  -2.307  0.00  0.00    -0.160 NA
ATOM      3  N   LIG    1        4.099  -0.898  -3.157  0.00  0.00    -0.218 N 
ATOM      4  C   LIG    1        4.436   0.374  -2.678  0.00  0.00    +0.129 A 
ATOM      5  C   LIG    1        3.979   0.397  -1.384  0.00  0.00    +0.078 A 
ENDROOT
BRANCH   3   6
ATOM      6  C   LIG    1        4.496  -1.536  -4.361  0.00  0.00    +0.067 A 
ATOM      7  C   LIG    1        5.740  -1.268  -4.941  0.00  0.00    +0.028 A 
ATOM      8  C   LIG    1        6.121  -1.934  -6.110  0.00  0.00    +0.002 A 
ATOM      9  C   LIG    1        5.267  -2.867  -6.698  0.00  0.00    +0.000 A 
ATOM     10  C   LIG    1        4.038  -3.155  -6.110  0.00  0.00    +0.002 A 
ATOM     11  C   LIG    1        3.656  -2.503  -4.936  0.00  0.00    +0.028 A 
ENDBRANCH   3   6
BRANCH   4  12
ATOM     12  N   LIG    1        5.033   1.431  -3.387  0.00  0.00    -0.266 N 
ATOM     13  H   LIG    1        5.267   1.278  -4.353  0.00  0.00    +0.157 HD
ATOM     14  C   LIG    1        5.237   2.741  -2.807  0.00  0.00    +0.251 C 
ATOM     15  O   LIG    1        4.895   2.994  -1.665  0.00  0.00    -0.270 OA
BRANCH  14  16
ATOM     16  C   LIG    1        5.793   3.820  -3.657  0.00  0.00    +0.056 A 
ATOM     17  C   LIG    1        6.706   3.625  -4.679  0.00  0.00    +0.056 A 
ATOM     18 CL   LIG    1        7.397   2.088  -5.045  0.00  0.00    -0.083 Cl
ATOM     19  C   LIG    1        7.153   4.715  -5.424  0.00  0.00    +0.059 A 
ATOM     20  C   LIG    1        6.715   6.005  -5.117  0.00  0.00    +0.134 A 
ATOM     21  F   LIG    1        7.168   6.997  -5.898  0.00  0.00    -0.205 F 
ATOM     22  C   LIG    1        5.845   6.266  -4.049  0.00  0.00    +0.039 A 
ATOM     23  C   LIG    1        5.379   5.140  -3.338  0.00  0.00    +0.027 A 
BRANCH  22  24
ATOM     24  C   LIG    1        5.485   7.646  -3.650  0.00  0.00    +0.109 A 
ATOM     25  C   LIG    1        4.294   7.991  -3.005  0.00  0.00    +0.149 A 
ATOM     26  F   LIG    1        3.345   7.079  -2.745  0.00  0.00    -0.203 F 
ATOM     27  C   LIG    1        4.071   9.306  -2.611  0.00  0.00    +0.042 A 
ATOM     28  C   LIG    1        5.037  10.267  -2.879  0.00  0.00    +0.023 A 
ATOM     29  C   LIG    1        6.191   9.863  -3.525  0.00  0.00    +0.111 A 
ATOM     30  N   LIG    1        6.435   8.586  -3.900  0.00  0.00    -0.252 NA
ENDBRANCH  22  24
ENDBRANCH  14  16
ENDBRANCH   4  12
BRANCH   1  31
ATOM     31  C   LIG    1        2.531  -1.183   0.019  0.00  0.00    +0.236 C 
ATOM     32  N   LIG    1        2.488  -0.365   1.004  0.00  0.00    -0.248 NA
BRANCH  31  33
ATOM     33  O   LIG    1        1.953  -2.400  -0.014  0.00  0.00    -0.491 OA
ATOM     34  H   LIG    1        1.544  -2.634   0.825  0.00  0.00    +0.294 HD
ENDBRANCH  31  33
BRANCH  32  35
ATOM     35  C   LIG    1        1.763  -0.672   2.228  0.00  0.00    +0.162 C 
BRANCH  35  36
ATOM     36  C   LIG    1        2.643  -1.425   3.189  0.00  0.00    +0.052 C 
ATOM     37  C   LIG    1        3.864  -0.753   3.648  0.00  0.00    +0.028 C 
ATOM     38  C   LIG    1        4.682  -1.374   4.513  0.00  0.00    +0.184 C 
ATOM     39  N   LIG    1        4.396  -2.628   4.979  0.00  0.00    -0.210 N 
ATOM     40  H   LIG    1        5.021  -3.082   5.632  0.00  0.00    +0.298 HD
ATOM     41  C   LIG    1        3.277  -3.316   4.592  0.00  0.00    +0.295 C 
ATOM     42  C   LIG    1        2.332  -2.663   3.632  0.00  0.00    +0.083 C 
BRANCH  41  43
ATOM     43  N   LIG    1        3.058  -4.505   5.055  0.00  0.00    -0.071 NA
ATOM     44  H   LIG    1        2.188  -4.890   4.679  0.00  0.00    +0.348 HD
ENDBRANCH  41  43
ENDBRANCH  35  36
ENDBRANCH  32  35
ENDBRANCH   1  31
TORSDOF 9
