REMARK  Name = pdb/CHEMBL3676099.pdb
REMARK                            x       y       z     vdW  Elec       q    Type
REMARK                         _______ _______ _______ _____ _____    ______ ____
ROOT
ATOM      1  C   LIG    1        4.063  -4.343  -1.570  0.00  0.00    +0.126 A 
ATOM      2  N   LIG    1        3.404  -3.319  -2.077  0.00  0.00    -0.212 NA
ATOM      3  C   LIG    1        2.467  -3.563  -3.055  0.00  0.00    +0.170 A 
ATOM      4  C   LIG    1        1.594  -2.737  -3.743  0.00  0.00    +0.100 A 
ATOM      5  C   LIG    1        0.836  -3.618  -4.543  0.00  0.00    +0.150 A 
ATOM      6  N   LIG    1        1.219  -4.889  -4.436  0.00  0.00    -0.173 NA
ATOM      7  N   LIG    1        2.216  -4.855  -3.523  0.00  0.00    -0.221 N 
ATOM      8  C   LIG    1        2.930  -5.933  -3.034  0.00  0.00    +0.118 A 
ATOM      9  C   LIG    1        3.847  -5.753  -2.078  0.00  0.00    +0.063 A 
ENDROOT
BRANCH   1  11
ATOM     10  C   LIG    1        5.236  -2.785   0.022  0.00  0.00    +0.110 C 
ATOM     11  N   LIG    1        4.963  -4.131  -0.530  0.00  0.00    -0.308 N 
ATOM     12  C   LIG    1        6.059  -5.042  -0.202  0.00  0.00    +0.107 C 
ATOM     13  C   LIG    1        7.205  -4.136   0.222  0.00  0.00    +0.021 C 
ATOM     14  C   LIG    1        6.490  -2.985   0.892  0.00  0.00    +0.029 C 
BRANCH  10  19
ATOM     15  C   LIG    1        2.860   1.179   1.899  0.00  0.00    +0.152 C 
ATOM     16  N   LIG    1        3.079  -0.257   1.878  0.00  0.00    -0.315 N 
ATOM     17  C   LIG    1        4.071  -0.763   1.033  0.00  0.00    +0.256 A 
ATOM     18  O   LIG    1        4.864  -0.054   0.417  0.00  0.00    -0.267 OA
ATOM     19  C   LIG    1        4.134  -2.262   0.903  0.00  0.00    +0.040 A 
ATOM     20  C   LIG    1        3.259  -3.010   1.600  0.00  0.00    +0.050 A 
ATOM     21  C   LIG    1        2.321  -2.406   2.501  0.00  0.00    +0.140 A 
ATOM     22  F   LIG    1        1.489  -3.206   3.194  0.00  0.00    -0.204 F 
ATOM     23  C   LIG    1        2.261  -1.079   2.631  0.00  0.00    +0.127 A 
ENDBRANCH  10  19
ENDBRANCH   1  11
BRANCH   4  24
ATOM     24  C   LIG    1        1.429  -1.300  -3.679  0.00  0.00    +0.250 C 
ATOM     25  N   LIG    1        2.282  -0.644  -2.834  0.00  0.00    -0.306 N 
ATOM     26  H   LIG    1        2.954  -1.210  -2.317  0.00  0.00    +0.150 HD
ATOM     27  O   LIG    1        0.567  -0.728  -4.363  0.00  0.00    -0.270 OA
BRANCH  25  28
ATOM     28  C   LIG    1        2.287   0.783  -2.639  0.00  0.00    +0.032 C 
ATOM     29  C   LIG    1        3.034   1.664  -3.626  0.00  0.00    +0.027 C 
ATOM     30  C   LIG    1        3.606   1.420  -2.267  0.00  0.00    +0.027 C 
ATOM     31  C   LIG    1        1.066   1.342  -1.944  0.00  0.00    +0.031 C 
ENDBRANCH  25  28
ENDBRANCH   4  24
TORSDOF 4
