REMARK  Name = pdb/CHEMBL3984865.pdb
REMARK                            x       y       z     vdW  Elec       q    Type
REMARK                         _______ _______ _______ _____ _____    ______ ____
ROOT
ATOM      1  C   LIG    1        3.427  -2.981  -0.711  0.00  0.00    +0.149 A 
ATOM      2  N   LIG    1        3.626  -4.286  -0.477  0.00  0.00    -0.160 NA
ATOM      3  N   LIG    1        4.648  -4.353   0.426  0.00  0.00    -0.218 N 
ATOM      4  C   LIG    1        5.133  -3.070   0.726  0.00  0.00    +0.129 A 
ATOM      5  C   LIG    1        4.360  -2.198  -0.004  0.00  0.00    +0.078 A 
ENDROOT
BRANCH   3   6
ATOM      6  C   LIG    1        5.010  -5.633   0.961  0.00  0.00    +0.067 A 
ATOM      7  C   LIG    1        4.367  -6.789   0.473  0.00  0.00    +0.028 A 
ATOM      8  C   LIG    1        4.663  -8.052   1.001  0.00  0.00    +0.002 A 
ATOM      9  C   LIG    1        5.607  -8.184   2.013  0.00  0.00    +0.000 A 
ATOM     10  C   LIG    1        6.253  -7.055   2.500  0.00  0.00    +0.002 A 
ATOM     11  C   LIG    1        5.949  -5.789   1.988  0.00  0.00    +0.028 A 
ENDBRANCH   3   6
BRANCH   4  12
ATOM     12  N   LIG    1        6.192  -2.685   1.554  0.00  0.00    -0.266 N 
ATOM     13  H   LIG    1        6.915  -3.360   1.758  0.00  0.00    +0.157 HD
ATOM     14  C   LIG    1        6.308  -1.372   2.125  0.00  0.00    +0.251 C 
ATOM     15  O   LIG    1        5.459  -0.521   1.915  0.00  0.00    -0.270 OA
BRANCH  14  16
ATOM     16  C   LIG    1        7.433  -1.086   3.044  0.00  0.00    +0.056 A 
ATOM     17  C   LIG    1        8.673  -1.716   2.998  0.00  0.00    +0.054 A 
ATOM     18 CL   LIG    1        9.046  -3.022   1.934  0.00  0.00    -0.083 Cl
ATOM     19  C   LIG    1        9.688  -1.292   3.856  0.00  0.00    +0.041 A 
ATOM     20  C   LIG    1        9.462  -0.291   4.817  0.00  0.00    +0.052 A 
ATOM     21 CL   LIG    1       10.822   0.071   5.820  0.00  0.00    -0.083 Cl
ATOM     22  C   LIG    1        8.195   0.307   4.956  0.00  0.00    +0.019 A 
ATOM     23  C   LIG    1        7.213  -0.087   4.015  0.00  0.00    +0.026 A 
BRANCH  22  24
ATOM     24  C   LIG    1        7.782   1.216   6.056  0.00  0.00    +0.072 A 
ATOM     25  N   LIG    1        6.506   1.007   6.486  0.00  0.00    -0.255 NA
ATOM     26  C   LIG    1        6.054   1.728   7.539  0.00  0.00    +0.111 A 
ATOM     27  C   LIG    1        6.818   2.659   8.213  0.00  0.00    +0.020 A 
ATOM     28  C   LIG    1        8.108   2.890   7.757  0.00  0.00    +0.004 A 
ATOM     29  C   LIG    1        8.586   2.182   6.653  0.00  0.00    +0.028 A 
ENDBRANCH  22  24
ENDBRANCH  14  16
ENDBRANCH   4  12
BRANCH   1  30
ATOM     30  C   LIG    1        2.376  -2.468  -1.598  0.00  0.00    +0.236 C 
ATOM     31  N   LIG    1        2.549  -1.331  -2.179  0.00  0.00    -0.243 NA
BRANCH  30  32
ATOM     32  O   LIG    1        1.286  -3.243  -1.707  0.00  0.00    -0.491 OA
ATOM     33  H   LIG    1        0.527  -2.732  -2.032  0.00  0.00    +0.294 HD
ENDBRANCH  30  32
BRANCH  31  34
ATOM     34  C   LIG    1        1.553  -0.837  -3.138  0.00  0.00    +0.202 C 
BRANCH  34  35
ATOM     35  C   LIG    1        0.492   0.025  -2.512  0.00  0.00    +0.081 A 
ATOM     36  N   LIG    1       -0.310  -0.541  -1.568  0.00  0.00    -0.255 NA
ATOM     37  C   LIG    1       -1.270   0.273  -1.061  0.00  0.00    +0.131 A 
ATOM     38  C   LIG    1       -1.449   1.579  -1.488  0.00  0.00    +0.130 A 
ATOM     39  N   LIG    1       -0.668   2.141  -2.435  0.00  0.00    -0.260 NA
ATOM     40  C   LIG    1        0.305   1.340  -2.931  0.00  0.00    +0.135 A 
ENDBRANCH  34  35
ENDBRANCH  31  34
ENDBRANCH   1  30
TORSDOF 8
