REMARK  Name = pdb/CHEMBL3980356.pdb
REMARK                            x       y       z     vdW  Elec       q    Type
REMARK                         _______ _______ _______ _____ _____    ______ ____
ROOT
ATOM      1  C   LIG    1        5.444  -6.182   0.872  0.00  0.00    +0.149 A 
ATOM      2  N   LIG    1        5.815  -7.275   0.183  0.00  0.00    -0.160 NA
ATOM      3  N   LIG    1        7.110  -7.491   0.519  0.00  0.00    -0.218 N 
ATOM      4  C   LIG    1        7.644  -6.421   1.245  0.00  0.00    +0.129 A 
ATOM      5  C   LIG    1        6.556  -5.637   1.567  0.00  0.00    +0.078 A 
ENDROOT
BRANCH   3   6
ATOM      6  C   LIG    1        7.753  -8.695   0.115  0.00  0.00    +0.067 A 
ATOM      7  C   LIG    1        8.751  -9.274   0.907  0.00  0.00    +0.028 A 
ATOM      8  C   LIG    1        9.337 -10.483   0.522  0.00  0.00    +0.002 A 
ATOM      9  C   LIG    1        8.938 -11.113  -0.656  0.00  0.00    +0.000 A 
ATOM     10  C   LIG    1        7.940 -10.545  -1.446  0.00  0.00    +0.002 A 
ATOM     11  C   LIG    1        7.333  -9.348  -1.054  0.00  0.00    +0.028 A 
ENDBRANCH   3   6
BRANCH   4  12
ATOM     12  N   LIG    1        9.001  -6.159   1.521  0.00  0.00    -0.266 N 
ATOM     13  H   LIG    1        9.682  -6.809   1.139  0.00  0.00    +0.157 HD
ATOM     14  C   LIG    1        9.475  -4.984   2.205  0.00  0.00    +0.251 C 
ATOM     15  O   LIG    1        8.684  -4.118   2.585  0.00  0.00    -0.270 OA
BRANCH  14  16
ATOM     16  C   LIG    1       10.934  -4.771   2.392  0.00  0.00    +0.056 A 
ATOM     17  C   LIG    1       11.864  -5.796   2.539  0.00  0.00    +0.054 A 
ATOM     18 CL   LIG    1       11.432  -7.460   2.630  0.00  0.00    -0.083 Cl
ATOM     19  C   LIG    1       13.220  -5.487   2.678  0.00  0.00    +0.041 A 
ATOM     20  C   LIG    1       13.666  -4.156   2.736  0.00  0.00    +0.052 A 
ATOM     21 CL   LIG    1       15.373  -3.963   2.959  0.00  0.00    -0.083 Cl
ATOM     22  C   LIG    1       12.755  -3.082   2.664  0.00  0.00    +0.022 A 
ATOM     23  C   LIG    1       11.393  -3.434   2.465  0.00  0.00    +0.026 A 
BRANCH  22  24
ATOM     24  C   LIG    1       13.140  -1.649   2.803  0.00  0.00    +0.107 A 
ATOM     25  C   LIG    1       12.330  -0.703   3.442  0.00  0.00    +0.149 A 
ATOM     26  F   LIG    1       11.160  -1.048   3.999  0.00  0.00    -0.203 F 
ATOM     27  C   LIG    1       12.734   0.626   3.530  0.00  0.00    +0.042 A 
ATOM     28  C   LIG    1       13.970   0.991   3.016  0.00  0.00    +0.023 A 
ATOM     29  C   LIG    1       14.734   0.008   2.412  0.00  0.00    +0.111 A 
ATOM     30  N   LIG    1       14.333  -1.280   2.269  0.00  0.00    -0.252 NA
ENDBRANCH  22  24
ENDBRANCH  14  16
ENDBRANCH   4  12
BRANCH   1  32
ATOM     31  N   LIG    1        3.825  -4.519   1.427  0.00  0.00    -0.247 NA
ATOM     32  C   LIG    1        4.082  -5.628   0.830  0.00  0.00    +0.236 C 
BRANCH  32  33
ATOM     33  O   LIG    1        3.183  -6.356   0.134  0.00  0.00    -0.491 OA
ATOM     34  H   LIG    1        2.386  -5.838  -0.049  0.00  0.00    +0.294 HD
ENDBRANCH  32  33
BRANCH  31  35
ATOM     35  C   LIG    1        2.470  -3.956   1.441  0.00  0.00    +0.173 C 
BRANCH  35  36
ATOM     36  C   LIG    1        2.234  -3.018   0.255  0.00  0.00    +0.182 C 
BRANCH  36  38
ATOM     37  C   LIG    1        2.179  -2.889  -2.097  0.00  0.00    +0.194 C 
ATOM     38  O   LIG    1        2.354  -3.747  -0.971  0.00  0.00    -0.381 OA
ENDBRANCH  36  38
ENDBRANCH  35  36
ENDBRANCH  31  35
ENDBRANCH   1  32
TORSDOF 9
