REMARK  Name = pdb/CHEMBL1231124.pdb
REMARK                            x       y       z     vdW  Elec       q    Type
REMARK                         _______ _______ _______ _____ _____    ______ ____
ROOT
ATOM      1  C   LIG    1        2.542   3.314  -0.719  0.00  0.00    +0.217 A 
ATOM      2  N   LIG    1        2.725   4.407  -1.479  0.00  0.00    -0.198 NA
ATOM      3  C   LIG    1        1.957   4.557  -2.588  0.00  0.00    +0.148 A 
ATOM      4  C   LIG    1        1.007   3.604  -2.941  0.00  0.00    +0.099 A 
ATOM      5 CL   LIG    1        0.020   3.727  -4.342  0.00  0.00    -0.078 Cl
ATOM      6  C   LIG    1        0.883   2.533  -2.092  0.00  0.00    +0.137 A 
ATOM      7  N   LIG    1        1.636   2.368  -0.990  0.00  0.00    -0.221 NA
ENDROOT
BRANCH   1   8
ATOM      8  N   LIG    1        3.399   3.163   0.359  0.00  0.00    -0.304 N 
ATOM      9  H   LIG    1        3.721   4.094   0.610  0.00  0.00    +0.150 HD
BRANCH   8  11
ATOM     10  C   LIG    1        3.990   1.698   2.203  0.00  0.00    +0.036 C 
ATOM     11  C   LIG    1        2.842   2.439   1.513  0.00  0.00    +0.138 C 
BRANCH  11  12
ATOM     12  C   LIG    1        2.150   3.371   2.517  0.00  0.00    +0.149 A 
ATOM     13  N   LIG    1        2.200   4.710   2.298  0.00  0.00    -0.236 NA
ATOM     14  C   LIG    1        1.582   5.494   3.210  0.00  0.00    +0.152 A 
ATOM     15  C   LIG    1        0.951   5.001   4.325  0.00  0.00    +0.159 A 
ATOM     16  F   LIG    1        0.357   5.803   5.216  0.00  0.00    -0.202 F 
ATOM     17  C   LIG    1        0.966   3.638   4.474  0.00  0.00    +0.152 A 
ATOM     18  N   LIG    1        1.548   2.801   3.587  0.00  0.00    -0.236 NA
ENDBRANCH  11  12
ENDBRANCH   8  11
ENDBRANCH   1   8
BRANCH   3  19
ATOM     19  N   LIG    1        2.155   5.677  -3.441  0.00  0.00    -0.283 N 
ATOM     20  H   LIG    1        1.431   5.766  -4.149  0.00  0.00    +0.155 HD
BRANCH  19  21
ATOM     21  C   LIG    1        3.042   6.685  -3.267  0.00  0.00    +0.120 A 
ATOM     22  N   LIG    1        3.937   6.723  -2.233  0.00  0.00    -0.264 N 
ATOM     23  H   LIG    1        4.040   6.020  -1.506  0.00  0.00    +0.190 HD
ATOM     24  N   LIG    1        4.707   7.825  -2.215  0.00  0.00    -0.178 NA
ATOM     25  C   LIG    1        4.305   8.509  -3.293  0.00  0.00    +0.062 A 
ATOM     26  C   LIG    1        4.924   9.813  -3.627  0.00  0.00    +0.067 C 
ATOM     27  C   LIG    1        3.274   7.830  -3.992  0.00  0.00    +0.068 A 
ENDBRANCH  19  21
ENDBRANCH   3  19
TORSDOF 5
