REMARK  Name = pdb/CHEMBL3934347.pdb
REMARK                            x       y       z     vdW  Elec       q    Type
REMARK                         _______ _______ _______ _____ _____    ______ ____
ROOT
ATOM      1  C   LIG    1        6.543  -5.518  -1.715  0.00  0.00    +0.149 A 
ATOM      2  N   LIG    1        5.987  -6.236  -2.700  0.00  0.00    -0.160 NA
ATOM      3  N   LIG    1        6.781  -6.047  -3.788  0.00  0.00    -0.218 N 
ATOM      4  C   LIG    1        7.906  -5.265  -3.467  0.00  0.00    +0.129 A 
ATOM      5  C   LIG    1        7.753  -4.934  -2.145  0.00  0.00    +0.078 A 
ENDROOT
BRANCH   3   6
ATOM      6  C   LIG    1        6.393  -6.649  -5.026  0.00  0.00    +0.067 A 
ATOM      7  C   LIG    1        5.566  -7.790  -4.999  0.00  0.00    +0.028 A 
ATOM      8  C   LIG    1        5.146  -8.400  -6.187  0.00  0.00    +0.002 A 
ATOM      9  C   LIG    1        5.524  -7.866  -7.414  0.00  0.00    +0.000 A 
ATOM     10  C   LIG    1        6.328  -6.728  -7.452  0.00  0.00    +0.002 A 
ATOM     11  C   LIG    1        6.766  -6.118  -6.267  0.00  0.00    +0.028 A 
ENDBRANCH   3   6
BRANCH   4  12
ATOM     12  N   LIG    1        9.003  -4.918  -4.256  0.00  0.00    -0.266 N 
ATOM     13  H   LIG    1        9.027  -5.280  -5.208  0.00  0.00    +0.157 HD
ATOM     14  C   LIG    1       10.153  -4.174  -3.783  0.00  0.00    +0.251 C 
ATOM     15  O   LIG    1       10.248  -3.802  -2.636  0.00  0.00    -0.270 OA
BRANCH  14  16
ATOM     16  C   LIG    1       11.206  -3.834  -4.776  0.00  0.00    +0.056 A 
ATOM     17  C   LIG    1       11.531  -4.625  -5.873  0.00  0.00    +0.054 A 
ATOM     18 CL   LIG    1       10.755  -6.124  -6.234  0.00  0.00    -0.083 Cl
ATOM     19  C   LIG    1       12.556  -4.232  -6.729  0.00  0.00    +0.041 A 
ATOM     20  C   LIG    1       13.282  -3.051  -6.505  0.00  0.00    +0.052 A 
ATOM     21 CL   LIG    1       14.516  -2.749  -7.681  0.00  0.00    -0.083 Cl
ATOM     22  C   LIG    1       12.987  -2.208  -5.415  0.00  0.00    +0.019 A 
ATOM     23  C   LIG    1       11.940  -2.643  -4.556  0.00  0.00    +0.026 A 
BRANCH  22  24
ATOM     24  C   LIG    1       13.653  -0.909  -5.119  0.00  0.00    +0.072 A 
ATOM     25  N   LIG    1       12.856   0.018  -4.522  0.00  0.00    -0.255 NA
ATOM     26  C   LIG    1       13.392   1.226  -4.216  0.00  0.00    +0.111 A 
ATOM     27  C   LIG    1       14.705   1.573  -4.468  0.00  0.00    +0.020 A 
ATOM     28  C   LIG    1       15.517   0.627  -5.068  0.00  0.00    +0.004 A 
ATOM     29  C   LIG    1       14.991  -0.624  -5.388  0.00  0.00    +0.028 A 
ENDBRANCH  22  24
ENDBRANCH  14  16
ENDBRANCH   4  12
BRANCH   1  31
ATOM     30  N   LIG    1        4.941  -6.029   0.001  0.00  0.00    -0.247 NA
ATOM     31  C   LIG    1        6.002  -5.408  -0.363  0.00  0.00    +0.236 C 
BRANCH  31  32
ATOM     32  O   LIG    1        6.761  -4.619   0.431  0.00  0.00    -0.491 OA
ATOM     33  H   LIG    1        6.560  -4.796   1.370  0.00  0.00    +0.294 HD
ENDBRANCH  31  32
BRANCH  30  34
ATOM     34  C   LIG    1        4.430  -5.940   1.372  0.00  0.00    +0.173 C 
BRANCH  34  35
ATOM     35  C   LIG    1        5.349  -6.681   2.350  0.00  0.00    +0.182 C 
BRANCH  35  37
ATOM     36  C   LIG    1        7.557  -6.612   3.228  0.00  0.00    +0.194 C 
ATOM     37  O   LIG    1        6.576  -5.948   2.449  0.00  0.00    -0.381 OA
ENDBRANCH  35  37
ENDBRANCH  34  35
ENDBRANCH  30  34
ENDBRANCH   1  31
TORSDOF 9
