REMARK  Name = pdb/CHEMBL3676098.pdb
REMARK                            x       y       z     vdW  Elec       q    Type
REMARK                         _______ _______ _______ _____ _____    ______ ____
ROOT
ATOM      1  C   LIG    1        3.433  -4.540  -0.233  0.00  0.00    +0.100 A 
ATOM      2  C   LIG    1        4.218  -4.720  -1.368  0.00  0.00    +0.170 A 
ATOM      3  N   LIG    1        5.010  -3.875  -2.116  0.00  0.00    -0.212 NA
ATOM      4  C   LIG    1        5.578  -4.353  -3.211  0.00  0.00    +0.126 A 
ATOM      5  C   LIG    1        5.418  -5.798  -3.619  0.00  0.00    +0.063 A 
ATOM      6  C   LIG    1        4.682  -6.587  -2.833  0.00  0.00    +0.118 A 
ATOM      7  N   LIG    1        4.048  -6.063  -1.724  0.00  0.00    -0.221 N 
ATOM      8  N   LIG    1        3.159  -6.705  -0.937  0.00  0.00    -0.173 NA
ATOM      9  C   LIG    1        2.751  -5.769  -0.086  0.00  0.00    +0.150 A 
ENDROOT
BRANCH   4  10
ATOM     10  N   LIG    1        6.321  -3.506  -4.031  0.00  0.00    -0.308 N 
ATOM     11  C   LIG    1        7.388  -3.956  -4.960  0.00  0.00    +0.110 C 
ATOM     12  C   LIG    1        8.367  -2.772  -4.998  0.00  0.00    +0.029 C 
ATOM     13  C   LIG    1        7.465  -1.575  -4.754  0.00  0.00    +0.021 C 
ATOM     14  C   LIG    1        6.525  -2.099  -3.677  0.00  0.00    +0.107 C 
BRANCH  11  15
ATOM     15  C   LIG    1        6.872  -4.267  -6.348  0.00  0.00    +0.040 A 
ATOM     16  C   LIG    1        7.799  -5.119  -7.182  0.00  0.00    +0.256 A 
ATOM     17  O   LIG    1        8.954  -5.313  -6.812  0.00  0.00    -0.267 OA
ATOM     18  N   LIG    1        7.259  -5.662  -8.351  0.00  0.00    -0.315 N 
ATOM     19  C   LIG    1        8.063  -6.595  -9.123  0.00  0.00    +0.152 C 
ATOM     20  C   LIG    1        6.064  -5.201  -8.878  0.00  0.00    +0.127 A 
ATOM     21  C   LIG    1        5.328  -4.305  -8.215  0.00  0.00    +0.140 A 
ATOM     22  F   LIG    1        4.197  -3.810  -8.752  0.00  0.00    -0.204 F 
ATOM     23  C   LIG    1        5.706  -3.878  -6.896  0.00  0.00    +0.050 A 
ENDBRANCH  11  15
ENDBRANCH   4  10
BRANCH   1  26
ATOM     24  N   LIG    1        3.760  -2.200   0.181  0.00  0.00    -0.308 N 
ATOM     25  H   LIG    1        4.206  -2.206  -0.735  0.00  0.00    +0.149 HD
ATOM     26  C   LIG    1        3.256  -3.392   0.630  0.00  0.00    +0.249 C 
ATOM     27  O   LIG    1        2.674  -3.511   1.719  0.00  0.00    -0.270 OA
BRANCH  24  29
ATOM     28  C   LIG    1        4.436  -1.101   2.280  0.00  0.00    +0.028 C 
ATOM     29  C   LIG    1        3.682  -0.964   0.953  0.00  0.00    +0.073 C 
BRANCH  29  30
ATOM     30  C   LIG    1        4.181   0.185   0.095  0.00  0.00    +0.009 C 
ATOM     31  C   LIG    1        5.513   0.865   0.334  0.00  0.00    +0.005 C 
ATOM     32  C   LIG    1        4.236   1.604   0.619  0.00  0.00    +0.005 C 
ENDBRANCH  29  30
ENDBRANCH  24  29
ENDBRANCH   1  26
TORSDOF 5
