REMARK  Name = pdb/CHEMBL3676034.pdb
REMARK                            x       y       z     vdW  Elec       q    Type
REMARK                         _______ _______ _______ _____ _____    ______ ____
ROOT
ATOM      1  C   LIG    1        6.461  -1.834  -1.806  0.00  0.00    +0.100 A 
ATOM      2  C   LIG    1        7.421  -1.413  -2.708  0.00  0.00    +0.170 A 
ATOM      3  N   LIG    1        7.338  -0.749  -3.909  0.00  0.00    -0.212 NA
ATOM      4  C   LIG    1        8.453  -0.495  -4.561  0.00  0.00    +0.126 A 
ATOM      5  C   LIG    1        9.800  -0.932  -4.028  0.00  0.00    +0.063 A 
ATOM      6  C   LIG    1        9.823  -1.582  -2.862  0.00  0.00    +0.118 A 
ATOM      7  N   LIG    1        8.646  -1.822  -2.178  0.00  0.00    -0.221 N 
ATOM      8  N   LIG    1        8.510  -2.462  -0.995  0.00  0.00    -0.173 NA
ATOM      9  C   LIG    1        7.195  -2.457  -0.775  0.00  0.00    +0.150 A 
ENDROOT
BRANCH   4  10
ATOM     10  N   LIG    1        8.401   0.191  -5.767  0.00  0.00    -0.308 N 
ATOM     11  C   LIG    1        7.153   0.401  -6.532  0.00  0.00    +0.108 C 
ATOM     12  C   LIG    1        7.669   0.530  -7.982  0.00  0.00    +0.029 C 
ATOM     13  C   LIG    1        9.029   1.186  -7.820  0.00  0.00    +0.021 C 
ATOM     14  C   LIG    1        9.573   0.504  -6.579  0.00  0.00    +0.107 C 
BRANCH  11  15
ATOM     15  C   LIG    1        6.371   1.620  -6.072  0.00  0.00    +0.011 A 
ATOM     16  C   LIG    1        5.186   1.987  -6.728  0.00  0.00    +0.129 A 
ATOM     17  F   LIG    1        4.753   1.276  -7.780  0.00  0.00    -0.205 F 
ATOM     18  C   LIG    1        4.429   3.090  -6.322  0.00  0.00    +0.041 A 
ATOM     19  C   LIG    1        4.839   3.840  -5.223  0.00  0.00    +0.041 A 
ATOM     20  C   LIG    1        5.998   3.479  -4.551  0.00  0.00    +0.124 A 
ATOM     21  F   LIG    1        6.393   4.187  -3.485  0.00  0.00    -0.205 F 
ATOM     22  C   LIG    1        6.760   2.391  -4.965  0.00  0.00    +0.046 A 
ENDBRANCH  11  15
ENDBRANCH   4  10
BRANCH   1  25
ATOM     23  N   LIG    1        4.505  -1.646  -3.142  0.00  0.00    -0.309 N 
ATOM     24  H   LIG    1        5.146  -1.476  -3.912  0.00  0.00    +0.149 HD
ATOM     25  C   LIG    1        5.018  -1.722  -1.869  0.00  0.00    +0.249 C 
ATOM     26  O   LIG    1        4.324  -1.770  -0.868  0.00  0.00    -0.270 OA
BRANCH  23  27
ATOM     27  C   LIG    1        3.081  -1.570  -3.407  0.00  0.00    +0.132 C 
BRANCH  27  28
ATOM     28  C   LIG    1        2.703  -2.359  -4.660  0.00  0.00    +0.174 C 
BRANCH  28  29
ATOM     29  O   LIG    1        3.324  -1.781  -5.807  0.00  0.00    -0.393 OA
ATOM     30  H   LIG    1        2.977  -2.253  -6.583  0.00  0.00    +0.209 HD
ENDBRANCH  28  29
ENDBRANCH  27  28
ENDBRANCH  23  27
ENDBRANCH   1  25
TORSDOF 6
