REMARK  Name = pdb/CHEMBL3671135.pdb
REMARK                            x       y       z     vdW  Elec       q    Type
REMARK                         _______ _______ _______ _____ _____    ______ ____
ROOT
ATOM      1  C   LIG    1        2.458  -3.249  -6.229  0.00  0.00    +0.100 A 
ATOM      2  C   LIG    1        2.411  -4.401  -6.998  0.00  0.00    +0.170 A 
ATOM      3  N   LIG    1        2.655  -5.717  -6.696  0.00  0.00    -0.212 NA
ATOM      4  C   LIG    1        2.601  -6.601  -7.671  0.00  0.00    +0.126 A 
ATOM      5  C   LIG    1        2.233  -6.206  -9.083  0.00  0.00    +0.063 A 
ATOM      6  C   LIG    1        1.980  -4.914  -9.315  0.00  0.00    +0.118 A 
ATOM      7  N   LIG    1        2.067  -3.991  -8.287  0.00  0.00    -0.221 N 
ATOM      8  N   LIG    1        1.860  -2.656  -8.362  0.00  0.00    -0.173 NA
ATOM      9  C   LIG    1        2.103  -2.220  -7.126  0.00  0.00    +0.150 A 
ENDROOT
BRANCH   4  10
ATOM     10  N   LIG    1        2.883  -7.932  -7.398  0.00  0.00    -0.308 N 
ATOM     11  C   LIG    1        3.124  -8.423  -6.031  0.00  0.00    +0.108 C 
ATOM     12  C   LIG    1        4.238  -9.464  -6.221  0.00  0.00    +0.029 C 
ATOM     13  C   LIG    1        3.944 -10.052  -7.590  0.00  0.00    +0.021 C 
ATOM     14  C   LIG    1        3.464  -8.844  -8.386  0.00  0.00    +0.107 C 
BRANCH  11  15
ATOM     15  C   LIG    1        1.861  -9.008  -5.424  0.00  0.00    +0.011 A 
ATOM     16  C   LIG    1        1.713  -9.029  -4.030  0.00  0.00    +0.129 A 
ATOM     17  F   LIG    1        2.685  -8.534  -3.250  0.00  0.00    -0.205 F 
ATOM     18  C   LIG    1        0.575  -9.557  -3.418  0.00  0.00    +0.041 A 
ATOM     19  C   LIG    1       -0.447 -10.090  -4.201  0.00  0.00    +0.041 A 
ATOM     20  C   LIG    1       -0.313 -10.086  -5.583  0.00  0.00    +0.124 A 
ATOM     21  F   LIG    1       -1.287 -10.603  -6.343  0.00  0.00    -0.205 F 
ATOM     22  C   LIG    1        0.820  -9.554  -6.195  0.00  0.00    +0.046 A 
ENDBRANCH  11  15
ENDBRANCH   4  10
BRANCH   1  25
ATOM     23  N   LIG    1        3.126  -4.262  -4.176  0.00  0.00    -0.308 N 
ATOM     24  H   LIG    1        3.009  -5.127  -4.701  0.00  0.00    +0.149 HD
ATOM     25  C   LIG    1        2.807  -3.096  -4.831  0.00  0.00    +0.249 C 
ATOM     26  O   LIG    1        2.829  -1.993  -4.289  0.00  0.00    -0.270 OA
BRANCH  23  30
ATOM     27  C   LIG    1        3.611  -5.707  -0.170  0.00  0.00    +0.115 C 
ATOM     28  C   LIG    1        2.684  -4.514  -0.391  0.00  0.00    +0.033 C 
ATOM     29  C   LIG    1        2.281  -4.381  -1.859  0.00  0.00    +0.025 C 
ATOM     30  C   LIG    1        3.511  -4.306  -2.776  0.00  0.00    +0.073 C 
ATOM     31  C   LIG    1        4.459  -5.485  -2.533  0.00  0.00    +0.025 C 
ATOM     32  C   LIG    1        4.845  -5.616  -1.064  0.00  0.00    +0.033 C 
BRANCH  27  33
ATOM     33  O   LIG    1        4.011  -5.731   1.195  0.00  0.00    -0.392 OA
ATOM     34  H   LIG    1        4.574  -6.514   1.323  0.00  0.00    +0.210 HD
ENDBRANCH  27  33
ENDBRANCH  23  30
ENDBRANCH   1  25
TORSDOF 5
