REMARK  Name = pdb/CHEMBL3957798.pdb
REMARK                            x       y       z     vdW  Elec       q    Type
REMARK                         _______ _______ _______ _____ _____    ______ ____
ROOT
ATOM      1  C   LIG    1        5.148   5.129  -0.310  0.00  0.00    +0.147 A 
ATOM      2  N   LIG    1        4.581   6.391  -0.298  0.00  0.00    -0.197 N 
ATOM      3  N   LIG    1        3.262   6.666  -0.059  0.00  0.00    -0.148 NA
ATOM      4  C   LIG    1        2.969   7.946  -0.034  0.00  0.00    +0.143 A 
ATOM      5  C   LIG    1        4.025   9.008  -0.226  0.00  0.00    +0.049 A 
ATOM      6  C   LIG    1        5.289   8.651  -0.471  0.00  0.00    +0.051 A 
ATOM      7  C   LIG    1        5.608   7.285  -0.533  0.00  0.00    +0.156 A 
ATOM      8  N   LIG    1        6.749   6.677  -0.768  0.00  0.00    -0.233 NA
ATOM      9  C   LIG    1        6.471   5.339  -0.642  0.00  0.00    +0.157 A 
ENDROOT
BRANCH   4  10
ATOM     10  N   LIG    1        1.660   8.350   0.184  0.00  0.00    -0.307 N 
ATOM     11  C   LIG    1        0.512   7.438   0.178  0.00  0.00    +0.108 C 
ATOM     12  C   LIG    1       -0.261   7.859   1.436  0.00  0.00    +0.029 C 
ATOM     13  C   LIG    1        0.009   9.348   1.599  0.00  0.00    +0.021 C 
ATOM     14  C   LIG    1        1.323   9.600   0.869  0.00  0.00    +0.107 C 
BRANCH  11  15
ATOM     15  C   LIG    1       -0.246   7.545  -1.136  0.00  0.00    +0.011 A 
ATOM     16  C   LIG    1        0.042   6.642  -2.171  0.00  0.00    +0.129 A 
ATOM     17  F   LIG    1        0.962   5.684  -1.988  0.00  0.00    -0.205 F 
ATOM     18  C   LIG    1       -0.624   6.688  -3.400  0.00  0.00    +0.041 A 
ATOM     19  C   LIG    1       -1.604   7.651  -3.622  0.00  0.00    +0.041 A 
ATOM     20  C   LIG    1       -1.898   8.556  -2.614  0.00  0.00    +0.124 A 
ATOM     21  F   LIG    1       -2.843   9.483  -2.811  0.00  0.00    -0.205 F 
ATOM     22  C   LIG    1       -1.232   8.514  -1.389  0.00  0.00    +0.046 A 
ENDBRANCH  11  15
ENDBRANCH   4  10
BRANCH   1  24
ATOM     23  C   LIG    1        5.125   2.670   0.010  0.00  0.00    +0.269 C 
ATOM     24  N   LIG    1        4.476   3.944  -0.021  0.00  0.00    -0.264 N 
ATOM     25  H   LIG    1        3.481   4.010   0.185  0.00  0.00    +0.157 HD
ATOM     26  O   LIG    1        6.302   2.522  -0.251  0.00  0.00    -0.268 OA
BRANCH  23  33
ATOM     27  C   LIG    1        0.860   0.380   0.173  0.00  0.00    +0.176 C 
ATOM     28  N   LIG    1        2.264   0.401   0.535  0.00  0.00    -0.232 N 
ATOM     29  C   LIG    1        2.791  -0.712   1.186  0.00  0.00    +0.267 A 
ATOM     30  O   LIG    1        2.151  -1.708   1.507  0.00  0.00    -0.266 OA
ATOM     31  C   LIG    1        4.233  -0.652   1.503  0.00  0.00    +0.074 A 
ATOM     32  C   LIG    1        4.967   0.403   1.147  0.00  0.00    +0.040 A 
ATOM     33  C   LIG    1        4.265   1.491   0.439  0.00  0.00    +0.146 A 
ATOM     34  N   LIG    1        2.997   1.516   0.164  0.00  0.00    -0.164 NA
ENDBRANCH  23  33
ENDBRANCH   1  24
TORSDOF 4
