REMARK  Name = pdb/CHEMBL3964567.pdb
REMARK                            x       y       z     vdW  Elec       q    Type
REMARK                         _______ _______ _______ _____ _____    ______ ____
ROOT
ATOM      1  C   LIG    1        9.030  -2.036  -2.794  0.00  0.00    +0.105 A 
ATOM      2  C   LIG    1       10.267  -2.138  -3.401  0.00  0.00    +0.145 A 
ATOM      3  N   LIG    1       11.047  -1.085  -3.734  0.00  0.00    -0.201 NA
ATOM      4  C   LIG    1       10.530   0.132  -3.483  0.00  0.00    +0.323 A 
ATOM      5  N   LIG    1        9.332   0.364  -2.930  0.00  0.00    -0.201 NA
ATOM      6  C   LIG    1        8.603  -0.731  -2.635  0.00  0.00    +0.145 A 
ENDROOT
BRANCH   1   8
ATOM      7  C   LIG    1        7.650  -3.340  -1.382  0.00  0.00    +0.286 C 
ATOM      8  N   LIG    1        8.297  -3.183  -2.487  0.00  0.00    -0.196 NA
BRANCH   7   9
ATOM      9  N   LIG    1        7.457  -2.486  -0.326  0.00  0.00    -0.254 N 
ATOM     10  H   LIG    1        7.862  -1.569  -0.470  0.00  0.00    +0.158 HD
BRANCH   9  12
ATOM     11  N   LIG    1        6.494  -1.770   1.786  0.00  0.00    -0.218 N 
ATOM     12  C   LIG    1        7.128  -2.719   0.979  0.00  0.00    +0.130 A 
ATOM     13  C   LIG    1        7.428  -3.778   1.800  0.00  0.00    +0.069 A 
ATOM     14  C   LIG    1        7.093  -3.349   3.108  0.00  0.00    +0.071 A 
ATOM     15  N   LIG    1        6.595  -2.103   3.102  0.00  0.00    -0.169 NA
BRANCH  11  21
ATOM     16  C   LIG    1        3.428   2.820   0.159  0.00  0.00    +0.044 C 
ATOM     17  C   LIG    1        4.252   1.643   0.609  0.00  0.00    -0.047 A 
ATOM     18  C   LIG    1        4.821   1.582   1.897  0.00  0.00    -0.046 A 
ATOM     19  C   LIG    1        4.685   2.729   2.862  0.00  0.00    +0.044 C 
ATOM     20  C   LIG    1        5.560   0.443   2.277  0.00  0.00    +0.031 A 
ATOM     21  C   LIG    1        5.751  -0.620   1.382  0.00  0.00    +0.068 A 
ATOM     22  C   LIG    1        5.161  -0.560   0.114  0.00  0.00    +0.028 A 
ATOM     23  C   LIG    1        4.415   0.558  -0.263  0.00  0.00    +0.006 A 
ENDBRANCH  11  21
BRANCH  14  24
ATOM     24  C   LIG    1        7.260  -4.126   4.405  0.00  0.00    +0.006 C 
ATOM     25  C   LIG    1        7.468  -3.175   5.602  0.00  0.00    +0.017 C 
ATOM     26  C   LIG    1        8.483  -5.067   4.335  0.00  0.00    +0.017 C 
ATOM     27  C   LIG    1        6.004  -4.980   4.661  0.00  0.00    +0.017 C 
ENDBRANCH  14  24
ENDBRANCH   9  12
ENDBRANCH   7   9
BRANCH   7  28
ATOM     28  O   LIG    1        6.992  -4.512  -1.284  0.00  0.00    -0.481 OA
ATOM     29  H   LIG    1        6.378  -4.515  -0.539  0.00  0.00    +0.295 HD
ENDBRANCH   7  28
ENDBRANCH   1   8
BRANCH   4  30
ATOM     30  O   LIG    1       11.257   1.272  -3.771  0.00  0.00    -0.424 OA
BRANCH  30  31
ATOM     31  C   LIG    1       12.113   1.242  -4.841  0.00  0.00    +0.132 A 
ATOM     32  C   LIG    1       11.887   0.517  -6.011  0.00  0.00    +0.047 A 
ATOM     33  C   LIG    1       12.826   0.537  -7.047  0.00  0.00    +0.012 A 
ATOM     34  C   LIG    1       13.980   1.324  -6.955  0.00  0.00    -0.010 A 
ATOM     35  C   LIG    1       14.154   2.096  -5.789  0.00  0.00    +0.012 A 
ATOM     36  C   LIG    1       13.234   2.056  -4.742  0.00  0.00    +0.047 A 
BRANCH  34  37
ATOM     37  C   LIG    1       14.966   1.336  -8.047  0.00  0.00    +0.041 A 
ATOM     38  S   LIG    1       16.340   2.356  -7.974  0.00  0.00    -0.052 S 
ATOM     39  C   LIG    1       16.870   1.812  -9.488  0.00  0.00    +0.168 A 
ATOM     40  N   LIG    1       16.144   0.870 -10.039  0.00  0.00    -0.232 NA
ATOM     41  C   LIG    1       15.030   0.629  -9.240  0.00  0.00    +0.129 A 
BRANCH  39  42
ATOM     42  N   LIG    1       18.051   2.303 -10.007  0.00  0.00    -0.250 N 
ATOM     43  C   LIG    1       18.638   3.512  -9.615  0.00  0.00    +0.221 C 
ATOM     44  O   LIG    1       18.257   4.354  -8.817  0.00  0.00    -0.275 OA
ATOM     45  C   LIG    1       19.880   3.700 -10.449  0.00  0.00    +0.098 C 
ATOM     46  C   LIG    1       20.139   2.309 -11.001  0.00  0.00    +0.029 C 
ATOM     47  C   LIG    1       18.749   1.719 -11.120  0.00  0.00    +0.116 C 
ENDBRANCH  39  42
ENDBRANCH  34  37
ENDBRANCH  30  31
ENDBRANCH   4  30
TORSDOF 10
