REMARK  Name = pdb/CHEMBL3671150.pdb
REMARK                            x       y       z     vdW  Elec       q    Type
REMARK                         _______ _______ _______ _____ _____    ______ ____
ROOT
ATOM      1  C   LIG    1        5.379   6.043   0.118  0.00  0.00    +0.100 A 
ATOM      2  C   LIG    1        4.343   6.835  -0.349  0.00  0.00    +0.170 A 
ATOM      3  N   LIG    1        3.024   6.566  -0.632  0.00  0.00    -0.212 NA
ATOM      4  C   LIG    1        2.264   7.552  -1.068  0.00  0.00    +0.126 A 
ATOM      5  C   LIG    1        2.823   8.940  -1.290  0.00  0.00    +0.063 A 
ATOM      6  C   LIG    1        4.109   9.147  -0.995  0.00  0.00    +0.118 A 
ATOM      7  N   LIG    1        4.888   8.109  -0.520  0.00  0.00    -0.221 N 
ATOM      8  N   LIG    1        6.197   8.161  -0.184  0.00  0.00    -0.173 NA
ATOM      9  C   LIG    1        6.484   6.916   0.192  0.00  0.00    +0.150 A 
ENDROOT
BRANCH   4  10
ATOM     10  N   LIG    1        0.920   7.314  -1.335  0.00  0.00    -0.308 N 
ATOM     11  C   LIG    1       -0.114   8.361  -1.271  0.00  0.00    +0.108 C 
ATOM     12  C   LIG    1       -1.249   7.667  -0.506  0.00  0.00    +0.029 C 
ATOM     13  C   LIG    1       -1.190   6.245  -1.032  0.00  0.00    +0.021 C 
ATOM     14  C   LIG    1        0.311   5.987  -1.152  0.00  0.00    +0.107 C 
BRANCH  11  15
ATOM     15  C   LIG    1       -0.536   8.851  -2.645  0.00  0.00    +0.011 A 
ATOM     16  C   LIG    1       -1.544   9.823  -2.737  0.00  0.00    +0.129 A 
ATOM     17  F   LIG    1       -2.086  10.324  -1.617  0.00  0.00    -0.205 F 
ATOM     18  C   LIG    1       -2.002  10.299  -3.964  0.00  0.00    +0.041 A 
ATOM     19  C   LIG    1       -1.439   9.815  -5.141  0.00  0.00    +0.041 A 
ATOM     20  C   LIG    1       -0.416   8.877  -5.069  0.00  0.00    +0.124 A 
ATOM     21  F   LIG    1        0.145   8.430  -6.200  0.00  0.00    -0.205 F 
ATOM     22  C   LIG    1        0.042   8.398  -3.842  0.00  0.00    +0.046 A 
ENDBRANCH  11  15
ENDBRANCH   4  10
BRANCH   1  25
ATOM     23  N   LIG    1        4.176   3.996   0.308  0.00  0.00    -0.307 N 
ATOM     24  H   LIG    1        3.361   4.565   0.096  0.00  0.00    +0.149 HD
ATOM     25  C   LIG    1        5.386   4.633   0.450  0.00  0.00    +0.249 C 
ATOM     26  O   LIG    1        6.400   4.064   0.822  0.00  0.00    -0.270 OA
BRANCH  23  27
ATOM     27  C   LIG    1        4.039   2.589   0.571  0.00  0.00    +0.143 C 
BRANCH  27  32
ATOM     28  C   LIG    1        1.391   0.524  -3.159  0.00  0.00    +0.172 C 
ATOM     29  N   LIG    1        1.799   1.135  -1.918  0.00  0.00    -0.274 N 
ATOM     30  N   LIG    1        0.878   1.387  -0.969  0.00  0.00    -0.180 NA
ATOM     31  C   LIG    1        1.588   1.936   0.019  0.00  0.00    +0.139 A 
ATOM     32  C   LIG    1        2.962   2.044  -0.288  0.00  0.00    +0.007 A 
ATOM     33  C   LIG    1        3.061   1.502  -1.556  0.00  0.00    +0.113 A 
ENDBRANCH  27  32
ENDBRANCH  23  27
ENDBRANCH   1  25
TORSDOF 5
