REMARK  Name = pdb/CHEMBL3905382.pdb
REMARK                            x       y       z     vdW  Elec       q    Type
REMARK                         _______ _______ _______ _____ _____    ______ ____
ROOT
ATOM      1  C   LIG    1        4.200   4.601   2.222  0.00  0.00    +0.133 A 
ATOM      2  C   LIG    1        3.799   5.858   2.641  0.00  0.00    +0.183 A 
ATOM      3  N   LIG    1        2.837   6.355   3.529  0.00  0.00    -0.211 NA
ATOM      4  C   LIG    1        2.580   7.648   3.541  0.00  0.00    +0.126 A 
ATOM      5  C   LIG    1        3.384   8.587   2.646  0.00  0.00    +0.063 A 
ATOM      6  C   LIG    1        4.346   8.075   1.871  0.00  0.00    +0.118 A 
ATOM      7  N   LIG    1        4.582   6.719   1.866  0.00  0.00    -0.220 N 
ATOM      8  N   LIG    1        5.527   6.081   1.133  0.00  0.00    -0.171 NA
ATOM      9  C   LIG    1        5.281   4.785   1.363  0.00  0.00    +0.165 A 
ENDROOT
BRANCH   4  10
ATOM     10  N   LIG    1        1.545   8.191   4.349  0.00  0.00    -0.308 N 
ATOM     11  C   LIG    1        1.360   7.782   5.776  0.00  0.00    +0.106 C 
ATOM     12  C   LIG    1        1.780   9.066   6.533  0.00  0.00    +0.029 C 
ATOM     13  C   LIG    1        1.693  10.217   5.543  0.00  0.00    +0.021 C 
ATOM     14  C   LIG    1        1.156   9.604   4.268  0.00  0.00    +0.107 C 
BRANCH  11  15
ATOM     15  C   LIG    1       -0.084   7.417   6.184  0.00  0.00    -0.013 A 
ATOM     16  C   LIG    1       -0.447   7.132   7.541  0.00  0.00    +0.060 A 
ATOM     17  C   LIG    1       -1.796   6.832   7.848  0.00  0.00    +0.015 A 
ATOM     18  C   LIG    1       -2.772   6.784   6.861  0.00  0.00    +0.039 A 
ATOM     19  C   LIG    1       -2.415   7.032   5.547  0.00  0.00    +0.124 A 
ATOM     20  F   LIG    1       -3.353   6.969   4.593  0.00  0.00    -0.205 F 
ATOM     21  C   LIG    1       -1.100   7.339   5.205  0.00  0.00    +0.044 A 
BRANCH  16  22
ATOM     22  C   LIG    1        0.481   7.090   8.751  0.00  0.00    +0.418 C 
ATOM     23  F   LIG    1        0.498   5.860   9.339  0.00  0.00    -0.166 F 
ATOM     24  F   LIG    1        0.066   7.948   9.731  0.00  0.00    -0.166 F 
ATOM     25  F   LIG    1        1.784   7.400   8.528  0.00  0.00    -0.166 F 
ENDBRANCH  16  22
ENDBRANCH  11  15
ENDBRANCH   4  10
BRANCH   1  27
ATOM     26  C   LIG    1        4.005   2.245   2.338  0.00  0.00    +0.283 C 
ATOM     27  N   LIG    1        3.585   3.402   2.628  0.00  0.00    -0.194 NA
BRANCH  26  30
ATOM     28  C   LIG    1        5.047  -0.605   0.998  0.00  0.00    +0.133 C 
ATOM     29  C   LIG    1        5.663   0.405   1.980  0.00  0.00    +0.140 C 
ATOM     30  N   LIG    1        5.072   1.695   1.568  0.00  0.00    -0.283 N 
ATOM     31  C   LIG    1        4.870   1.623   0.100  0.00  0.00    +0.112 C 
ATOM     32  C   LIG    1        5.129   0.162  -0.308  0.00  0.00    +0.052 C 
BRANCH  28  33
ATOM     33  O   LIG    1        3.673  -0.835   1.334  0.00  0.00    -0.390 OA
ATOM     34  H   LIG    1        3.634  -1.551   1.998  0.00  0.00    +0.210 HD
ENDBRANCH  28  33
ENDBRANCH  26  30
BRANCH  26  35
ATOM     35  O   LIG    1        3.235   1.274   2.878  0.00  0.00    -0.481 OA
ATOM     36  H   LIG    1        3.396   0.431   2.459  0.00  0.00    +0.295 HD
ENDBRANCH  26  35
ENDBRANCH   1  27
TORSDOF 7
