REMARK  Name = pdb/CHEMBL3675912.pdb
REMARK                            x       y       z     vdW  Elec       q    Type
REMARK                         _______ _______ _______ _____ _____    ______ ____
ROOT
ATOM      1  C   LIG    1        2.694  -1.284  -1.233  0.00  0.00    +0.126 A 
ATOM      2  N   LIG    1        1.928  -0.267  -1.594  0.00  0.00    -0.212 NA
ATOM      3  C   LIG    1        0.667  -0.529  -2.079  0.00  0.00    +0.170 A 
ATOM      4  C   LIG    1       -0.417   0.284  -2.375  0.00  0.00    +0.100 A 
ATOM      5  C   LIG    1       -1.381  -0.595  -2.911  0.00  0.00    +0.150 A 
ATOM      6  N   LIG    1       -0.991  -1.870  -2.897  0.00  0.00    -0.173 NA
ATOM      7  N   LIG    1        0.229  -1.832  -2.314  0.00  0.00    -0.221 N 
ATOM      8  C   LIG    1        0.994  -2.906  -1.903  0.00  0.00    +0.118 A 
ATOM      9  C   LIG    1        2.180  -2.704  -1.319  0.00  0.00    +0.063 A 
ENDROOT
BRANCH   1  11
ATOM     10  C   LIG    1        4.771  -1.884   0.143  0.00  0.00    +0.105 C 
ATOM     11  N   LIG    1        3.997  -1.027  -0.795  0.00  0.00    -0.308 N 
ATOM     12  C   LIG    1        4.530   0.343  -0.779  0.00  0.00    +0.107 C 
ATOM     13  C   LIG    1        5.400   0.414   0.466  0.00  0.00    +0.021 C 
ATOM     14  C   LIG    1        5.948  -0.995   0.587  0.00  0.00    +0.029 C 
BRANCH  10  16
ATOM     15  C   LIG    1        5.456  -4.384   0.329  0.00  0.00    -0.017 A 
ATOM     16  C   LIG    1        5.270  -3.205  -0.449  0.00  0.00    -0.019 A 
ATOM     17  C   LIG    1        5.547  -3.280  -1.831  0.00  0.00    +0.044 A 
ATOM     18  C   LIG    1        5.927  -4.480  -2.427  0.00  0.00    +0.124 A 
ATOM     19  F   LIG    1        6.122  -4.526  -3.751  0.00  0.00    -0.205 F 
ATOM     20  C   LIG    1        6.087  -5.631  -1.677  0.00  0.00    +0.039 A 
ATOM     21  C   LIG    1        5.865  -5.581  -0.304  0.00  0.00    +0.009 A 
BRANCH  15  22
ATOM     22  C   LIG    1        5.236  -4.450   1.825  0.00  0.00    +0.191 C 
BRANCH  22  23
ATOM     23  O   LIG    1        3.897  -4.124   2.156  0.00  0.00    -0.390 OA
ATOM     24  H   LIG    1        3.324  -4.542   1.490  0.00  0.00    +0.210 HD
ENDBRANCH  22  23
ENDBRANCH  15  22
ENDBRANCH  10  16
ENDBRANCH   1  11
BRANCH   4  25
ATOM     25  C   LIG    1       -0.582   1.712  -2.187  0.00  0.00    +0.249 C 
ATOM     26  N   LIG    1        0.497   2.344  -1.610  0.00  0.00    -0.308 N 
ATOM     27  H   LIG    1        1.266   1.751  -1.306  0.00  0.00    +0.149 HD
ATOM     28  O   LIG    1       -1.611   2.291  -2.496  0.00  0.00    -0.270 OA
BRANCH  26  29
ATOM     29  C   LIG    1        0.493   3.760  -1.301  0.00  0.00    +0.073 C 
ATOM     30  C   LIG    1       -0.119   4.026   0.080  0.00  0.00    +0.025 C 
ATOM     31  C   LIG    1       -0.082   5.515   0.428  0.00  0.00    +0.033 C 
ATOM     32  C   LIG    1        1.320   6.114   0.308  0.00  0.00    +0.115 C 
ATOM     33  C   LIG    1        1.977   5.797  -1.035  0.00  0.00    +0.033 C 
ATOM     34  C   LIG    1        1.918   4.312  -1.389  0.00  0.00    +0.025 C 
BRANCH  32  35
ATOM     35  O   LIG    1        2.145   5.648   1.374  0.00  0.00    -0.392 OA
ATOM     36  H   LIG    1        2.264   4.689   1.286  0.00  0.00    +0.210 HD
ENDBRANCH  32  35
ENDBRANCH  26  29
ENDBRANCH   4  25
TORSDOF 7
