REMARK  Name = pdb/CHEMBL2152286.pdb
REMARK                            x       y       z     vdW  Elec       q    Type
REMARK                         _______ _______ _______ _____ _____    ______ ____
ROOT
ATOM      1  C   LIG    1        9.013  -1.708  -0.665  0.00  0.00    +0.050 A 
ATOM      2  C   LIG    1        9.494  -2.973  -1.019  0.00  0.00    +0.033 A 
ATOM      3  C   LIG    1       10.772  -3.135  -1.584  0.00  0.00    -0.013 A 
ATOM      4  C   LIG    1       11.529  -1.962  -1.787  0.00  0.00    +0.031 A 
ATOM      5  C   LIG    1       11.027  -0.682  -1.504  0.00  0.00    +0.027 A 
ATOM      6  C   LIG    1        9.777  -0.570  -0.901  0.00  0.00    +0.047 A 
ENDROOT
BRANCH   3   7
ATOM      7  C   LIG    1       11.299  -4.478  -1.944  0.00  0.00    +0.001 A 
ATOM      8  C   LIG    1       10.458  -5.524  -2.372  0.00  0.00    +0.022 A 
ATOM      9  C   LIG    1       11.003  -6.789  -2.689  0.00  0.00    +0.027 A 
ATOM     10  C   LIG    1       10.508  -8.061  -3.145  0.00  0.00    +0.009 A 
ATOM     11  C   LIG    1       11.613  -8.891  -3.271  0.00  0.00    +0.093 A 
ATOM     12  N   LIG    1       12.733  -8.180  -2.926  0.00  0.00    -0.345 N 
ATOM     13  H   LIG    1       13.684  -8.518  -2.925  0.00  0.00    +0.167 HD
ATOM     14  C   LIG    1       12.382  -6.909  -2.572  0.00  0.00    +0.139 A 
ATOM     15  N   LIG    1       13.260  -5.969  -2.187  0.00  0.00    -0.237 NA
ATOM     16  C   LIG    1       12.665  -4.786  -1.884  0.00  0.00    +0.121 A 
BRANCH  10  17
ATOM     17  C   LIG    1        9.148  -8.511  -3.439  0.00  0.00    -0.013 A 
ATOM     18  C   LIG    1        8.906  -9.495  -4.402  0.00  0.00    +0.028 A 
ATOM     19  C   LIG    1        7.600  -9.894  -4.640  0.00  0.00    +0.111 A 
ATOM     20  N   LIG    1        6.531  -9.381  -4.000  0.00  0.00    -0.263 NA
ATOM     21  C   LIG    1        6.781  -8.430  -3.078  0.00  0.00    +0.111 A 
ATOM     22  C   LIG    1        8.052  -7.974  -2.761  0.00  0.00    +0.028 A 
ENDBRANCH  10  17
ENDBRANCH   3   7
BRANCH   5  23
ATOM     23  N   LIG    1       11.861   0.438  -1.609  0.00  0.00    -0.358 N 
ATOM     24  H   LIG    1       12.590   0.351  -2.311  0.00  0.00    +0.142 HD
ATOM     25  H   LIG    1       11.365   1.321  -1.683  0.00  0.00    +0.142 HD
ENDBRANCH   5  23
BRANCH   1  26
ATOM     26  N   LIG    1        7.699  -1.581  -0.130  0.00  0.00    -0.216 N 
ATOM     27  H   LIG    1        7.427  -2.243   0.597  0.00  0.00    +0.174 HD
BRANCH  26  28
ATOM     28  S   LIG    1        6.435  -1.356  -1.237  0.00  0.00    +0.072 S 
ATOM     29  O   LIG    1        6.805  -1.930  -2.516  0.00  0.00    -0.150 OA
ATOM     30  O   LIG    1        5.229  -1.772  -0.560  0.00  0.00    -0.150 OA
BRANCH  28  35
ATOM     31  C   LIG    1        6.114   4.662  -1.958  0.00  0.00    +0.044 C 
ATOM     32  C   LIG    1        6.233   3.180  -1.751  0.00  0.00    -0.050 A 
ATOM     33  C   LIG    1        5.472   2.549  -0.755  0.00  0.00    +0.005 A 
ATOM     34  C   LIG    1        5.540   1.165  -0.580  0.00  0.00    +0.029 A 
ATOM     35  C   LIG    1        6.378   0.410  -1.406  0.00  0.00    +0.109 A 
ATOM     36  C   LIG    1        7.127   1.025  -2.412  0.00  0.00    +0.029 A 
ATOM     37  C   LIG    1        7.059   2.408  -2.577  0.00  0.00    +0.005 A 
ENDBRANCH  28  35
ENDBRANCH  26  28
ENDBRANCH   1  26
TORSDOF 6
