REMARK  Name = pdb/CHEMBL3671419.pdb
REMARK                            x       y       z     vdW  Elec       q    Type
REMARK                         _______ _______ _______ _____ _____    ______ ____
ROOT
ATOM      1  C   LIG    1        2.989   4.445   2.637  0.00  0.00    +0.042 A 
ATOM      2  C   LIG    1        3.103   5.768   3.101  0.00  0.00    +0.038 A 
ATOM      3  C   LIG    1        3.025   6.836   2.196  0.00  0.00    +0.052 A 
ATOM      4  C   LIG    1        2.735   6.524   0.871  0.00  0.00    +0.134 A 
ATOM      5  N   LIG    1        2.670   5.260   0.387  0.00  0.00    -0.261 NA
ATOM      6  C   LIG    1        2.855   4.256   1.273  0.00  0.00    +0.122 A 
ENDROOT
BRANCH   3   7
ATOM      7  N   LIG    1        3.287   8.145   2.662  0.00  0.00    -0.284 N 
ATOM      8  H   LIG    1        3.612   8.211   3.620  0.00  0.00    +0.155 HD
ATOM      9  C   LIG    1        3.292   9.306   1.904  0.00  0.00    +0.222 C 
ATOM     10  O   LIG    1        3.061   9.357   0.697  0.00  0.00    -0.275 OA
BRANCH   9  11
ATOM     11  C   LIG    1        3.606  10.605   2.643  0.00  0.00    +0.131 C 
BRANCH  11  12
ATOM     12  C   LIG    1        3.835  10.484   4.131  0.00  0.00    -0.039 A 
ATOM     13  C   LIG    1        2.754  10.511   5.024  0.00  0.00    +0.005 A 
ATOM     14  C   LIG    1        2.957  10.259   6.382  0.00  0.00    +0.020 A 
ATOM     15  C   LIG    1        4.245  10.020   6.858  0.00  0.00    +0.041 A 
ATOM     16 CL   LIG    1        4.495   9.714   8.532  0.00  0.00    -0.084 Cl
ATOM     17  C   LIG    1        5.331  10.026   5.986  0.00  0.00    +0.020 A 
ATOM     18  C   LIG    1        5.126  10.243   4.623  0.00  0.00    +0.005 A 
ENDBRANCH  11  12
ENDBRANCH   9  11
ENDBRANCH   3   7
BRANCH   1  19
ATOM     19  C   LIG    1        3.102   3.298   3.567  0.00  0.00    +0.197 C 
ATOM     20  O   LIG    1        3.794   3.454   4.586  0.00  0.00    -0.287 OA
BRANCH  19  28
ATOM     21  N   LIG    1        0.838   0.518   2.686  0.00  0.00    -0.326 N 
ATOM     22  C   LIG    1        1.792  -0.168   3.415  0.00  0.00    +0.145 A 
ATOM     23  N   LIG    1        1.790  -1.486   3.696  0.00  0.00    -0.218 NA
ATOM     24  C   LIG    1        2.867  -1.855   4.417  0.00  0.00    +0.223 A 
ATOM     25  N   LIG    1        3.879  -1.083   4.855  0.00  0.00    -0.243 NA
ATOM     26  C   LIG    1        3.832   0.234   4.561  0.00  0.00    +0.124 A 
ATOM     27  C   LIG    1        2.768   0.744   3.814  0.00  0.00    +0.048 A 
ATOM     28  C   LIG    1        2.407   2.033   3.319  0.00  0.00    +0.051 A 
ATOM     29  C   LIG    1        1.242   1.841   2.598  0.00  0.00    +0.100 A 
BRANCH  21  31
ATOM     30  C   LIG    1       -1.346  -0.633   3.147  0.00  0.00    +0.034 C 
ATOM     31  C   LIG    1       -0.397  -0.043   2.080  0.00  0.00    +0.039 C 
ATOM     32  C   LIG    1       -1.204   1.049   1.328  0.00  0.00    +0.034 C 
ATOM     33  C   LIG    1       -0.060  -1.145   1.056  0.00  0.00    +0.034 C 
ENDBRANCH  21  31
ENDBRANCH  19  28
ENDBRANCH   1  19
TORSDOF 6
