REMARK  Name = pdb/CHEMBL3929612.pdb
REMARK                            x       y       z     vdW  Elec       q    Type
REMARK                         _______ _______ _______ _____ _____    ______ ____
ROOT
ATOM      1  N   LIG    1       14.915  -3.864   2.301  0.00  0.00    -0.198 NA
ATOM      2  C   LIG    1       15.416  -4.539   1.316  0.00  0.00    +0.285 C 
ENDROOT
BRANCH   1   6
ATOM      3  C   LIG    1       12.824  -0.279   2.173  0.00  0.00    +0.221 A 
ATOM      4  N   LIG    1       12.479  -1.210   3.090  0.00  0.00    -0.219 NA
ATOM      5  C   LIG    1       13.214  -2.349   3.105  0.00  0.00    +0.142 A 
ATOM      6  C   LIG    1       14.249  -2.639   2.214  0.00  0.00    +0.087 A 
ATOM      7  C   LIG    1       14.596  -1.618   1.329  0.00  0.00    +0.034 A 
ATOM      8  C   LIG    1       13.849  -0.447   1.263  0.00  0.00    +0.070 A 
BRANCH   3   9
ATOM      9  O   LIG    1       12.160   0.940   2.128  0.00  0.00    -0.438 OA
BRANCH   9  13
ATOM     10  C   LIG    1       10.698   2.632   5.672  0.00  0.00    -0.010 A 
ATOM     11  C   LIG    1       10.123   2.914   4.423  0.00  0.00    +0.012 A 
ATOM     12  C   LIG    1       10.636   2.341   3.253  0.00  0.00    +0.047 A 
ATOM     13  C   LIG    1       11.731   1.481   3.318  0.00  0.00    +0.130 A 
ATOM     14  C   LIG    1       12.351   1.251   4.543  0.00  0.00    +0.047 A 
ATOM     15  C   LIG    1       11.817   1.789   5.709  0.00  0.00    +0.012 A 
BRANCH  10  18
ATOM     16  C   LIG    1        9.892   4.036   9.291  0.00  0.00    +0.156 A 
ATOM     17  S   LIG    1       11.242   3.477   8.282  0.00  0.00    -0.053 S 
ATOM     18  C   LIG    1       10.175   3.213   6.910  0.00  0.00    +0.038 A 
ATOM     19  C   LIG    1        8.920   3.583   7.219  0.00  0.00    +0.100 A 
ATOM     20  N   LIG    1        8.772   4.067   8.495  0.00  0.00    -0.342 N 
ATOM     21  H   LIG    1        7.868   4.258   8.897  0.00  0.00    +0.167 HD
BRANCH  16  22
ATOM     22  N   LIG    1        9.936   4.329  10.532  0.00  0.00    -0.229 NA
BRANCH  22  24
ATOM     23  C   LIG    1       11.240   5.213  12.378  0.00  0.00    +0.026 C 
ATOM     24  C   LIG    1       11.198   4.189  11.259  0.00  0.00    +0.126 C 
ENDBRANCH  22  24
ENDBRANCH  16  22
ENDBRANCH  10  18
ENDBRANCH   9  13
ENDBRANCH   3   9
ENDBRANCH   1   6
BRANCH   2  25
ATOM     25  N   LIG    1       16.073  -5.726   1.401  0.00  0.00    -0.267 N 
ATOM     26  H   LIG    1       16.329  -6.108   0.497  0.00  0.00    +0.157 HD
BRANCH  25  27
ATOM     27  C   LIG    1       15.800  -6.724   2.358  0.00  0.00    +0.061 A 
ATOM     28  C   LIG    1       16.763  -7.666   2.775  0.00  0.00    +0.092 A 
ATOM     29  N   LIG    1       16.437  -8.659   3.659  0.00  0.00    -0.253 NA
ATOM     30  C   LIG    1       15.183  -8.717   4.159  0.00  0.00    +0.124 A 
ATOM     31  C   LIG    1       14.181  -7.837   3.814  0.00  0.00    +0.075 A 
ATOM     32  C   LIG    1       14.501  -6.847   2.887  0.00  0.00    +0.039 A 
BRANCH  28  33
ATOM     33  C   LIG    1       18.197  -7.701   2.363  0.00  0.00    +0.002 A 
ATOM     34  C   LIG    1       18.915  -8.915   2.418  0.00  0.00    +0.013 A 
ATOM     35  C   LIG    1       20.287  -9.020   2.111  0.00  0.00    -0.047 A 
ATOM     36  C   LIG    1       20.963 -10.343   2.358  0.00  0.00    +0.044 C 
ATOM     37  C   LIG    1       20.982  -7.874   1.698  0.00  0.00    -0.047 A 
ATOM     38  C   LIG    1       22.450  -7.898   1.370  0.00  0.00    +0.044 C 
ATOM     39  C   LIG    1       20.294  -6.653   1.653  0.00  0.00    +0.004 A 
ATOM     40  C   LIG    1       18.934  -6.568   1.989  0.00  0.00    +0.010 A 
ENDBRANCH  28  33
BRANCH  31  41
ATOM     41  C   LIG    1       12.825  -7.959   4.427  0.00  0.00    +0.419 C 
ATOM     42  F   LIG    1       12.852  -7.839   5.782  0.00  0.00    -0.166 F 
ATOM     43  F   LIG    1       12.242  -9.162   4.169  0.00  0.00    -0.166 F 
ATOM     44  F   LIG    1       11.942  -7.018   3.988  0.00  0.00    -0.166 F 
ENDBRANCH  31  41
ENDBRANCH  25  27
ENDBRANCH   2  25
BRANCH   2  45
ATOM     45  O   LIG    1       15.357  -4.174   0.023  0.00  0.00    -0.481 OA
ATOM     46  H   LIG    1       14.766  -3.422  -0.112  0.00  0.00    +0.295 HD
ENDBRANCH   2  45
TORSDOF 11
