REMARK  Name = pdb/CHEMBL3675955.pdb
REMARK                            x       y       z     vdW  Elec       q    Type
REMARK                         _______ _______ _______ _____ _____    ______ ____
ROOT
ATOM      1  C   LIG    1        5.000  -3.432   1.252  0.00  0.00    +0.100 A 
ATOM      2  C   LIG    1        6.008  -3.886   2.086  0.00  0.00    +0.170 A 
ATOM      3  N   LIG    1        6.995  -3.230   2.775  0.00  0.00    -0.212 NA
ATOM      4  C   LIG    1        7.850  -3.945   3.477  0.00  0.00    +0.126 A 
ATOM      5  C   LIG    1        7.767  -5.454   3.527  0.00  0.00    +0.063 A 
ATOM      6  C   LIG    1        6.774  -6.040   2.851  0.00  0.00    +0.118 A 
ATOM      7  N   LIG    1        5.887  -5.276   2.114  0.00  0.00    -0.221 N 
ATOM      8  N   LIG    1        4.855  -5.716   1.359  0.00  0.00    -0.173 NA
ATOM      9  C   LIG    1        4.351  -4.608   0.821  0.00  0.00    +0.150 A 
ENDROOT
BRANCH   4  10
ATOM     10  N   LIG    1        8.843  -3.291   4.202  0.00  0.00    -0.308 N 
ATOM     11  C   LIG    1        9.302  -3.798   5.505  0.00  0.00    +0.107 C 
ATOM     12  C   LIG    1        9.177  -2.577   6.419  0.00  0.00    +0.029 C 
ATOM     13  C   LIG    1        9.529  -1.411   5.514  0.00  0.00    +0.021 C 
ATOM     14  C   LIG    1        8.973  -1.824   4.153  0.00  0.00    +0.107 C 
BRANCH  11  15
ATOM     15  C   LIG    1       10.701  -4.395   5.439  0.00  0.00    -0.001 A 
ATOM     16  CA  LIG    1       11.126  -5.412   6.317  0.00  0.00    +0.072 A 
ATOM     17  N   LIG    1       12.390  -5.938   6.289  0.00  0.00    -0.254 NA
ATOM     18  C   LIG    1       13.261  -5.451   5.376  0.00  0.00    +0.149 A 
ATOM     19  C   LIG    1       12.925  -4.479   4.462  0.00  0.00    +0.142 A 
ATOM     20  F   LIG    1       13.816  -4.047   3.561  0.00  0.00    -0.204 F 
ATOM     21  C   LIG    1       11.643  -3.952   4.489  0.00  0.00    +0.047 A 
BRANCH  16  22
ATOM     22  C   LIG    1       10.232  -6.021   7.381  0.00  0.00    +0.211 C 
BRANCH  22  23
ATOM     23  O   LIG    1       10.571  -7.388   7.621  0.00  0.00    -0.389 OA
ATOM     24  H   LIG    1       11.331  -7.580   7.036  0.00  0.00    +0.210 HD
ENDBRANCH  22  23
ENDBRANCH  16  22
ENDBRANCH  11  15
ENDBRANCH   4  10
BRANCH   1  27
ATOM     25  N   LIG    1        4.996  -1.110   1.800  0.00  0.00    -0.306 N 
ATOM     26  H   LIG    1        5.365  -1.449   2.685  0.00  0.00    +0.150 HD
ATOM     27  C   LIG    1        4.690  -2.076   0.867  0.00  0.00    +0.250 C 
ATOM     28  O   LIG    1        4.138  -1.840  -0.215  0.00  0.00    -0.270 OA
BRANCH  25  30
ATOM     29  C   LIG    1        5.563   0.877   0.441  0.00  0.00    +0.031 C 
ATOM     30  C   LIG    1        4.756   0.330   1.631  0.00  0.00    +0.026 C 
ATOM     31  C   LIG    1        3.260   0.600   1.408  0.00  0.00    +0.031 C 
ATOM     32  C   LIG    1        5.191   1.081   2.905  0.00  0.00    +0.031 C 
ENDBRANCH  25  30
ENDBRANCH   1  27
TORSDOF 6
