REMARK  Name = pdb/CHEMBL3961852.pdb
REMARK                            x       y       z     vdW  Elec       q    Type
REMARK                         _______ _______ _______ _____ _____    ______ ____
ROOT
ATOM      1  N   LIG    1        6.528   0.972  -1.634  0.00  0.00    -0.266 N 
ATOM      2  H   LIG    1        6.974   1.876  -1.840  0.00  0.00    +0.157 HD
ATOM      3  C   LIG    1        5.815   0.278  -2.670  0.00  0.00    +0.251 C 
ATOM      4  O   LIG    1        5.318  -0.825  -2.449  0.00  0.00    -0.270 OA
ENDROOT
BRANCH   3   5
ATOM      5  C   LIG    1        5.723   0.866  -4.032  0.00  0.00    +0.056 A 
ATOM      6  C   LIG    1        5.684   2.233  -4.306  0.00  0.00    +0.054 A 
ATOM      7 CL   LIG    1        5.739   3.441  -3.080  0.00  0.00    -0.083 Cl
ATOM      8  C   LIG    1        5.588   2.667  -5.633  0.00  0.00    +0.041 A 
ATOM      9  C   LIG    1        5.552   1.758  -6.706  0.00  0.00    +0.052 A 
ATOM     10 CL   LIG    1        5.553   2.485  -8.277  0.00  0.00    -0.083 Cl
ATOM     11  C   LIG    1        5.575   0.368  -6.480  0.00  0.00    +0.019 A 
ATOM     12  C   LIG    1        5.644  -0.035  -5.120  0.00  0.00    +0.026 A 
BRANCH  11  13
ATOM     13  C   LIG    1        5.587  -0.688  -7.533  0.00  0.00    +0.072 A 
ATOM     14  N   LIG    1        6.285  -1.807  -7.192  0.00  0.00    -0.255 NA
ATOM     15  C   LIG    1        6.339  -2.831  -8.078  0.00  0.00    +0.111 A 
ATOM     16  C   LIG    1        5.734  -2.810  -9.319  0.00  0.00    +0.020 A 
ATOM     17  C   LIG    1        5.023  -1.672  -9.668  0.00  0.00    +0.004 A 
ATOM     18  C   LIG    1        4.932  -0.612  -8.763  0.00  0.00    +0.028 A 
ENDBRANCH  11  13
ENDBRANCH   3   5
BRANCH   1  22
ATOM     19  C   LIG    1        6.127  -0.452   1.653  0.00  0.00    +0.149 A 
ATOM     20  N   LIG    1        7.109   0.422   1.912  0.00  0.00    -0.160 NA
ATOM     21  N   LIG    1        7.467   0.945   0.713  0.00  0.00    -0.218 N 
ATOM     22  C   LIG    1        6.620   0.516  -0.311  0.00  0.00    +0.129 A 
ATOM     23  C   LIG    1        5.778  -0.408   0.281  0.00  0.00    +0.078 A 
BRANCH  21  24
ATOM     24  C   LIG    1        8.598   1.809   0.654  0.00  0.00    +0.067 A 
ATOM     25  C   LIG    1        8.991   2.484   1.825  0.00  0.00    +0.028 A 
ATOM     26  C   LIG    1       10.098   3.333   1.820  0.00  0.00    +0.002 A 
ATOM     27  C   LIG    1       10.843   3.491   0.655  0.00  0.00    +0.000 A 
ATOM     28  C   LIG    1       10.482   2.797  -0.502  0.00  0.00    +0.002 A 
ATOM     29  C   LIG    1        9.357   1.959  -0.512  0.00  0.00    +0.028 A 
ENDBRANCH  21  24
BRANCH  19  32
ATOM     30  C   LIG    1        5.210  -1.994   4.947  0.00  0.00    +0.174 C 
ATOM     31  N   LIG    1        5.882  -1.236   3.910  0.00  0.00    -0.252 NA
ATOM     32  C   LIG    1        5.491  -1.270   2.691  0.00  0.00    +0.236 C 
BRANCH  32  33
ATOM     33  O   LIG    1        4.475  -2.042   2.242  0.00  0.00    -0.491 OA
ATOM     34  H   LIG    1        4.130  -2.605   2.949  0.00  0.00    +0.294 HD
ENDBRANCH  32  33
ENDBRANCH  19  32
ENDBRANCH   1  22
TORSDOF 6
