REMARK  Name = pdb/CHEMBL3952110.pdb
REMARK                            x       y       z     vdW  Elec       q    Type
REMARK                         _______ _______ _______ _____ _____    ______ ____
ROOT
ATOM      1  C   LIG    1        6.905  -1.094  -0.182  0.00  0.00    +0.179 A 
ATOM      2  N   LIG    1        6.575  -2.040  -1.171  0.00  0.00    -0.193 N 
ATOM      3  N   LIG    1        7.398  -2.576  -2.155  0.00  0.00    -0.148 NA
ATOM      4  C   LIG    1        6.824  -3.460  -2.940  0.00  0.00    +0.143 A 
ATOM      5  C   LIG    1        5.343  -3.719  -2.881  0.00  0.00    +0.049 A 
ATOM      6  C   LIG    1        4.616  -3.196  -1.894  0.00  0.00    +0.051 A 
ATOM      7  C   LIG    1        5.248  -2.376  -0.956  0.00  0.00    +0.157 A 
ATOM      8  N   LIG    1        4.751  -1.840   0.130  0.00  0.00    -0.232 NA
ATOM      9  C   LIG    1        5.767  -1.077   0.619  0.00  0.00    +0.161 A 
ENDROOT
BRANCH   4  10
ATOM     10  N   LIG    1        7.594  -4.165  -3.873  0.00  0.00    -0.307 N 
ATOM     11  C   LIG    1        7.100  -5.388  -4.550  0.00  0.00    +0.108 C 
ATOM     12  C   LIG    1        6.804  -4.839  -5.949  0.00  0.00    +0.029 C 
ATOM     13  C   LIG    1        7.987  -3.927  -6.225  0.00  0.00    +0.021 C 
ATOM     14  C   LIG    1        8.388  -3.386  -4.846  0.00  0.00    +0.107 C 
BRANCH  11  15
ATOM     15  C   LIG    1        8.076  -6.551  -4.433  0.00  0.00    +0.011 A 
ATOM     16  C   LIG    1        8.079  -7.603  -5.363  0.00  0.00    +0.129 A 
ATOM     17  F   LIG    1        7.241  -7.594  -6.408  0.00  0.00    -0.205 F 
ATOM     18  C   LIG    1        8.904  -8.720  -5.222  0.00  0.00    +0.041 A 
ATOM     19  C   LIG    1        9.729  -8.832  -4.110  0.00  0.00    +0.041 A 
ATOM     20  C   LIG    1        9.710  -7.826  -3.152  0.00  0.00    +0.124 A 
ATOM     21  F   LIG    1       10.474  -7.952  -2.059  0.00  0.00    -0.205 F 
ATOM     22  C   LIG    1        8.896  -6.701  -3.298  0.00  0.00    +0.046 A 
ENDBRANCH  11  15
ENDBRANCH   4  10
BRANCH   1  24
ATOM     23  C   LIG    1        8.435   0.493   0.622  0.00  0.00    +0.286 C 
ATOM     24  N   LIG    1        8.095  -0.432  -0.216  0.00  0.00    -0.178 NA
BRANCH  23  25
ATOM     25  N   LIG    1        7.819   0.990   1.740  0.00  0.00    -0.269 N 
ATOM     26  H   LIG    1        6.928   0.601   1.972  0.00  0.00    +0.157 HD
BRANCH  25  30
ATOM     27  C   LIG    1        9.229   3.789   4.554  0.00  0.00    +0.120 A 
ATOM     28  C   LIG    1       10.118   2.880   3.981  0.00  0.00    +0.047 A 
ATOM     29  C   LIG    1        9.652   1.892   3.113  0.00  0.00    +0.027 A 
ATOM     30  C   LIG    1        8.301   1.811   2.776  0.00  0.00    +0.035 A 
ATOM     31  C   LIG    1        7.401   2.674   3.423  0.00  0.00    +0.027 A 
ATOM     32  C   LIG    1        7.869   3.658   4.304  0.00  0.00    +0.047 A 
BRANCH  27  34
ATOM     33  C   LIG    1       10.984   5.042   5.527  0.00  0.00    +0.277 C 
ATOM     34  O   LIG    1        9.584   4.837   5.361  0.00  0.00    -0.495 OA
ENDBRANCH  27  34
ENDBRANCH  25  30
ENDBRANCH  23  25
BRANCH  23  35
ATOM     35  O   LIG    1        9.561   1.158   0.279  0.00  0.00    -0.481 OA
ATOM     36  H   LIG    1        9.592   2.012   0.729  0.00  0.00    +0.295 HD
ENDBRANCH  23  35
ENDBRANCH   1  24
TORSDOF 7
