REMARK  Name = pdb/CHEMBL3961730.pdb
REMARK                            x       y       z     vdW  Elec       q    Type
REMARK                         _______ _______ _______ _____ _____    ______ ____
ROOT
ATOM      1  C   LIG    1        5.235   0.277  -3.915  0.00  0.00    +0.149 A 
ATOM      2  N   LIG    1        5.897  -0.488  -4.803  0.00  0.00    -0.160 NA
ATOM      3  N   LIG    1        5.997   0.276  -5.924  0.00  0.00    -0.218 N 
ATOM      4  C   LIG    1        5.548   1.581  -5.693  0.00  0.00    +0.129 A 
ATOM      5  C   LIG    1        5.046   1.581  -4.416  0.00  0.00    +0.078 A 
ENDROOT
BRANCH   3   6
ATOM      6  C   LIG    1        6.487  -0.281  -7.143  0.00  0.00    +0.067 A 
ATOM      7  C   LIG    1        6.065   0.222  -8.382  0.00  0.00    +0.028 A 
ATOM      8  C   LIG    1        6.542  -0.341  -9.571  0.00  0.00    +0.002 A 
ATOM      9  C   LIG    1        7.442  -1.404  -9.534  0.00  0.00    +0.000 A 
ATOM     10  C   LIG    1        7.863  -1.914  -8.307  0.00  0.00    +0.002 A 
ATOM     11  C   LIG    1        7.382  -1.363  -7.112  0.00  0.00    +0.028 A 
ENDBRANCH   3   6
BRANCH   4  12
ATOM     12  N   LIG    1        5.670   2.697  -6.526  0.00  0.00    -0.266 N 
ATOM     13  H   LIG    1        6.321   2.629  -7.300  0.00  0.00    +0.157 HD
ATOM     14  C   LIG    1        4.961   3.932  -6.294  0.00  0.00    +0.251 C 
ATOM     15  O   LIG    1        4.149   4.037  -5.403  0.00  0.00    -0.270 OA
BRANCH  14  16
ATOM     16  C   LIG    1        5.209   5.055  -7.223  0.00  0.00    +0.056 A 
ATOM     17  C   LIG    1        6.432   5.285  -7.850  0.00  0.00    +0.054 A 
ATOM     18 CL   LIG    1        7.802   4.248  -7.689  0.00  0.00    -0.083 Cl
ATOM     19  C   LIG    1        6.586   6.398  -8.671  0.00  0.00    +0.041 A 
ATOM     20  C   LIG    1        5.525   7.290  -8.906  0.00  0.00    +0.052 A 
ATOM     21 CL   LIG    1        5.888   8.506 -10.081  0.00  0.00    -0.083 Cl
ATOM     22  C   LIG    1        4.270   7.116  -8.288  0.00  0.00    +0.022 A 
ATOM     23  C   LIG    1        4.149   5.972  -7.448  0.00  0.00    +0.026 A 
BRANCH  22  24
ATOM     24  C   LIG    1        3.076   7.994  -8.478  0.00  0.00    +0.107 A 
ATOM     25  C   LIG    1        3.109   9.377  -8.678  0.00  0.00    +0.149 A 
ATOM     26  F   LIG    1        4.247  10.080  -8.633  0.00  0.00    -0.203 F 
ATOM     27  C   LIG    1        1.929  10.090  -8.870  0.00  0.00    +0.042 A 
ATOM     28  C   LIG    1        0.714   9.427  -8.799  0.00  0.00    +0.023 A 
ATOM     29  C   LIG    1        0.738   8.067  -8.549  0.00  0.00    +0.111 A 
ATOM     30  N   LIG    1        1.877   7.342  -8.399  0.00  0.00    -0.252 NA
ENDBRANCH  22  24
ENDBRANCH  14  16
ENDBRANCH   4  12
BRANCH   1  32
ATOM     31  N   LIG    1        3.824   0.392  -1.995  0.00  0.00    -0.238 NA
ATOM     32  C   LIG    1        4.828  -0.174  -2.585  0.00  0.00    +0.237 C 
BRANCH  31  33
ATOM     33  C   LIG    1        3.316  -0.091  -0.694  0.00  0.00    +0.114 C 
ATOM     34  C   LIG    1        1.761   0.027  -0.651  0.00  0.00    +0.192 C 
ATOM     35  O   LIG    1        1.598  -1.384  -0.936  0.00  0.00    -0.375 OA
ATOM     36  C   LIG    1        3.000  -1.615  -0.687  0.00  0.00    +0.192 C 
BRANCH  33  37
ATOM     37  C   LIG    1        4.052   0.509   0.503  0.00  0.00    +0.062 C 
BRANCH  37  38
ATOM     38  C   LIG    1        4.247   2.018   0.385  0.00  0.00    +0.158 C 
BRANCH  38  39
ATOM     39  O   LIG    1        4.946   2.486   1.533  0.00  0.00    -0.395 OA
ATOM     40  H   LIG    1        5.094   3.442   1.411  0.00  0.00    +0.209 HD
ENDBRANCH  38  39
ENDBRANCH  37  38
ENDBRANCH  33  37
ENDBRANCH  31  33
BRANCH  32  41
ATOM     41  O   LIG    1        5.597  -1.142  -2.055  0.00  0.00    -0.491 OA
ATOM     42  H   LIG    1        5.411  -1.289  -1.122  0.00  0.00    +0.294 HD
ENDBRANCH  32  41
ENDBRANCH   1  32
TORSDOF 10
