REMARK  Name = pdb/CHEMBL3676037.pdb
REMARK                            x       y       z     vdW  Elec       q    Type
REMARK                         _______ _______ _______ _____ _____    ______ ____
ROOT
ATOM      1  C   LIG    1        7.229   2.046  -1.191  0.00  0.00    +0.100 A 
ATOM      2  C   LIG    1        8.005   2.514  -0.137  0.00  0.00    +0.170 A 
ATOM      3  N   LIG    1        7.723   3.163   1.044  0.00  0.00    -0.212 NA
ATOM      4  C   LIG    1        8.731   3.491   1.834  0.00  0.00    +0.126 A 
ATOM      5  C   LIG    1       10.162   3.144   1.485  0.00  0.00    +0.063 A 
ATOM      6  C   LIG    1       10.380   2.509   0.333  0.00  0.00    +0.118 A 
ATOM      7  N   LIG    1        9.322   2.184  -0.492  0.00  0.00    -0.221 N 
ATOM      8  N   LIG    1        9.402   1.539  -1.676  0.00  0.00    -0.173 NA
ATOM      9  C   LIG    1        8.142   1.459  -2.082  0.00  0.00    +0.150 A 
ENDROOT
BRANCH   4  10
ATOM     10  N   LIG    1        8.514   4.167   3.030  0.00  0.00    -0.308 N 
ATOM     11  C   LIG    1        7.174   4.477   3.554  0.00  0.00    +0.108 C 
ATOM     12  C   LIG    1        7.315   5.962   3.930  0.00  0.00    +0.029 C 
ATOM     13  C   LIG    1        8.725   6.051   4.486  0.00  0.00    +0.021 C 
ATOM     14  C   LIG    1        9.508   5.081   3.611  0.00  0.00    +0.107 C 
BRANCH  11  15
ATOM     15  C   LIG    1        6.807   3.589   4.736  0.00  0.00    +0.011 A 
ATOM     16  C   LIG    1        5.592   3.801   5.405  0.00  0.00    +0.129 A 
ATOM     17  F   LIG    1        4.773   4.781   4.999  0.00  0.00    -0.205 F 
ATOM     18  C   LIG    1        5.200   3.019   6.493  0.00  0.00    +0.041 A 
ATOM     19  C   LIG    1        6.022   1.986   6.932  0.00  0.00    +0.041 A 
ATOM     20  C   LIG    1        7.221   1.748   6.273  0.00  0.00    +0.124 A 
ATOM     21  F   LIG    1        8.013   0.751   6.687  0.00  0.00    -0.205 F 
ATOM     22  C   LIG    1        7.616   2.530   5.187  0.00  0.00    +0.046 A 
ENDBRANCH  11  15
ENDBRANCH   4  10
BRANCH   1  25
ATOM     23  N   LIG    1        5.024   2.680  -0.456  0.00  0.00    -0.311 N 
ATOM     24  H   LIG    1        5.529   3.186   0.273  0.00  0.00    +0.149 HD
ATOM     25  C   LIG    1        5.791   2.089  -1.421  0.00  0.00    +0.249 C 
ATOM     26  O   LIG    1        5.300   1.607  -2.441  0.00  0.00    -0.270 OA
BRANCH  23  27
ATOM     27  C   LIG    1        3.587   2.848  -0.622  0.00  0.00    +0.113 C 
BRANCH  27  29
ATOM     28  C   LIG    1        1.301   3.116   0.403  0.00  0.00    +0.015 C 
ATOM     29  C   LIG    1        2.807   2.957   0.705  0.00  0.00    +0.004 C 
ATOM     30  C   LIG    1        3.270   4.196   1.492  0.00  0.00    +0.015 C 
BRANCH  29  31
ATOM     31  C   LIG    1        3.025   1.674   1.532  0.00  0.00    +0.163 C 
BRANCH  31  32
ATOM     32  O   LIG    1        2.320   1.738   2.766  0.00  0.00    -0.394 OA
ATOM     33  H   LIG    1        2.522   0.918   3.247  0.00  0.00    +0.209 HD
ENDBRANCH  31  32
ENDBRANCH  29  31
ENDBRANCH  27  29
ENDBRANCH  23  27
ENDBRANCH   1  25
TORSDOF 7
