REMARK  Name = pdb/CHEMBL3912700.pdb
REMARK                            x       y       z     vdW  Elec       q    Type
REMARK                         _______ _______ _______ _____ _____    ______ ____
ROOT
ATOM      1  C   LIG    1        0.494   4.811  -0.314  0.00  0.00    +0.042 A 
ATOM      2  C   LIG    1        1.116   5.665  -1.249  0.00  0.00    +0.042 A 
ATOM      3  C   LIG    1        0.684   6.996  -1.422  0.00  0.00    +0.086 A 
ATOM      4  C   LIG    1       -0.381   7.383  -0.605  0.00  0.00    +0.138 A 
ATOM      5  N   LIG    1       -0.987   6.605   0.329  0.00  0.00    -0.260 NA
ATOM      6  C   LIG    1       -0.519   5.349   0.464  0.00  0.00    +0.122 A 
ENDROOT
BRANCH   1   7
ATOM      7  C   LIG    1        0.933   3.402  -0.109  0.00  0.00    +0.197 C 
ATOM      8  O   LIG    1        2.136   3.135  -0.266  0.00  0.00    -0.287 OA
BRANCH   7  17
ATOM      9  N   LIG    1       -1.998   1.232   0.515  0.00  0.00    -0.336 N 
ATOM     10  C   LIG    1       -1.036   0.507   1.216  0.00  0.00    +0.089 A 
ATOM     11  C   LIG    1       -1.077  -0.656   2.003  0.00  0.00    +0.165 A 
ATOM     12  F   LIG    1       -2.212  -1.297   2.304  0.00  0.00    -0.202 F 
ATOM     13  C   LIG    1        0.128  -1.149   2.482  0.00  0.00    +0.151 A 
ATOM     14  N   LIG    1        1.331  -0.584   2.256  0.00  0.00    -0.260 NA
ATOM     15  C   LIG    1        1.378   0.565   1.539  0.00  0.00    +0.121 A 
ATOM     16  C   LIG    1        0.208   1.150   1.015  0.00  0.00    +0.032 A 
ATOM     17  C   LIG    1       -0.032   2.364   0.289  0.00  0.00    +0.049 A 
ATOM     18  C   LIG    1       -1.375   2.346  -0.020  0.00  0.00    +0.099 A 
BRANCH   9  20
ATOM     19  C   LIG    1       -4.127   1.951  -0.644  0.00  0.00    +0.036 C 
ATOM     20  C   LIG    1       -3.439   0.905   0.290  0.00  0.00    +0.063 C 
ATOM     21  C   LIG    1       -4.233   0.927   1.614  0.00  0.00    +0.036 C 
BRANCH  20  22
ATOM     22  C   LIG    1       -3.612  -0.482  -0.389  0.00  0.00    +0.183 C 
BRANCH  22  23
ATOM     23  O   LIG    1       -4.996  -0.770  -0.621  0.00  0.00    -0.393 OA
ATOM     24  H   LIG    1       -5.084  -1.732  -0.735  0.00  0.00    +0.209 HD
ENDBRANCH  22  23
ENDBRANCH  20  22
ENDBRANCH   9  20
ENDBRANCH   7  17
ENDBRANCH   1   7
BRANCH   3  25
ATOM     25  N   LIG    1        1.339   7.795  -2.396  0.00  0.00    -0.214 NA
ATOM     26  C   LIG    1        1.027   9.025  -2.676  0.00  0.00    +0.210 C 
BRANCH  26  27
ATOM     27  O   LIG    1        0.048   9.705  -2.043  0.00  0.00    -0.494 OA
ATOM     28  H   LIG    1       -0.069  10.624  -2.362  0.00  0.00    +0.293 HD
ENDBRANCH  26  27
BRANCH  26  29
ATOM     29  C   LIG    1        1.768   9.804  -3.738  0.00  0.00    +0.238 C 
BRANCH  29  30
ATOM     30  N   LIG    1        0.916  10.801  -4.368  0.00  0.00    -0.262 N 
ATOM     31  N   LIG    1        0.727  11.988  -3.751  0.00  0.00    -0.179 NA
ATOM     32  C   LIG    1       -0.095  12.647  -4.574  0.00  0.00    +0.146 A 
ATOM     33  C   LIG    1       -0.544  11.844  -5.643  0.00  0.00    +0.092 A 
ATOM     34  C   LIG    1        0.095  10.632  -5.443  0.00  0.00    +0.121 A 
BRANCH  33  35
ATOM     35  C   LIG    1       -1.483  12.248  -6.714  0.00  0.00    +0.420 C 
ATOM     36  F   LIG    1       -0.995  13.287  -7.437  0.00  0.00    -0.166 F 
ATOM     37  F   LIG    1       -2.682  12.641  -6.215  0.00  0.00    -0.166 F 
ATOM     38  F   LIG    1       -1.728  11.239  -7.586  0.00  0.00    -0.166 F 
ENDBRANCH  33  35
ENDBRANCH  29  30
ENDBRANCH  26  29
ENDBRANCH   3  25
TORSDOF 10
