REMARK  Name = pdb/CHEMBL3671142.pdb
REMARK                            x       y       z     vdW  Elec       q    Type
REMARK                         _______ _______ _______ _____ _____    ______ ____
ROOT
ATOM      1  C   LIG    1        2.946  -4.317  -0.692  0.00  0.00    +0.126 A 
ATOM      2  N   LIG    1        2.425  -3.271  -1.307  0.00  0.00    -0.212 NA
ATOM      3  C   LIG    1        1.377  -3.482  -2.184  0.00  0.00    +0.170 A 
ATOM      4  C   LIG    1        0.587  -2.639  -2.945  0.00  0.00    +0.100 A 
ATOM      5  C   LIG    1       -0.282  -3.505  -3.649  0.00  0.00    +0.150 A 
ATOM      6  N   LIG    1       -0.088  -4.788  -3.365  0.00  0.00    -0.173 NA
ATOM      7  N   LIG    1        0.902  -4.773  -2.448  0.00  0.00    -0.221 N 
ATOM      8  C   LIG    1        1.414  -5.869  -1.782  0.00  0.00    +0.118 A 
ATOM      9  C   LIG    1        2.393  -5.712  -0.889  0.00  0.00    +0.063 A 
ENDROOT
BRANCH   1  11
ATOM     10  C   LIG    1        4.657  -2.855   0.439  0.00  0.00    +0.108 C 
ATOM     11  N   LIG    1        4.030  -4.160   0.167  0.00  0.00    -0.308 N 
ATOM     12  C   LIG    1        4.942  -5.243   0.541  0.00  0.00    +0.107 C 
ATOM     13  C   LIG    1        6.314  -4.591   0.579  0.00  0.00    +0.021 C 
ATOM     14  C   LIG    1        6.008  -3.201   1.096  0.00  0.00    +0.029 C 
BRANCH  10  18
ATOM     15  F   LIG    1        1.493  -2.192   4.145  0.00  0.00    -0.205 F 
ATOM     16  C   LIG    1        2.293  -1.669   3.206  0.00  0.00    +0.124 A 
ATOM     17  C   LIG    1        2.994  -2.518   2.354  0.00  0.00    +0.046 A 
ATOM     18  C   LIG    1        3.839  -1.987   1.366  0.00  0.00    +0.011 A 
ATOM     19  C   LIG    1        3.971  -0.595   1.290  0.00  0.00    +0.129 A 
ATOM     20  F   LIG    1        4.801  -0.054   0.388  0.00  0.00    -0.205 F 
ATOM     21  C   LIG    1        3.269   0.253   2.145  0.00  0.00    +0.041 A 
ATOM     22  C   LIG    1        2.418  -0.288   3.107  0.00  0.00    +0.041 A 
ENDBRANCH  10  18
ENDBRANCH   1  11
BRANCH   4  23
ATOM     23  C   LIG    1        0.560  -1.194  -3.076  0.00  0.00    +0.249 C 
ATOM     24  N   LIG    1        1.479  -0.487  -2.341  0.00  0.00    -0.308 N 
ATOM     25  H   LIG    1        2.097  -1.023  -1.746  0.00  0.00    +0.149 HD
ATOM     26  O   LIG    1       -0.261  -0.640  -3.815  0.00  0.00    -0.270 OA
BRANCH  24  27
ATOM     27  C   LIG    1        1.522   0.991  -2.386  0.00  0.00    +0.073 C 
ATOM     28  C   LIG    1        2.947   1.584  -2.353  0.00  0.00    +0.022 C 
ATOM     29  C   LIG    1        2.416   2.655  -1.380  0.00  0.00    +0.004 C 
ATOM     30  C   LIG    1        1.265   1.689  -1.033  0.00  0.00    +0.022 C 
ENDBRANCH  24  27
ENDBRANCH   4  23
TORSDOF 4
