REMARK  Name = pdb/CHEMBL3673476.pdb
REMARK                            x       y       z     vdW  Elec       q    Type
REMARK                         _______ _______ _______ _____ _____    ______ ____
ROOT
ATOM      1  C   LIG    1       10.830   8.381   6.142  0.00  0.00    +0.161 C 
ENDROOT
BRANCH   1   2
ATOM      2  N   LIG    1       10.497   9.770   6.552  0.00  0.00    -0.293 N 
ATOM      3  C   LIG    1       10.965  10.341   7.704  0.00  0.00    +0.162 A 
ATOM      4  N   LIG    1       11.840   9.845   8.585  0.00  0.00    -0.235 NA
ATOM      5  C   LIG    1       12.017  10.660   9.667  0.00  0.00    +0.121 A 
ATOM      6  C   LIG    1       11.412  11.906   9.892  0.00  0.00    +0.005 A 
ATOM      7  C   LIG    1       10.550  12.395   8.899  0.00  0.00    +0.041 A 
ATOM      8  C   LIG    1       10.324  11.583   7.764  0.00  0.00    +0.110 A 
ATOM      9  N   LIG    1        9.550  11.786   6.669  0.00  0.00    -0.213 NA
ATOM     10  C   LIG    1        9.716  10.719   5.934  0.00  0.00    +0.195 A 
BRANCH   6  11
ATOM     11  C   LIG    1       11.677  12.639  11.126  0.00  0.00    +0.021 A 
ATOM     12  C   LIG    1       11.190  13.892  11.438  0.00  0.00    +0.116 A 
ATOM     13  N   LIG    1       11.695  14.216  12.666  0.00  0.00    -0.274 N 
ATOM     14  C   LIG    1       11.476  15.454  13.372  0.00  0.00    +0.172 C 
ATOM     15  N   LIG    1       12.465  13.254  13.198  0.00  0.00    -0.179 NA
ATOM     16  C   LIG    1       12.454  12.297  12.266  0.00  0.00    +0.143 A 
ENDBRANCH   6  11
BRANCH  10  17
ATOM     17  N   LIG    1        9.151  10.527   4.727  0.00  0.00    -0.329 N 
ATOM     18  H   LIG    1        8.702  11.320   4.287  0.00  0.00    +0.145 HD
ATOM     19  H   LIG    1        9.470   9.814   4.065  0.00  0.00    +0.145 HD
ENDBRANCH  10  17
ENDBRANCH   1   2
BRANCH   1  23
ATOM     20  C   LIG    1        7.543   6.283   4.161  0.00  0.00    +0.162 A 
ATOM     21  C   LIG    1        8.872   5.997   3.791  0.00  0.00    +0.162 A 
ATOM     22  C   LIG    1        9.943   6.680   4.425  0.00  0.00    +0.054 A 
ATOM     23  C   LIG    1        9.714   7.597   5.471  0.00  0.00    -0.024 A 
ATOM     24  C   LIG    1        8.400   7.744   5.909  0.00  0.00    +0.009 A 
ATOM     25  C   LIG    1        7.339   7.164   5.220  0.00  0.00    +0.050 A 
BRANCH  21  26
ATOM     26  O   LIG    1        9.275   5.129   2.799  0.00  0.00    -0.491 OA
ATOM     27  C   LIG    1        8.459   3.978   2.577  0.00  0.00    +0.277 C 
ENDBRANCH  21  26
BRANCH  20  28
ATOM     28  O   LIG    1        6.515   5.715   3.464  0.00  0.00    -0.484 OA
BRANCH  28  29
ATOM     29  C   LIG    1        5.154   5.923   3.838  0.00  0.00    +0.266 C 
BRANCH  29  33
ATOM     30  C   LIG    1        3.054   7.329   0.448  0.00  0.00    +0.214 A 
ATOM     31  N   LIG    1        3.018   6.010   0.732  0.00  0.00    -0.221 NA
ATOM     32  C   LIG    1        3.701   5.605   1.821  0.00  0.00    +0.121 A 
ATOM     33  C   LIG    1        4.408   6.460   2.655  0.00  0.00    +0.008 A 
ATOM     34  C   LIG    1        4.418   7.822   2.336  0.00  0.00    +0.013 A 
ATOM     35  C   LIG    1        3.731   8.266   1.212  0.00  0.00    +0.067 A 
BRANCH  30  37
ATOM     36  C   LIG    1        1.710   6.766  -1.368  0.00  0.00    +0.279 C 
ATOM     37  O   LIG    1        2.393   7.801  -0.667  0.00  0.00    -0.480 OA
ENDBRANCH  30  37
ENDBRANCH  29  33
ENDBRANCH  28  29
ENDBRANCH  20  28
ENDBRANCH   1  23
TORSDOF 9
