REMARK  Name = pdb/CHEMBL3974062.pdb
REMARK                            x       y       z     vdW  Elec       q    Type
REMARK                         _______ _______ _______ _____ _____    ______ ____
ROOT
ATOM      1  C   LIG    1        5.482   8.409  -4.007  0.00  0.00    +0.323 A 
ATOM      2  N   LIG    1        4.894   9.554  -4.394  0.00  0.00    -0.201 NA
ATOM      3  C   LIG    1        5.393  10.124  -5.539  0.00  0.00    +0.145 A 
ATOM      4  C   LIG    1        6.455   9.639  -6.282  0.00  0.00    +0.105 A 
ATOM      5  C   LIG    1        7.017   8.520  -5.704  0.00  0.00    +0.145 A 
ATOM      6  N   LIG    1        6.511   7.865  -4.656  0.00  0.00    -0.201 NA
ENDROOT
BRANCH   4   7
ATOM      7  N   LIG    1        6.919  10.198  -7.518  0.00  0.00    -0.196 NA
ATOM      8  C   LIG    1        7.272   9.366  -8.438  0.00  0.00    +0.285 C 
BRANCH   8   9
ATOM      9  N   LIG    1        7.813   9.673  -9.673  0.00  0.00    -0.267 N 
ATOM     10  H   LIG    1        7.702  10.650  -9.925  0.00  0.00    +0.157 HD
BRANCH   9  11
ATOM     11  C   LIG    1        8.315   8.824 -10.695  0.00  0.00    +0.073 A 
ATOM     12  C   LIG    1        8.842   7.537 -10.454  0.00  0.00    +0.145 A 
ATOM     13  F   LIG    1        9.059   7.123  -9.196  0.00  0.00    -0.204 F 
ATOM     14  C   LIG    1        9.154   6.625 -11.456  0.00  0.00    +0.043 A 
ATOM     15  C   LIG    1        9.010   7.006 -12.777  0.00  0.00    +0.041 A 
ATOM     16  C   LIG    1        8.563   8.293 -13.058  0.00  0.00    +0.125 A 
ATOM     17  F   LIG    1        8.444   8.665 -14.338  0.00  0.00    -0.205 F 
ATOM     18  C   LIG    1        8.220   9.200 -12.042  0.00  0.00    +0.064 A 
ENDBRANCH   9  11
ENDBRANCH   8   9
BRANCH   8  19
ATOM     19  O   LIG    1        7.055   8.053  -8.235  0.00  0.00    -0.481 OA
ATOM     20  H   LIG    1        7.711   7.499  -8.664  0.00  0.00    +0.295 HD
ENDBRANCH   8  19
ENDBRANCH   4   7
BRANCH   1  21
ATOM     21  O   LIG    1        4.997   7.767  -2.859  0.00  0.00    -0.424 OA
BRANCH  21  25
ATOM     22  C   LIG    1        6.782   4.194  -1.451  0.00  0.00    -0.010 A 
ATOM     23  C   LIG    1        5.441   4.509  -1.188  0.00  0.00    +0.012 A 
ATOM     24  C   LIG    1        4.861   5.698  -1.679  0.00  0.00    +0.047 A 
ATOM     25  C   LIG    1        5.623   6.610  -2.415  0.00  0.00    +0.132 A 
ATOM     26  C   LIG    1        6.971   6.308  -2.618  0.00  0.00    +0.047 A 
ATOM     27  C   LIG    1        7.518   5.099  -2.215  0.00  0.00    +0.012 A 
BRANCH  22  31
ATOM     28  N   LIG    1        9.978   0.266  -1.183  0.00  0.00    -0.261 NA
ATOM     29  C   LIG    1        9.080   1.104  -0.819  0.00  0.00    +0.167 A 
ATOM     30  S   LIG    1        9.184   2.869  -0.879  0.00  0.00    -0.050 S 
ATOM     31  C   LIG    1        7.429   2.976  -0.958  0.00  0.00    +0.039 A 
ATOM     32  C   LIG    1        6.883   1.788  -0.650  0.00  0.00    +0.100 A 
ATOM     33  N   LIG    1        7.800   0.779  -0.436  0.00  0.00    -0.340 N 
ATOM     34  H   LIG    1        7.515  -0.180  -0.577  0.00  0.00    +0.167 HD
BRANCH  28  35
ATOM     35  C   LIG    1       11.235   0.753  -1.751  0.00  0.00    +0.144 C 
BRANCH  35  37
ATOM     36  C   LIG    1       12.582  -0.391   0.042  0.00  0.00    +0.005 C 
ATOM     37  C   LIG    1       12.289   0.923  -0.664  0.00  0.00    +0.020 C 
ENDBRANCH  35  37
ENDBRANCH  28  35
ENDBRANCH  22  31
ENDBRANCH  21  25
ENDBRANCH   1  21
TORSDOF 9
