REMARK  Name = pdb/CHEMBL3916820.pdb
REMARK                            x       y       z     vdW  Elec       q    Type
REMARK                         _______ _______ _______ _____ _____    ______ ____
ROOT
ATOM      1  C   LIG    1        8.777   1.248  -1.972  0.00  0.00    +0.098 A 
ATOM      2  C   LIG    1        9.555   2.387  -2.041  0.00  0.00    +0.179 A 
ATOM      3  N   LIG    1        9.293   3.699  -1.741  0.00  0.00    -0.211 NA
ATOM      4  C   LIG    1       10.285   4.563  -1.812  0.00  0.00    +0.126 A 
ATOM      5  C   LIG    1       11.682   4.139  -2.205  0.00  0.00    +0.063 A 
ATOM      6  C   LIG    1       11.866   2.856  -2.538  0.00  0.00    +0.118 A 
ATOM      7  N   LIG    1       10.808   1.963  -2.480  0.00  0.00    -0.220 N 
ATOM      8  N   LIG    1       10.825   0.644  -2.792  0.00  0.00    -0.171 NA
ATOM      9  C   LIG    1        9.595   0.222  -2.482  0.00  0.00    +0.160 A 
ENDROOT
BRANCH   4  10
ATOM     10  N   LIG    1       10.039   5.897  -1.531  0.00  0.00    -0.308 N 
ATOM     11  C   LIG    1        8.682   6.446  -1.413  0.00  0.00    +0.105 C 
ATOM     12  C   LIG    1        8.804   7.586  -0.384  0.00  0.00    +0.029 C 
ATOM     13  C   LIG    1       10.245   7.558   0.104  0.00  0.00    +0.021 C 
ATOM     14  C   LIG    1       11.012   6.827  -0.981  0.00  0.00    +0.107 C 
BRANCH  11  15
ATOM     15  C   LIG    1        8.158   6.975  -2.744  0.00  0.00    -0.024 A 
ATOM     16  C   LIG    1        6.772   7.057  -2.956  0.00  0.00    +0.043 A 
ATOM     17  C   LIG    1        6.271   7.591  -4.141  0.00  0.00    +0.124 A 
ATOM     18  F   LIG    1        4.945   7.664  -4.320  0.00  0.00    -0.205 F 
ATOM     19  C   LIG    1        7.119   8.059  -5.137  0.00  0.00    +0.038 A 
ATOM     20  C   LIG    1        8.494   7.987  -4.947  0.00  0.00    +0.003 A 
ATOM     21  C   LIG    1        9.007   7.449  -3.763  0.00  0.00    +0.005 A 
ENDBRANCH  11  15
ENDBRANCH   4  10
BRANCH   1  23
ATOM     22  C   LIG    1        6.683   0.107  -1.399  0.00  0.00    +0.267 C 
ATOM     23  N   LIG    1        7.483   1.232  -1.485  0.00  0.00    -0.276 N 
ATOM     24  H   LIG    1        7.111   2.111  -1.137  0.00  0.00    +0.155 HD
ATOM     25  O   LIG    1        6.989  -1.020  -1.756  0.00  0.00    -0.268 OA
BRANCH  22  28
ATOM     26  C   LIG    1        3.829   1.913   0.020  0.00  0.00    +0.215 A 
ATOM     27  N   LIG    1        5.056   1.669  -0.486  0.00  0.00    -0.208 NA
ATOM     28  C   LIG    1        5.329   0.376  -0.804  0.00  0.00    +0.129 A 
ATOM     29  C   LIG    1        4.434  -0.673  -0.616  0.00  0.00    +0.033 A 
ATOM     30  C   LIG    1        3.180  -0.383  -0.081  0.00  0.00    +0.007 A 
ATOM     31  C   LIG    1        2.869   0.934   0.238  0.00  0.00    +0.067 A 
BRANCH  26  33
ATOM     32  C   LIG    1        4.487   4.155   0.073  0.00  0.00    +0.279 C 
ATOM     33  O   LIG    1        3.465   3.203   0.349  0.00  0.00    -0.480 OA
ENDBRANCH  26  33
ENDBRANCH  22  28
ENDBRANCH   1  23
TORSDOF 5
