REMARK  Name = pdb/CHEMBL3973508.pdb
REMARK                            x       y       z     vdW  Elec       q    Type
REMARK                         _______ _______ _______ _____ _____    ______ ____
ROOT
ATOM      1  C   LIG    1        8.987   0.581   6.267  0.00  0.00    +0.131 C 
ATOM      2  N   LIG    1        9.382   0.232   7.504  0.00  0.00    -0.141 NA
ATOM      3  N   LIG    1        9.391   1.392   8.230  0.00  0.00    -0.201 N 
ATOM      4  C   LIG    1        9.204   2.512   7.402  0.00  0.00    +0.185 C 
ATOM      5  C   LIG    1        8.807   1.984   6.190  0.00  0.00    +0.056 C 
ENDROOT
BRANCH   3   6
ATOM      6  C   LIG    1        9.642   1.349   9.640  0.00  0.00    +0.052 A 
ATOM      7  C   LIG    1       10.309   0.240  10.193  0.00  0.00    +0.025 A 
ATOM      8  C   LIG    1       10.598   0.192  11.564  0.00  0.00    +0.002 A 
ATOM      9  C   LIG    1       10.198   1.230  12.401  0.00  0.00    +0.000 A 
ATOM     10  C   LIG    1        9.494   2.309  11.872  0.00  0.00    +0.002 A 
ATOM     11  C   LIG    1        9.214   2.371  10.498  0.00  0.00    +0.025 A 
ENDBRANCH   3   6
BRANCH   4  12
ATOM     12  N   LIG    1        9.440   3.877   7.672  0.00  0.00    -0.282 N 
ATOM     13  H   LIG    1        9.755   4.137   8.598  0.00  0.00    +0.152 HD
ATOM     14  C   LIG    1        9.382   4.905   6.652  0.00  0.00    +0.247 C 
ATOM     15  O   LIG    1        9.127   4.605   5.476  0.00  0.00    -0.270 OA
BRANCH  14  16
ATOM     16  C   LIG    1        9.656   6.326   6.956  0.00  0.00    +0.056 A 
ATOM     17  C   LIG    1        9.480   6.917   8.202  0.00  0.00    +0.054 A 
ATOM     18 CL   LIG    1        8.977   6.056   9.603  0.00  0.00    -0.083 Cl
ATOM     19  C   LIG    1        9.692   8.292   8.344  0.00  0.00    +0.041 A 
ATOM     20  C   LIG    1       10.085   9.102   7.261  0.00  0.00    +0.052 A 
ATOM     21 CL   LIG    1       10.343  10.760   7.674  0.00  0.00    -0.083 Cl
ATOM     22  C   LIG    1       10.292   8.551   5.983  0.00  0.00    +0.022 A 
ATOM     23  C   LIG    1       10.054   7.154   5.877  0.00  0.00    +0.026 A 
BRANCH  22  24
ATOM     24  C   LIG    1       10.797   9.271   4.776  0.00  0.00    +0.107 A 
ATOM     25  C   LIG    1       10.530  10.595   4.422  0.00  0.00    +0.149 A 
ATOM     26  F   LIG    1        9.684  11.368   5.114  0.00  0.00    -0.203 F 
ATOM     27  C   LIG    1       11.110  11.147   3.280  0.00  0.00    +0.042 A 
ATOM     28  C   LIG    1       11.912  10.357   2.470  0.00  0.00    +0.023 A 
ATOM     29  C   LIG    1       12.103   9.041   2.842  0.00  0.00    +0.111 A 
ATOM     30  N   LIG    1       11.578   8.492   3.966  0.00  0.00    -0.252 NA
ENDBRANCH  22  24
ENDBRANCH  14  16
ENDBRANCH   4  12
BRANCH   1  32
ATOM     31  N   LIG    1        9.466  -1.444   5.028  0.00  0.00    -0.247 NA
ATOM     32  C   LIG    1        8.826  -0.336   5.122  0.00  0.00    +0.233 C 
BRANCH  32  33
ATOM     33  O   LIG    1        7.982   0.146   4.179  0.00  0.00    -0.491 OA
ATOM     34  H   LIG    1        7.962  -0.418   3.393  0.00  0.00    +0.294 HD
ENDBRANCH  32  33
BRANCH  31  35
ATOM     35  C   LIG    1        9.351  -2.303   3.841  0.00  0.00    +0.173 C 
BRANCH  35  36
ATOM     36  C   LIG    1       10.474  -2.016   2.824  0.00  0.00    +0.183 C 
BRANCH  36  37
ATOM     37  O   LIG    1       10.330  -0.702   2.276  0.00  0.00    -0.376 OA
BRANCH  37  38
ATOM     38  C   LIG    1       11.358  -0.346   1.335  0.00  0.00    +0.187 C 
BRANCH  38  39
ATOM     39  C   LIG    1       11.195  -0.983  -0.052  0.00  0.00    +0.184 C 
BRANCH  39  40
ATOM     40  O   LIG    1        9.946  -0.616  -0.632  0.00  0.00    -0.393 OA
ATOM     41  H   LIG    1       10.001  -0.815  -1.583  0.00  0.00    +0.209 HD
ENDBRANCH  39  40
ENDBRANCH  38  39
ENDBRANCH  37  38
ENDBRANCH  36  37
ENDBRANCH  35  36
ENDBRANCH  31  35
ENDBRANCH   1  32
TORSDOF 12
