REMARK  Name = pdb/CHEMBL3673483.pdb
REMARK                            x       y       z     vdW  Elec       q    Type
REMARK                         _______ _______ _______ _____ _____    ______ ____
ROOT
ATOM      1  C   LIG    1        5.493  -0.679 -13.568  0.00  0.00    +0.161 C 
ENDROOT
BRANCH   1   2
ATOM      2  N   LIG    1        6.797  -0.107 -13.778  0.00  0.00    -0.293 N 
ATOM      3  C   LIG    1        7.018   0.804 -14.793  0.00  0.00    +0.162 A 
ATOM      4  N   LIG    1        6.075   1.359 -15.574  0.00  0.00    -0.235 NA
ATOM      5  C   LIG    1        6.617   2.203 -16.488  0.00  0.00    +0.123 A 
ATOM      6  C   LIG    1        7.972   2.460 -16.685  0.00  0.00    +0.022 A 
ATOM      7  C   LIG    1        8.893   1.817 -15.834  0.00  0.00    +0.043 A 
ATOM      8  C   LIG    1        8.393   0.958 -14.832  0.00  0.00    +0.110 A 
ATOM      9  N   LIG    1        9.000   0.228 -13.888  0.00  0.00    -0.213 NA
ATOM     10  C   LIG    1        8.040  -0.376 -13.215  0.00  0.00    +0.195 A 
BRANCH   6  11
ATOM     11  C   LIG    1        8.437   3.349 -17.731  0.00  0.00    +0.094 A 
ATOM     12  N   LIG    1        9.656   3.201 -18.284  0.00  0.00    -0.171 NA
ATOM     13  N   LIG    1        9.733   4.170 -19.203  0.00  0.00    -0.274 N 
ATOM     14  C   LIG    1       10.939   4.296 -19.984  0.00  0.00    +0.172 C 
ATOM     15  C   LIG    1        8.621   4.954 -19.263  0.00  0.00    +0.108 A 
ATOM     16  C   LIG    1        7.759   4.448 -18.326  0.00  0.00    +0.049 A 
ENDBRANCH   6  11
BRANCH  10  17
ATOM     17  N   LIG    1        8.291  -1.133 -12.129  0.00  0.00    -0.329 N 
ATOM     18  H   LIG    1        9.244  -1.078 -11.812  0.00  0.00    +0.145 HD
ATOM     19  H   LIG    1        7.669  -1.060 -11.370  0.00  0.00    +0.145 HD
ENDBRANCH  10  17
ENDBRANCH   1   2
BRANCH   1  23
ATOM     20  C   LIG    1        5.474  -2.095  -9.503  0.00  0.00    +0.162 A 
ATOM     21  C   LIG    1        5.901  -2.945 -10.549  0.00  0.00    +0.162 A 
ATOM     22  C   LIG    1        5.764  -2.488 -11.864  0.00  0.00    +0.054 A 
ATOM     23  C   LIG    1        5.300  -1.204 -12.158  0.00  0.00    -0.024 A 
ATOM     24  C   LIG    1        4.894  -0.369 -11.140  0.00  0.00    +0.009 A 
ATOM     25  C   LIG    1        5.032  -0.795  -9.822  0.00  0.00    +0.050 A 
BRANCH  21  26
ATOM     26  O   LIG    1        6.556  -4.121 -10.269  0.00  0.00    -0.491 OA
ATOM     27  C   LIG    1        6.753  -5.067 -11.333  0.00  0.00    +0.277 C 
ENDBRANCH  21  26
BRANCH  20  28
ATOM     28  O   LIG    1        5.395  -2.592  -8.219  0.00  0.00    -0.484 OA
BRANCH  28  29
ATOM     29  C   LIG    1        4.896  -1.763  -7.136  0.00  0.00    +0.266 C 
BRANCH  29  33
ATOM     30  C   LIG    1        0.882  -0.292  -7.188  0.00  0.00    +0.214 A 
ATOM     31  N   LIG    1        1.647  -0.029  -6.102  0.00  0.00    -0.221 NA
ATOM     32  C   LIG    1        2.919  -0.518  -6.133  0.00  0.00    +0.121 A 
ATOM     33  C   LIG    1        3.456  -1.258  -7.183  0.00  0.00    +0.008 A 
ATOM     34  C   LIG    1        2.605  -1.495  -8.270  0.00  0.00    +0.013 A 
ATOM     35  C   LIG    1        1.321  -0.968  -8.292  0.00  0.00    +0.067 A 
BRANCH  30  37
ATOM     36  C   LIG    1       -0.902   0.701  -6.041  0.00  0.00    +0.279 C 
ATOM     37  O   LIG    1       -0.469   0.022  -7.203  0.00  0.00    -0.480 OA
ENDBRANCH  30  37
ENDBRANCH  29  33
ENDBRANCH  28  29
ENDBRANCH  20  28
ENDBRANCH   1  23
TORSDOF 9
