REMARK  Name = pdb/CHEMBL3902763.pdb
REMARK                            x       y       z     vdW  Elec       q    Type
REMARK                         _______ _______ _______ _____ _____    ______ ____
ROOT
ATOM      1  C   LIG    1        6.714  -3.667  -0.434  0.00  0.00    +0.098 A 
ATOM      2  C   LIG    1        8.051  -3.383  -0.230  0.00  0.00    +0.179 A 
ATOM      3  N   LIG    1        8.725  -2.213   0.024  0.00  0.00    -0.211 NA
ATOM      4  C   LIG    1       10.019  -2.282   0.255  0.00  0.00    +0.126 A 
ATOM      5  C   LIG    1       10.770  -3.595   0.204  0.00  0.00    +0.063 A 
ATOM      6  C   LIG    1       10.069  -4.697  -0.078  0.00  0.00    +0.118 A 
ATOM      7  N   LIG    1        8.706  -4.614  -0.299  0.00  0.00    -0.220 N 
ATOM      8  N   LIG    1        7.865  -5.636  -0.584  0.00  0.00    -0.171 NA
ATOM      9  C   LIG    1        6.666  -5.058  -0.658  0.00  0.00    +0.160 A 
ENDROOT
BRANCH   4  10
ATOM     10  N   LIG    1       10.736  -1.129   0.534  0.00  0.00    -0.308 N 
ATOM     11  C   LIG    1       10.238   0.228   0.279  0.00  0.00    +0.105 C 
ATOM     12  C   LIG    1       10.844   1.070   1.429  0.00  0.00    +0.029 C 
ATOM     13  C   LIG    1       11.667   0.107   2.275  0.00  0.00    +0.021 C 
ATOM     14  C   LIG    1       11.927  -1.077   1.364  0.00  0.00    +0.107 C 
BRANCH  11  15
ATOM     15  C   LIG    1       10.670   0.749  -1.095  0.00  0.00    -0.024 A 
ATOM     16  C   LIG    1       11.343  -0.059  -2.028  0.00  0.00    +0.043 A 
ATOM     17  C   LIG    1       11.717   0.444  -3.270  0.00  0.00    +0.124 A 
ATOM     18  F   LIG    1       12.364  -0.351  -4.133  0.00  0.00    -0.205 F 
ATOM     19  C   LIG    1       11.433   1.753  -3.628  0.00  0.00    +0.038 A 
ATOM     20  C   LIG    1       10.756   2.572  -2.729  0.00  0.00    +0.003 A 
ATOM     21  C   LIG    1       10.372   2.073  -1.476  0.00  0.00    +0.005 A 
ENDBRANCH  11  15
ENDBRANCH   4  10
BRANCH   1  23
ATOM     22  C   LIG    1        4.363  -3.014  -0.593  0.00  0.00    +0.268 C 
ATOM     23  N   LIG    1        5.699  -2.730  -0.401  0.00  0.00    -0.276 N 
ATOM     24  H   LIG    1        5.948  -1.762  -0.210  0.00  0.00    +0.155 HD
ATOM     25  O   LIG    1        3.894  -4.129  -0.823  0.00  0.00    -0.268 OA
BRANCH  22  29
ATOM     26  C   LIG    1        3.083   1.635  -0.171  0.00  0.00    +0.172 C 
ATOM     27  N   LIG    1        2.914   0.207  -0.298  0.00  0.00    -0.274 N 
ATOM     28  N   LIG    1        4.001  -0.588  -0.282  0.00  0.00    -0.167 NA
ATOM     29  C   LIG    1        3.502  -1.826  -0.496  0.00  0.00    +0.147 A 
ATOM     30  C   LIG    1        2.087  -1.786  -0.613  0.00  0.00    +0.054 A 
ATOM     31  C   LIG    1        1.742  -0.465  -0.468  0.00  0.00    +0.109 A 
ENDBRANCH  22  29
ENDBRANCH   1  23
TORSDOF 4
