REMARK  Name = pdb/CHEMBL3968810.pdb
REMARK                            x       y       z     vdW  Elec       q    Type
REMARK                         _______ _______ _______ _____ _____    ______ ____
ROOT
ATOM      1  C   LIG    1       -0.643  -6.594  -0.790  0.00  0.00    +0.323 A 
ATOM      2  N   LIG    1       -0.626  -5.801  -1.879  0.00  0.00    -0.201 NA
ATOM      3  C   LIG    1       -1.809  -5.598  -2.489  0.00  0.00    +0.145 A 
ATOM      4  C   LIG    1       -3.022  -6.061  -2.023  0.00  0.00    +0.105 A 
ATOM      5  C   LIG    1       -2.911  -6.896  -0.923  0.00  0.00    +0.145 A 
ATOM      6  N   LIG    1       -1.748  -7.167  -0.279  0.00  0.00    -0.201 NA
ENDROOT
BRANCH   4   7
ATOM      7  N   LIG    1       -4.239  -5.833  -2.674  0.00  0.00    -0.196 NA
ATOM      8  C   LIG    1       -4.642  -4.681  -3.113  0.00  0.00    +0.285 C 
BRANCH   8   9
ATOM      9  N   LIG    1       -5.744  -4.417  -3.859  0.00  0.00    -0.268 N 
ATOM     10  H   LIG    1       -5.789  -3.508  -4.304  0.00  0.00    +0.157 HD
BRANCH   9  11
ATOM     11  C   LIG    1       -6.743  -5.344  -4.207  0.00  0.00    +0.054 A 
ATOM     12  C   LIG    1       -7.413  -5.308  -5.444  0.00  0.00    +0.062 A 
ATOM     13 CL   LIG    1       -7.151  -4.017  -6.563  0.00  0.00    -0.082 Cl
ATOM     14  C   LIG    1       -8.309  -6.322  -5.804  0.00  0.00    +0.022 A 
ATOM     15  C   LIG    1       -8.568  -7.377  -4.925  0.00  0.00    +0.014 A 
ATOM     16  C   LIG    1       -7.936  -7.427  -3.680  0.00  0.00    +0.057 A 
ATOM     17  C   LIG    1       -7.034  -6.411  -3.343  0.00  0.00    +0.037 A 
BRANCH  16  18
ATOM     18  C   LIG    1       -8.209  -8.548  -2.711  0.00  0.00    +0.417 C 
ATOM     19  F   LIG    1       -7.907  -9.767  -3.231  0.00  0.00    -0.166 F 
ATOM     20  F   LIG    1       -9.519  -8.603  -2.348  0.00  0.00    -0.166 F 
ATOM     21  F   LIG    1       -7.504  -8.450  -1.549  0.00  0.00    -0.166 F 
ENDBRANCH  16  18
ENDBRANCH   9  11
ENDBRANCH   8   9
BRANCH   8  22
ATOM     22  O   LIG    1       -3.977  -3.537  -2.871  0.00  0.00    -0.481 OA
ATOM     23  H   LIG    1       -3.313  -3.629  -2.172  0.00  0.00    +0.295 HD
ENDBRANCH   8  22
ENDBRANCH   4   7
BRANCH   1  24
ATOM     24  O   LIG    1        0.526  -6.784  -0.061  0.00  0.00    -0.424 OA
BRANCH  24  28
ATOM     25  C   LIG    1        4.330  -6.432  -1.893  0.00  0.00    -0.014 A 
ATOM     26  C   LIG    1        4.082  -6.029  -0.563  0.00  0.00    +0.012 A 
ATOM     27  C   LIG    1        2.806  -6.142   0.023  0.00  0.00    +0.047 A 
ATOM     28  C   LIG    1        1.734  -6.653  -0.708  0.00  0.00    +0.132 A 
ATOM     29  C   LIG    1        1.963  -7.093  -2.008  0.00  0.00    +0.047 A 
ATOM     30  C   LIG    1        3.233  -6.975  -2.585  0.00  0.00    +0.012 A 
BRANCH  25  32
ATOM     31  C   LIG    1        5.912  -6.157  -3.910  0.00  0.00    +0.124 A 
ATOM     32  C   LIG    1        5.685  -6.344  -2.525  0.00  0.00    +0.023 A 
ATOM     33  C   LIG    1        6.850  -6.491  -1.742  0.00  0.00    +0.033 A 
ATOM     34  C   LIG    1        8.117  -6.461  -2.325  0.00  0.00    +0.060 A 
ATOM     35 CL   LIG    1        9.531  -6.634  -1.369  0.00  0.00    -0.082 Cl
ATOM     36  C   LIG    1        8.208  -6.295  -3.691  0.00  0.00    +0.133 A 
ATOM     37  N   LIG    1        7.133  -6.145  -4.491  0.00  0.00    -0.239 NA
BRANCH  31  38
ATOM     38  N   LIG    1        4.891  -5.950  -4.836  0.00  0.00    -0.343 N 
ATOM     39  H   LIG    1        4.346  -5.132  -4.588  0.00  0.00    +0.144 HD
ATOM     40  H   LIG    1        5.346  -5.836  -5.739  0.00  0.00    +0.144 HD
ENDBRANCH  31  38
ENDBRANCH  25  32
ENDBRANCH  24  28
ENDBRANCH   1  24
TORSDOF 9
