REMARK  Name = pdb/CHEMBL3915218.pdb
REMARK                            x       y       z     vdW  Elec       q    Type
REMARK                         _______ _______ _______ _____ _____    ______ ____
ROOT
ATOM      1  C   LIG    1        5.356  -2.556   5.472  0.00  0.00    +0.149 A 
ATOM      2  N   LIG    1        6.467  -2.603   6.229  0.00  0.00    -0.160 NA
ATOM      3  N   LIG    1        6.431  -1.463   6.991  0.00  0.00    -0.218 N 
ATOM      4  C   LIG    1        5.286  -0.690   6.710  0.00  0.00    +0.129 A 
ATOM      5  C   LIG    1        4.584  -1.414   5.771  0.00  0.00    +0.078 A 
ENDROOT
BRANCH   3   6
ATOM      6  C   LIG    1        7.490  -1.209   7.926  0.00  0.00    +0.067 A 
ATOM      7  C   LIG    1        7.273  -0.475   9.098  0.00  0.00    +0.028 A 
ATOM      8  C   LIG    1        8.313  -0.260  10.014  0.00  0.00    +0.002 A 
ATOM      9  C   LIG    1        9.578  -0.792   9.779  0.00  0.00    +0.000 A 
ATOM     10  C   LIG    1        9.808  -1.530   8.621  0.00  0.00    +0.002 A 
ATOM     11  C   LIG    1        8.771  -1.742   7.699  0.00  0.00    +0.028 A 
ENDBRANCH   3   6
BRANCH   4  12
ATOM     12  N   LIG    1        4.941   0.588   7.187  0.00  0.00    -0.266 N 
ATOM     13  H   LIG    1        5.592   1.043   7.822  0.00  0.00    +0.157 HD
ATOM     14  C   LIG    1        3.759   1.319   6.770  0.00  0.00    +0.251 C 
ATOM     15  O   LIG    1        2.972   0.858   5.976  0.00  0.00    -0.270 OA
BRANCH  14  16
ATOM     16  C   LIG    1        3.562   2.701   7.322  0.00  0.00    +0.056 A 
ATOM     17  C   LIG    1        3.970   3.115   8.588  0.00  0.00    +0.054 A 
ATOM     18 CL   LIG    1        4.728   2.079   9.733  0.00  0.00    -0.083 Cl
ATOM     19  C   LIG    1        3.709   4.417   9.015  0.00  0.00    +0.041 A 
ATOM     20  C   LIG    1        3.005   5.323   8.207  0.00  0.00    +0.052 A 
ATOM     21 CL   LIG    1        2.667   6.844   8.961  0.00  0.00    -0.083 Cl
ATOM     22  C   LIG    1        2.562   4.954   6.922  0.00  0.00    +0.019 A 
ATOM     23  C   LIG    1        2.864   3.625   6.513  0.00  0.00    +0.026 A 
BRANCH  22  24
ATOM     24  C   LIG    1        1.765   5.819   6.009  0.00  0.00    +0.072 A 
ATOM     25  N   LIG    1        0.884   5.143   5.224  0.00  0.00    -0.255 NA
ATOM     26  C   LIG    1        0.093   5.853   4.384  0.00  0.00    +0.111 A 
ATOM     27  C   LIG    1        0.118   7.230   4.283  0.00  0.00    +0.020 A 
ATOM     28  C   LIG    1        1.031   7.917   5.066  0.00  0.00    +0.004 A 
ATOM     29  C   LIG    1        1.879   7.205   5.915  0.00  0.00    +0.028 A 
ENDBRANCH  22  24
ENDBRANCH  14  16
ENDBRANCH   4  12
BRANCH   1  31
ATOM     30  N   LIG    1        4.260  -3.315   3.477  0.00  0.00    -0.246 NA
ATOM     31  C   LIG    1        5.035  -3.584   4.477  0.00  0.00    +0.236 C 
BRANCH  30  34
ATOM     32  C   LIG    1        2.380  -5.339   1.544  0.00  0.00    +0.119 C 
ATOM     33  C   LIG    1        2.875  -5.332   3.006  0.00  0.00    +0.058 C 
ATOM     34  C   LIG    1        4.032  -4.417   2.545  0.00  0.00    +0.114 C 
ATOM     35  C   LIG    1        3.120  -3.992   1.366  0.00  0.00    +0.058 C 
BRANCH  32  36
ATOM     36  O   LIG    1        2.851  -6.436   0.736  0.00  0.00    -0.392 OA
ATOM     37  H   LIG    1        2.495  -6.269  -0.154  0.00  0.00    +0.210 HD
ENDBRANCH  32  36
ENDBRANCH  30  34
BRANCH  31  38
ATOM     38  O   LIG    1        5.580  -4.802   4.693  0.00  0.00    -0.491 OA
ATOM     39  H   LIG    1        6.113  -4.785   5.508  0.00  0.00    +0.294 HD
ENDBRANCH  31  38
ENDBRANCH   1  31
TORSDOF 8
