REMARK  Name = pdb/CHEMBL3903796.pdb
REMARK                            x       y       z     vdW  Elec       q    Type
REMARK                         _______ _______ _______ _____ _____    ______ ____
ROOT
ATOM      1  C   LIG    1        2.314  -1.752  -0.038  0.00  0.00    +0.149 A 
ATOM      2  N   LIG    1        2.060  -3.041  -0.323  0.00  0.00    -0.160 NA
ATOM      3  N   LIG    1        3.273  -3.604  -0.549  0.00  0.00    -0.218 N 
ATOM      4  C   LIG    1        4.276  -2.629  -0.643  0.00  0.00    +0.129 A 
ATOM      5  C   LIG    1        3.686  -1.460  -0.227  0.00  0.00    +0.078 A 
ENDROOT
BRANCH   3   6
ATOM      6  C   LIG    1        3.377  -5.010  -0.744  0.00  0.00    +0.067 A 
ATOM      7  C   LIG    1        2.260  -5.726  -1.201  0.00  0.00    +0.028 A 
ATOM      8  C   LIG    1        2.346  -7.106  -1.406  0.00  0.00    +0.002 A 
ATOM      9  C   LIG    1        3.536  -7.781  -1.143  0.00  0.00    +0.000 A 
ATOM     10  C   LIG    1        4.641  -7.081  -0.667  0.00  0.00    +0.002 A 
ATOM     11  C   LIG    1        4.560  -5.702  -0.453  0.00  0.00    +0.028 A 
ENDBRANCH   3   6
BRANCH   4  12
ATOM     12  N   LIG    1        5.583  -2.804  -1.116  0.00  0.00    -0.266 N 
ATOM     13  H   LIG    1        5.916  -3.735  -1.261  0.00  0.00    +0.157 HD
ATOM     14  C   LIG    1        6.430  -1.720  -1.550  0.00  0.00    +0.251 C 
ATOM     15  O   LIG    1        6.017  -0.559  -1.542  0.00  0.00    -0.270 OA
BRANCH  14  16
ATOM     16  C   LIG    1        7.765  -2.037  -2.093  0.00  0.00    +0.056 A 
ATOM     17  C   LIG    1        8.527  -3.122  -1.674  0.00  0.00    +0.054 A 
ATOM     18 CL   LIG    1        8.061  -4.194  -0.405  0.00  0.00    -0.083 Cl
ATOM     19  C   LIG    1        9.767  -3.361  -2.265  0.00  0.00    +0.041 A 
ATOM     20  C   LIG    1       10.269  -2.519  -3.270  0.00  0.00    +0.052 A 
ATOM     21 CL   LIG    1       11.788  -3.021  -3.932  0.00  0.00    -0.083 Cl
ATOM     22  C   LIG    1        9.547  -1.390  -3.703  0.00  0.00    +0.019 A 
ATOM     23  C   LIG    1        8.274  -1.191  -3.092  0.00  0.00    +0.026 A 
BRANCH  22  24
ATOM     24  C   LIG    1        9.991  -0.406  -4.729  0.00  0.00    +0.072 A 
ATOM     25  N   LIG    1        8.982   0.199  -5.412  0.00  0.00    -0.255 NA
ATOM     26  C   LIG    1        9.297   1.160  -6.315  0.00  0.00    +0.111 A 
ATOM     27  C   LIG    1       10.590   1.561  -6.592  0.00  0.00    +0.020 A 
ATOM     28  C   LIG    1       11.618   0.941  -5.902  0.00  0.00    +0.004 A 
ATOM     29  C   LIG    1       11.317  -0.037  -4.954  0.00  0.00    +0.028 A 
ENDBRANCH  22  24
ENDBRANCH  14  16
ENDBRANCH   4  12
BRANCH   1  30
ATOM     30  C   LIG    1        1.271  -0.809   0.370  0.00  0.00    +0.236 C 
ATOM     31  N   LIG    1        1.594   0.245   1.046  0.00  0.00    -0.246 NA
BRANCH  31  32
ATOM     32  C   LIG    1        0.636   1.213   1.476  0.00  0.00    +0.109 C 
ATOM     33  C   LIG    1        1.141   2.631   1.549  0.00  0.00    +0.029 C 
ATOM     34  C   LIG    1        0.905   1.865   2.809  0.00  0.00    +0.029 C 
ENDBRANCH  31  32
BRANCH  30  35
ATOM     35  O   LIG    1        0.024  -1.138  -0.025  0.00  0.00    -0.491 OA
ATOM     36  H   LIG    1       -0.633  -0.502   0.276  0.00  0.00    +0.294 HD
ENDBRANCH  30  35
ENDBRANCH   1  30
TORSDOF 7
