REMARK  Name = pdb/CHEMBL3919320.pdb
REMARK                            x       y       z     vdW  Elec       q    Type
REMARK                         _______ _______ _______ _____ _____    ______ ____
ROOT
ATOM      1  C   LIG    1       -0.048  -7.224  -2.035  0.00  0.00    +0.323 A 
ATOM      2  N   LIG    1        0.977  -7.461  -2.860  0.00  0.00    -0.201 NA
ATOM      3  C   LIG    1        0.641  -7.971  -4.063  0.00  0.00    +0.145 A 
ATOM      4  C   LIG    1       -0.633  -8.350  -4.455  0.00  0.00    +0.105 A 
ATOM      5  C   LIG    1       -1.602  -8.027  -3.526  0.00  0.00    +0.145 A 
ATOM      6  N   LIG    1       -1.327  -7.509  -2.325  0.00  0.00    -0.201 NA
ENDROOT
BRANCH   4   7
ATOM      7  N   LIG    1       -1.026  -8.918  -5.648  0.00  0.00    -0.196 NA
ATOM      8  C   LIG    1       -0.390  -9.923  -6.202  0.00  0.00    +0.285 C 
BRANCH   8   9
ATOM      9  N   LIG    1       -0.719 -10.591  -7.313  0.00  0.00    -0.269 N 
ATOM     10  H   LIG    1        0.093 -10.804  -7.895  0.00  0.00    +0.157 HD
BRANCH   9  11
ATOM     11  C   LIG    1       -1.973 -10.863  -7.883  0.00  0.00    +0.043 A 
ATOM     12  C   LIG    1       -2.170 -11.038  -9.284  0.00  0.00    +0.005 A 
ATOM     13  C   LIG    1       -3.501 -11.278  -9.705  0.00  0.00    +0.011 A 
ATOM     14  C   LIG    1       -4.585 -11.354  -8.808  0.00  0.00    +0.013 A 
ATOM     15  C   LIG    1       -4.382 -11.217  -7.435  0.00  0.00    +0.057 A 
ATOM     16  C   LIG    1       -3.080 -10.963  -6.995  0.00  0.00    +0.036 A 
BRANCH  12  17
ATOM     17  C   LIG    1       -1.057 -11.016 -10.307  0.00  0.00    +0.002 A 
ATOM     18  C   LIG    1        0.089 -10.219 -10.195  0.00  0.00    +0.119 A 
ATOM     19  N   LIG    1        1.167 -10.223 -11.026  0.00  0.00    -0.263 NA
ATOM     20  C   LIG    1        1.100 -11.027 -12.099  0.00  0.00    +0.111 A 
ATOM     21  C   LIG    1        0.003 -11.818 -12.372  0.00  0.00    +0.020 A 
ATOM     22  C   LIG    1       -1.078 -11.802 -11.476  0.00  0.00    +0.011 A 
ENDBRANCH  12  17
BRANCH  15  23
ATOM     23  C   LIG    1       -5.516 -11.319  -6.441  0.00  0.00    +0.417 C 
ATOM     24  F   LIG    1       -6.167 -12.514  -6.498  0.00  0.00    -0.166 F 
ATOM     25  F   LIG    1       -6.467 -10.365  -6.634  0.00  0.00    -0.166 F 
ATOM     26  F   LIG    1       -5.115 -11.182  -5.144  0.00  0.00    -0.166 F 
ENDBRANCH  15  23
ENDBRANCH   9  11
ENDBRANCH   8   9
BRANCH   8  27
ATOM     27  O   LIG    1        0.771 -10.424  -5.766  0.00  0.00    -0.481 OA
ATOM     28  H   LIG    1        1.397  -9.749  -5.493  0.00  0.00    +0.295 HD
ENDBRANCH   8  27
ENDBRANCH   4   7
BRANCH   1  29
ATOM     29  O   LIG    1        0.281  -6.642  -0.820  0.00  0.00    -0.424 OA
BRANCH  29  33
ATOM     30  C   LIG    1       -2.203  -3.752   0.932  0.00  0.00    +0.002 A 
ATOM     31  C   LIG    1       -0.808  -3.728   1.073  0.00  0.00    +0.013 A 
ATOM     32  C   LIG    1       -0.004  -4.706   0.476  0.00  0.00    +0.047 A 
ATOM     33  C   LIG    1       -0.588  -5.732  -0.264  0.00  0.00    +0.132 A 
ATOM     34  C   LIG    1       -1.980  -5.786  -0.344  0.00  0.00    +0.047 A 
ATOM     35  C   LIG    1       -2.777  -4.801   0.222  0.00  0.00    +0.013 A 
BRANCH  30  39
ATOM     36  C   LIG    1       -1.569   0.435   1.772  0.00  0.00    +0.233 A 
ATOM     37  N   LIG    1       -1.589  -0.796   1.392  0.00  0.00    -0.127 NA
ATOM     38  N   LIG    1       -2.762  -1.422   1.739  0.00  0.00    -0.209 N 
ATOM     39  C   LIG    1       -3.081  -2.748   1.524  0.00  0.00    +0.093 A 
ATOM     40  C   LIG    1       -4.397  -2.854   1.951  0.00  0.00    +0.141 A 
ATOM     41  N   LIG    1       -4.861  -1.683   2.486  0.00  0.00    -0.234 NA
ATOM     42  C   LIG    1       -3.855  -0.845   2.374  0.00  0.00    +0.155 A 
ATOM     43  C   LIG    1       -3.729   0.495   2.797  0.00  0.00    +0.053 A 
ATOM     44  C   LIG    1       -2.606   1.166   2.520  0.00  0.00    +0.072 A 
BRANCH  36  46
ATOM     45  C   LIG    1        0.743   0.699   1.278  0.00  0.00    +0.279 C 
ATOM     46  O   LIG    1       -0.536   1.281   1.551  0.00  0.00    -0.479 OA
ENDBRANCH  36  46
ENDBRANCH  30  39
ENDBRANCH  29  33
ENDBRANCH   1  29
TORSDOF 10
