REMARK  Name = pdb/CHEMBL3909333.pdb
REMARK                            x       y       z     vdW  Elec       q    Type
REMARK                         _______ _______ _______ _____ _____    ______ ____
ROOT
ATOM      1  C   LIG    1        3.371  -2.068   0.859  0.00  0.00    +0.149 A 
ATOM      2  N   LIG    1        2.982  -2.626   2.014  0.00  0.00    -0.160 NA
ATOM      3  N   LIG    1        3.992  -2.410   2.887  0.00  0.00    -0.218 N 
ATOM      4  C   LIG    1        4.984  -1.588   2.338  0.00  0.00    +0.129 A 
ATOM      5  C   LIG    1        4.584  -1.363   1.040  0.00  0.00    +0.078 A 
ENDROOT
BRANCH   3   6
ATOM      6  C   LIG    1        3.922  -3.012   4.173  0.00  0.00    +0.067 A 
ATOM      7  C   LIG    1        5.072  -3.359   4.885  0.00  0.00    +0.028 A 
ATOM      8  C   LIG    1        4.964  -3.926   6.160  0.00  0.00    +0.002 A 
ATOM      9  C   LIG    1        3.710  -4.165   6.718  0.00  0.00    +0.000 A 
ATOM     10  C   LIG    1        2.559  -3.868   5.992  0.00  0.00    +0.002 A 
ATOM     11  C   LIG    1        2.662  -3.308   4.718  0.00  0.00    +0.028 A 
ENDBRANCH   3   6
BRANCH   4  12
ATOM     12  N   LIG    1        6.102  -1.021   2.980  0.00  0.00    -0.266 N 
ATOM     13  H   LIG    1        6.140  -1.071   3.987  0.00  0.00    +0.157 HD
ATOM     14  C   LIG    1        7.191  -0.405   2.249  0.00  0.00    +0.251 C 
ATOM     15  O   LIG    1        7.187  -0.368   1.038  0.00  0.00    -0.270 OA
BRANCH  14  16
ATOM     16  C   LIG    1        8.331   0.183   2.994  0.00  0.00    +0.056 A 
ATOM     17  C   LIG    1        8.798  -0.285   4.217  0.00  0.00    +0.054 A 
ATOM     18 CL   LIG    1        8.137  -1.640   5.041  0.00  0.00    -0.083 Cl
ATOM     19  C   LIG    1        9.894   0.327   4.826  0.00  0.00    +0.041 A 
ATOM     20  C   LIG    1       10.550   1.410   4.224  0.00  0.00    +0.052 A 
ATOM     21 CL   LIG    1       11.792   2.124   5.197  0.00  0.00    -0.083 Cl
ATOM     22  C   LIG    1       10.163   1.883   2.956  0.00  0.00    +0.019 A 
ATOM     23  C   LIG    1        9.023   1.254   2.379  0.00  0.00    +0.026 A 
BRANCH  22  24
ATOM     24  C   LIG    1       10.847   2.962   2.189  0.00  0.00    +0.072 A 
ATOM     25  N   LIG    1       10.048   3.651   1.330  0.00  0.00    -0.255 NA
ATOM     26  C   LIG    1       10.611   4.620   0.566  0.00  0.00    +0.111 A 
ATOM     27  C   LIG    1       11.947   4.966   0.616  0.00  0.00    +0.020 A 
ATOM     28  C   LIG    1       12.762   4.261   1.485  0.00  0.00    +0.004 A 
ATOM     29  C   LIG    1       12.214   3.236   2.257  0.00  0.00    +0.028 A 
ENDBRANCH  22  24
ENDBRANCH  14  16
ENDBRANCH   4  12
BRANCH   1  30
ATOM     30  C   LIG    1        2.597  -2.195  -0.379  0.00  0.00    +0.236 C 
ATOM     31  N   LIG    1        1.554  -2.936  -0.416  0.00  0.00    -0.243 NA
BRANCH  30  32
ATOM     32  O   LIG    1        3.099  -1.492  -1.417  0.00  0.00    -0.491 OA
ATOM     33  H   LIG    1        2.603  -1.643  -2.236  0.00  0.00    +0.294 HD
ENDBRANCH  30  32
BRANCH  31  34
ATOM     34  C   LIG    1        0.774  -3.131  -1.629  0.00  0.00    +0.200 C 
BRANCH  34  35
ATOM     35  C   LIG    1        1.233  -4.321  -2.442  0.00  0.00    +0.063 A 
ATOM     36  N   LIG    1        1.691  -4.070  -3.695  0.00  0.00    -0.258 NA
ATOM     37  C   LIG    1        2.086  -5.136  -4.430  0.00  0.00    +0.111 A 
ATOM     38  C   LIG    1        2.075  -6.443  -3.971  0.00  0.00    +0.020 A 
ATOM     39  C   LIG    1        1.621  -6.681  -2.680  0.00  0.00    +0.003 A 
ATOM     40  C   LIG    1        1.188  -5.608  -1.903  0.00  0.00    +0.025 A 
ENDBRANCH  34  35
ENDBRANCH  31  34
ENDBRANCH   1  30
TORSDOF 8
