REMARK  Name = pdb/CHEMBL3671469.pdb
REMARK                            x       y       z     vdW  Elec       q    Type
REMARK                         _______ _______ _______ _____ _____    ______ ____
ROOT
ATOM      1  C   LIG    1        6.845   2.392  -0.307  0.00  0.00    +0.042 A 
ATOM      2  C   LIG    1        5.778   3.057   0.313  0.00  0.00    +0.038 A 
ATOM      3  C   LIG    1        5.560   4.415   0.081  0.00  0.00    +0.052 A 
ATOM      4  C   LIG    1        6.464   5.067  -0.752  0.00  0.00    +0.134 A 
ATOM      5  N   LIG    1        7.538   4.462  -1.326  0.00  0.00    -0.261 NA
ATOM      6  C   LIG    1        7.712   3.140  -1.084  0.00  0.00    +0.122 A 
ENDROOT
BRANCH   3   7
ATOM      7  N   LIG    1        4.435   5.001   0.702  0.00  0.00    -0.283 N 
ATOM      8  H   LIG    1        3.850   4.382   1.254  0.00  0.00    +0.155 HD
ATOM      9  C   LIG    1        4.045   6.327   0.609  0.00  0.00    +0.239 C 
ATOM     10  O   LIG    1        4.634   7.196  -0.027  0.00  0.00    -0.273 OA
BRANCH   9  11
ATOM     11  C   LIG    1        2.766   6.638   1.353  0.00  0.00    +0.239 C 
BRANCH  11  12
ATOM     12  N   LIG    1        1.593   6.459   0.517  0.00  0.00    -0.262 N 
ATOM     13  N   LIG    1        0.440   6.055   1.090  0.00  0.00    -0.167 NA
ATOM     14  C   LIG    1       -0.457   6.048   0.079  0.00  0.00    +0.165 A 
ATOM     15  C   LIG    1        0.169   6.405  -1.145  0.00  0.00    +0.053 A 
ATOM     16  C   LIG    1        1.478   6.666  -0.826  0.00  0.00    +0.109 A 
BRANCH  14  17
ATOM     17  C   LIG    1       -1.910   5.699   0.270  0.00  0.00    +0.436 C 
ATOM     18  F   LIG    1       -2.542   6.546   1.125  0.00  0.00    -0.164 F 
ATOM     19  F   LIG    1       -2.082   4.440   0.753  0.00  0.00    -0.164 F 
ATOM     20  F   LIG    1       -2.600   5.755  -0.905  0.00  0.00    -0.164 F 
ENDBRANCH  14  17
ENDBRANCH  11  12
ENDBRANCH   9  11
ENDBRANCH   3   7
BRANCH   1  21
ATOM     21  C   LIG    1        7.063   0.928  -0.158  0.00  0.00    +0.197 C 
ATOM     22  O   LIG    1        8.201   0.484  -0.162  0.00  0.00    -0.287 OA
BRANCH  21  28
ATOM     23  C   LIG    1        4.847  -3.407   1.884  0.00  0.00    +0.214 A 
ATOM     24  N   LIG    1        3.946  -2.684   1.217  0.00  0.00    -0.197 NA
ATOM     25  C   LIG    1        4.469  -1.599   0.624  0.00  0.00    +0.147 A 
ATOM     26  N   LIG    1        3.794  -0.695  -0.149  0.00  0.00    -0.325 N 
ATOM     27  C   LIG    1        4.630   0.314  -0.534  0.00  0.00    +0.100 A 
ATOM     28  C   LIG    1        5.890   0.066  -0.007  0.00  0.00    +0.051 A 
ATOM     29  C   LIG    1        5.794  -1.185   0.687  0.00  0.00    +0.048 A 
ATOM     30  C   LIG    1        6.648  -2.019   1.403  0.00  0.00    +0.126 A 
ATOM     31  N   LIG    1        6.152  -3.127   2.007  0.00  0.00    -0.222 NA
BRANCH  26  32
ATOM     32  C   LIG    1        2.435  -0.740  -0.463  0.00  0.00    +0.048 C 
ATOM     33  C   LIG    1        1.538   0.426  -1.008  0.00  0.00    +0.032 C 
ATOM     34  C   LIG    1        0.692  -0.942  -1.131  0.00  0.00    -0.004 C 
ATOM     35  C   LIG    1        1.319  -1.610   0.195  0.00  0.00    +0.032 C 
ATOM     36  C   LIG    1        2.017  -1.473  -1.792  0.00  0.00    +0.032 C 
ENDBRANCH  26  32
BRANCH  23  37
ATOM     37  N   LIG    1        4.379  -4.510   2.573  0.00  0.00    -0.327 N 
ATOM     38  H   LIG    1        3.410  -4.369   2.821  0.00  0.00    +0.145 HD
ATOM     39  H   LIG    1        5.019  -4.726   3.324  0.00  0.00    +0.145 HD
ENDBRANCH  23  37
ENDBRANCH  21  28
ENDBRANCH   1  21
TORSDOF 8
