REMARK  Name = pdb/CHEMBL3969188.pdb
REMARK                            x       y       z     vdW  Elec       q    Type
REMARK                         _______ _______ _______ _____ _____    ______ ____
ROOT
ATOM      1  C   LIG    1        2.331   5.433  -2.020  0.00  0.00    +0.141 C 
ATOM      2  C   LIG    1        1.289   6.294  -1.794  0.00  0.00    +0.350 C 
ATOM      3  N   LIG    1       -0.074   6.188  -1.940  0.00  0.00    -0.041 NA
ATOM      4  C   LIG    1       -0.809   7.159  -1.455  0.00  0.00    +0.313 C 
ATOM      5  C   LIG    1       -0.214   8.350  -0.748  0.00  0.00    +0.115 C 
ATOM      6  C   LIG    1        1.123   8.466  -0.756  0.00  0.00    +0.106 C 
ATOM      7  N   LIG    1        1.893   7.459  -1.309  0.00  0.00    -0.181 N 
ATOM      8  N   LIG    1        3.240   7.447  -1.460  0.00  0.00    -0.151 NA
ATOM      9  C   LIG    1        3.490   6.223  -1.931  0.00  0.00    +0.146 C 
ENDROOT
BRANCH   4  10
ATOM     10  N   LIG    1       -2.195   7.129  -1.594  0.00  0.00    -0.214 N 
ATOM     11  C   LIG    1       -2.764   7.370  -2.950  0.00  0.00    +0.201 C 
ATOM     12  C   LIG    1       -3.414   6.017  -3.299  0.00  0.00    +0.056 C 
ATOM     13  C   LIG    1       -4.027   5.614  -1.975  0.00  0.00    +0.048 C 
ATOM     14  C   LIG    1       -2.921   5.992  -1.005  0.00  0.00    +0.226 C 
BRANCH  11  15
ATOM     15  C   LIG    1       -3.715   8.559  -2.855  0.00  0.00    +0.033 A 
ATOM     16  C   LIG    1       -4.808   8.730  -3.710  0.00  0.00    +0.131 A 
ATOM     17  F   LIG    1       -5.080   7.839  -4.670  0.00  0.00    -0.205 F 
ATOM     18  C   LIG    1       -5.654   9.837  -3.608  0.00  0.00    +0.041 A 
ATOM     19  C   LIG    1       -5.401  10.828  -2.664  0.00  0.00    +0.041 A 
ATOM     20  C   LIG    1       -4.316  10.688  -1.818  0.00  0.00    +0.124 A 
ATOM     21  F   LIG    1       -4.047  11.632  -0.908  0.00  0.00    -0.205 F 
ATOM     22  C   LIG    1       -3.490   9.576  -1.907  0.00  0.00    +0.048 A 
ENDBRANCH  11  15
ENDBRANCH   4  10
BRANCH   1  24
ATOM     23  C   LIG    1        1.437   3.280  -2.132  0.00  0.00    +0.241 C 
ATOM     24  N   LIG    1        2.338   4.114  -2.489  0.00  0.00    -0.208 NA
BRANCH  23  29
ATOM     25  C   LIG    1       -3.005   3.175   1.469  0.00  0.00    +0.067 C 
ATOM     26  C   LIG    1       -1.824   3.181   0.548  0.00  0.00    +0.056 A 
ATOM     27  N   LIG    1       -1.970   2.564  -0.650  0.00  0.00    -0.256 NA
ATOM     28  C   LIG    1       -0.915   2.672  -1.503  0.00  0.00    +0.144 A 
ATOM     29  C   LIG    1        0.273   3.321  -1.176  0.00  0.00    +0.143 A 
ATOM     30  N   LIG    1        0.426   3.931   0.029  0.00  0.00    -0.247 NA
ATOM     31  C   LIG    1       -0.660   3.892   0.847  0.00  0.00    +0.134 A 
ENDBRANCH  23  29
BRANCH  23  32
ATOM     32  O   LIG    1        1.545   2.048  -2.719  0.00  0.00    -0.491 OA
ATOM     33  H   LIG    1        0.959   1.359  -2.377  0.00  0.00    +0.294 HD
ENDBRANCH  23  32
ENDBRANCH   1  24
TORSDOF 5
