REMARK  Name = pdb/CHEMBL3898851.pdb
REMARK                            x       y       z     vdW  Elec       q    Type
REMARK                         _______ _______ _______ _____ _____    ______ ____
ROOT
ATOM      1  C   LIG    1        0.333  -4.110   0.953  0.00  0.00    +0.149 A 
ATOM      2  N   LIG    1       -0.863  -4.700   0.804  0.00  0.00    -0.160 NA
ATOM      3  N   LIG    1       -0.597  -6.010   0.554  0.00  0.00    -0.218 N 
ATOM      4  C   LIG    1        0.783  -6.258   0.529  0.00  0.00    +0.129 A 
ATOM      5  C   LIG    1        1.376  -5.040   0.754  0.00  0.00    +0.078 A 
ENDROOT
BRANCH   3   6
ATOM      6  C   LIG    1       -1.675  -6.910   0.314  0.00  0.00    +0.067 A 
ATOM      7  C   LIG    1       -1.571  -8.279   0.578  0.00  0.00    +0.028 A 
ATOM      8  C   LIG    1       -2.614  -9.149   0.240  0.00  0.00    +0.002 A 
ATOM      9  C   LIG    1       -3.778  -8.651  -0.341  0.00  0.00    +0.000 A 
ATOM     10  C   LIG    1       -3.914  -7.281  -0.550  0.00  0.00    +0.002 A 
ATOM     11  C   LIG    1       -2.876  -6.410  -0.209  0.00  0.00    +0.028 A 
ENDBRANCH   3   6
BRANCH   4  12
ATOM     12  N   LIG    1        1.458  -7.451   0.221  0.00  0.00    -0.266 N 
ATOM     13  H   LIG    1        0.926  -8.195  -0.212  0.00  0.00    +0.157 HD
ATOM     14  C   LIG    1        2.858  -7.658   0.511  0.00  0.00    +0.251 C 
ATOM     15  O   LIG    1        3.526  -6.791   1.077  0.00  0.00    -0.270 OA
BRANCH  14  16
ATOM     16  C   LIG    1        3.495  -8.928   0.087  0.00  0.00    +0.056 A 
ATOM     17  C   LIG    1        2.831 -10.145   0.036  0.00  0.00    +0.054 A 
ATOM     18 CL   LIG    1        1.212 -10.385   0.554  0.00  0.00    -0.083 Cl
ATOM     19  C   LIG    1        3.502 -11.281  -0.406  0.00  0.00    +0.041 A 
ATOM     20  C   LIG    1        4.853 -11.232  -0.775  0.00  0.00    +0.052 A 
ATOM     21 CL   LIG    1        5.521 -12.763  -1.224  0.00  0.00    -0.083 Cl
ATOM     22  C   LIG    1        5.582 -10.028  -0.714  0.00  0.00    +0.019 A 
ATOM     23  C   LIG    1        4.863  -8.887  -0.255  0.00  0.00    +0.026 A 
BRANCH  22  24
ATOM     24  C   LIG    1        7.019  -9.864  -1.069  0.00  0.00    +0.073 A 
ATOM     25  N   LIG    1        7.659  -8.872  -0.391  0.00  0.00    -0.252 NA
ATOM     26  C   LIG    1        8.965  -8.630  -0.683  0.00  0.00    +0.149 A 
ATOM     27  C   LIG    1        9.682  -9.340  -1.623  0.00  0.00    +0.141 A 
ATOM     28  F   LIG    1       10.964  -9.053  -1.875  0.00  0.00    -0.204 F 
ATOM     29  C   LIG    1        9.040 -10.347  -2.316  0.00  0.00    +0.042 A 
ATOM     30  C   LIG    1        7.691 -10.598  -2.052  0.00  0.00    +0.031 A 
ENDBRANCH  22  24
ENDBRANCH  14  16
ENDBRANCH   4  12
BRANCH   1  32
ATOM     31  N   LIG    1        1.535  -2.071   0.814  0.00  0.00    -0.208 NA
ATOM     32  C   LIG    1        0.505  -2.692   1.285  0.00  0.00    +0.241 C 
BRANCH  31  35
ATOM     33  C   LIG    1        4.433  -0.982   0.787  0.00  0.00    +0.070 C 
ATOM     34  C   LIG    1        3.168  -0.243   1.020  0.00  0.00    +0.085 A 
ATOM     35  C   LIG    1        1.827  -0.728   1.072  0.00  0.00    +0.111 A 
ATOM     36  C   LIG    1        1.047   0.397   1.252  0.00  0.00    +0.059 A 
ATOM     37  C   LIG    1       -0.401   0.701   1.350  0.00  0.00    +0.067 C 
ATOM     38  N   LIG    1        1.939   1.440   1.319  0.00  0.00    -0.279 N 
ATOM     39  H   LIG    1        1.734   2.428   1.425  0.00  0.00    +0.189 HD
ATOM     40  N   LIG    1        3.220   1.082   1.201  0.00  0.00    -0.177 NA
ENDBRANCH  31  35
BRANCH  32  41
ATOM     41  O   LIG    1       -0.412  -2.208   2.144  0.00  0.00    -0.491 OA
ATOM     42  H   LIG    1       -0.117  -1.362   2.497  0.00  0.00    +0.294 HD
ENDBRANCH  32  41
ENDBRANCH   1  32
TORSDOF 7
