REMARK  Name = pdb/CHEMBL3894182.pdb
REMARK                            x       y       z     vdW  Elec       q    Type
REMARK                         _______ _______ _______ _____ _____    ______ ____
ROOT
ATOM      1  C   LIG    1        2.147  -2.101   0.469  0.00  0.00    +0.149 A 
ATOM      2  N   LIG    1        2.768  -3.283   0.330  0.00  0.00    -0.160 NA
ATOM      3  N   LIG    1        3.750  -3.302   1.295  0.00  0.00    -0.218 N 
ATOM      4  C   LIG    1        3.660  -2.163   2.102  0.00  0.00    +0.129 A 
ATOM      5  C   LIG    1        2.653  -1.382   1.572  0.00  0.00    +0.078 A 
ENDROOT
BRANCH   3   6
ATOM      6  C   LIG    1        4.712  -4.366   1.288  0.00  0.00    +0.067 A 
ATOM      7  C   LIG    1        4.615  -5.368   0.308  0.00  0.00    +0.028 A 
ATOM      8  C   LIG    1        5.509  -6.445   0.293  0.00  0.00    +0.002 A 
ATOM      9  C   LIG    1        6.506  -6.543   1.259  0.00  0.00    +0.000 A 
ATOM     10  C   LIG    1        6.629  -5.547   2.220  0.00  0.00    +0.002 A 
ATOM     11  C   LIG    1        5.756  -4.454   2.216  0.00  0.00    +0.028 A 
ENDBRANCH   3   6
BRANCH   4  12
ATOM     12  N   LIG    1        4.406  -1.719   3.193  0.00  0.00    -0.266 N 
ATOM     13  H   LIG    1        4.691  -0.749   3.192  0.00  0.00    +0.157 HD
ATOM     14  C   LIG    1        4.462  -2.476   4.418  0.00  0.00    +0.251 C 
ATOM     15  O   LIG    1        3.918  -3.550   4.489  0.00  0.00    -0.270 OA
BRANCH  14  16
ATOM     16  C   LIG    1        5.264  -1.909   5.539  0.00  0.00    +0.056 A 
ATOM     17  C   LIG    1        5.371  -0.546   5.789  0.00  0.00    +0.054 A 
ATOM     18 CL   LIG    1        4.558   0.661   4.859  0.00  0.00    -0.083 Cl
ATOM     19  C   LIG    1        6.150  -0.095   6.854  0.00  0.00    +0.041 A 
ATOM     20  C   LIG    1        6.831  -0.996   7.685  0.00  0.00    +0.052 A 
ATOM     21 CL   LIG    1        7.844  -0.254   8.879  0.00  0.00    -0.083 Cl
ATOM     22  C   LIG    1        6.721  -2.389   7.496  0.00  0.00    +0.019 A 
ATOM     23  C   LIG    1        5.930  -2.815   6.392  0.00  0.00    +0.026 A 
BRANCH  22  24
ATOM     24  C   LIG    1        7.381  -3.419   8.342  0.00  0.00    +0.073 A 
ATOM     25  N   LIG    1        7.750  -4.550   7.681  0.00  0.00    -0.252 NA
ATOM     26  C   LIG    1        8.359  -5.534   8.396  0.00  0.00    +0.149 A 
ATOM     27  C   LIG    1        8.635  -5.443   9.745  0.00  0.00    +0.141 A 
ATOM     28  F   LIG    1        9.252  -6.438  10.392  0.00  0.00    -0.204 F 
ATOM     29  C   LIG    1        8.248  -4.303  10.422  0.00  0.00    +0.042 A 
ATOM     30  C   LIG    1        7.589  -3.293   9.720  0.00  0.00    +0.031 A 
ENDBRANCH  22  24
ENDBRANCH  14  16
ENDBRANCH   4  12
BRANCH   1  31
ATOM     31  C   LIG    1        1.073  -1.698  -0.438  0.00  0.00    +0.236 C 
ATOM     32  N   LIG    1        0.772  -0.458  -0.578  0.00  0.00    -0.248 NA
BRANCH  31  33
ATOM     33  O   LIG    1        0.449  -2.706  -1.089  0.00  0.00    -0.491 OA
ATOM     34  H   LIG    1        0.846  -3.557  -0.824  0.00  0.00    +0.294 HD
ENDBRANCH  31  33
BRANCH  32  35
ATOM     35  C   LIG    1       -0.285  -0.167  -1.551  0.00  0.00    +0.162 C 
BRANCH  35  36
ATOM     36  C   LIG    1       -0.469   1.330  -1.613  0.00  0.00    +0.052 C 
ATOM     37  C   LIG    1       -1.428   1.927  -0.678  0.00  0.00    +0.028 C 
ATOM     38  C   LIG    1       -1.614   3.256  -0.672  0.00  0.00    +0.184 C 
ATOM     39  N   LIG    1       -0.925   4.072  -1.529  0.00  0.00    -0.210 N 
ATOM     40  H   LIG    1       -1.067   5.073  -1.503  0.00  0.00    +0.298 HD
ATOM     41  C   LIG    1       -0.026   3.583  -2.438  0.00  0.00    +0.295 C 
ATOM     42  C   LIG    1        0.206   2.104  -2.492  0.00  0.00    +0.083 C 
BRANCH  41  43
ATOM     43  N   LIG    1        0.603   4.402  -3.221  0.00  0.00    -0.071 NA
ATOM     44  H   LIG    1        1.237   3.890  -3.841  0.00  0.00    +0.348 HD
ENDBRANCH  41  43
ENDBRANCH  35  36
ENDBRANCH  32  35
ENDBRANCH   1  31
TORSDOF 9
