REMARK  Name = pdb/CHEMBL3937136.pdb
REMARK                            x       y       z     vdW  Elec       q    Type
REMARK                         _______ _______ _______ _____ _____    ______ ____
ROOT
ATOM      1  C   LIG    1        4.116  -1.557   3.959  0.00  0.00    +0.197 C 
ATOM      2  O   LIG    1        4.242  -2.653   4.527  0.00  0.00    -0.287 OA
ENDROOT
BRANCH   1  11
ATOM      3  N   LIG    1        2.507  -0.811   0.738  0.00  0.00    -0.336 N 
ATOM      4  C   LIG    1        1.671  -1.829   1.206  0.00  0.00    +0.089 A 
ATOM      5  C   LIG    1        0.514  -2.454   0.720  0.00  0.00    +0.165 A 
ATOM      6  F   LIG    1       -0.108  -2.069  -0.399  0.00  0.00    -0.202 F 
ATOM      7  C   LIG    1       -0.003  -3.510   1.466  0.00  0.00    +0.151 A 
ATOM      8  N   LIG    1        0.525  -3.983   2.614  0.00  0.00    -0.260 NA
ATOM      9  C   LIG    1        1.623  -3.369   3.101  0.00  0.00    +0.121 A 
ATOM     10  C   LIG    1        2.203  -2.276   2.430  0.00  0.00    +0.032 A 
ATOM     11  C   LIG    1        3.297  -1.434   2.768  0.00  0.00    +0.049 A 
ATOM     12  C   LIG    1        3.448  -0.551   1.722  0.00  0.00    +0.099 A 
BRANCH   3  14
ATOM     13  C   LIG    1        2.674  -1.299  -1.692  0.00  0.00    +0.036 C 
ATOM     14  C   LIG    1        2.558  -0.193  -0.620  0.00  0.00    +0.063 C 
ATOM     15  C   LIG    1        3.815   0.716  -0.796  0.00  0.00    +0.036 C 
BRANCH  14  16
ATOM     16  C   LIG    1        1.331   0.700  -0.943  0.00  0.00    +0.183 C 
BRANCH  16  17
ATOM     17  O   LIG    1        1.196   1.781  -0.025  0.00  0.00    -0.393 OA
ATOM     18  H   LIG    1        0.580   2.421  -0.426  0.00  0.00    +0.209 HD
ENDBRANCH  16  17
ENDBRANCH  14  16
ENDBRANCH   3  14
ENDBRANCH   1  11
BRANCH   1  19
ATOM     19  C   LIG    1        4.830  -0.404   4.533  0.00  0.00    +0.042 A 
ATOM     20  C   LIG    1        6.012  -0.660   5.229  0.00  0.00    +0.042 A 
ATOM     21  C   LIG    1        6.732   0.362   5.841  0.00  0.00    +0.086 A 
ATOM     22  C   LIG    1        6.199   1.643   5.703  0.00  0.00    +0.138 A 
ATOM     23  N   LIG    1        5.044   1.943   5.044  0.00  0.00    -0.260 NA
ATOM     24  C   LIG    1        4.380   0.905   4.477  0.00  0.00    +0.122 A 
BRANCH  21  25
ATOM     25  N   LIG    1        7.976   0.171   6.476  0.00  0.00    -0.216 NA
ATOM     26  C   LIG    1        8.256  -0.927   7.105  0.00  0.00    +0.193 C 
BRANCH  26  27
ATOM     27  O   LIG    1        7.359  -1.917   7.300  0.00  0.00    -0.495 OA
ATOM     28  H   LIG    1        7.731  -2.708   7.720  0.00  0.00    +0.293 HD
ENDBRANCH  26  27
BRANCH  26  29
ATOM     29  C   LIG    1        9.599  -1.176   7.734  0.00  0.00    +0.150 C 
BRANCH  29  30
ATOM     30  C   LIG    1       10.706  -1.181   6.718  0.00  0.00    +0.050 A 
ATOM     31  N   LIG    1       11.023  -2.377   6.157  0.00  0.00    -0.258 NA
ATOM     32  C   LIG    1       12.019  -2.381   5.235  0.00  0.00    +0.131 A 
ATOM     33  C   LIG    1       12.722  -1.249   4.854  0.00  0.00    +0.059 A 
ATOM     34 CL   LIG    1       13.982  -1.340   3.694  0.00  0.00    -0.082 Cl
ATOM     35  C   LIG    1       12.383  -0.035   5.436  0.00  0.00    +0.023 A 
ATOM     36  C   LIG    1       11.357   0.003   6.378  0.00  0.00    +0.025 A 
ENDBRANCH  29  30
ENDBRANCH  26  29
ENDBRANCH  21  25
ENDBRANCH   1  19
TORSDOF 9
