REMARK  Name = pdb/CHEMBL3671129.pdb
REMARK                            x       y       z     vdW  Elec       q    Type
REMARK                         _______ _______ _______ _____ _____    ______ ____
ROOT
ATOM      1  C   LIG    1        4.913  -2.271  -2.472  0.00  0.00    +0.100 A 
ATOM      2  C   LIG    1        5.672  -2.204  -3.632  0.00  0.00    +0.170 A 
ATOM      3  N   LIG    1        6.177  -1.163  -4.382  0.00  0.00    -0.212 NA
ATOM      4  C   LIG    1        6.884  -1.458  -5.457  0.00  0.00    +0.126 A 
ATOM      5  C   LIG    1        7.220  -2.884  -5.826  0.00  0.00    +0.063 A 
ATOM      6  C   LIG    1        6.677  -3.854  -5.092  0.00  0.00    +0.118 A 
ATOM      7  N   LIG    1        5.888  -3.539  -4.005  0.00  0.00    -0.221 N 
ATOM      8  N   LIG    1        5.286  -4.420  -3.180  0.00  0.00    -0.173 NA
ATOM      9  C   LIG    1        4.711  -3.653  -2.260  0.00  0.00    +0.150 A 
ENDROOT
BRANCH   4  10
ATOM     10  N   LIG    1        7.355  -0.456  -6.301  0.00  0.00    -0.308 N 
ATOM     11  C   LIG    1        7.035   0.967  -6.092  0.00  0.00    +0.108 C 
ATOM     12  C   LIG    1        6.838   1.501  -7.524  0.00  0.00    +0.029 C 
ATOM     13  C   LIG    1        7.743   0.638  -8.382  0.00  0.00    +0.021 C 
ATOM     14  C   LIG    1        7.655  -0.719  -7.713  0.00  0.00    +0.107 C 
BRANCH  11  15
ATOM     15  C   LIG    1        8.121   1.692  -5.313  0.00  0.00    +0.011 A 
ATOM     16  C   LIG    1        7.991   3.064  -5.044  0.00  0.00    +0.129 A 
ATOM     17  F   LIG    1        6.941   3.745  -5.526  0.00  0.00    -0.205 F 
ATOM     18  C   LIG    1        8.937   3.764  -4.291  0.00  0.00    +0.041 A 
ATOM     19  C   LIG    1       10.058   3.099  -3.802  0.00  0.00    +0.041 A 
ATOM     20  C   LIG    1       10.210   1.745  -4.067  0.00  0.00    +0.124 A 
ATOM     21  F   LIG    1       11.298   1.104  -3.621  0.00  0.00    -0.205 F 
ATOM     22  C   LIG    1        9.255   1.040  -4.798  0.00  0.00    +0.046 A 
ENDBRANCH  11  15
ENDBRANCH   4  10
BRANCH   1  25
ATOM     23  N   LIG    1        5.139  -0.090  -1.508  0.00  0.00    -0.306 N 
ATOM     24  H   LIG    1        5.819   0.046  -2.251  0.00  0.00    +0.150 HD
ATOM     25  C   LIG    1        4.399  -1.252  -1.576  0.00  0.00    +0.250 C 
ATOM     26  O   LIG    1        3.435  -1.488  -0.868  0.00  0.00    -0.270 OA
BRANCH  23  28
ATOM     27  C   LIG    1        6.220   1.747  -0.327  0.00  0.00    +0.031 C 
ATOM     28  C   LIG    1        4.886   1.020  -0.568  0.00  0.00    +0.026 C 
ATOM     29  C   LIG    1        3.876   2.007  -1.170  0.00  0.00    +0.031 C 
ATOM     30  C   LIG    1        4.368   0.548   0.808  0.00  0.00    +0.031 C 
ENDBRANCH  23  28
ENDBRANCH   1  25
TORSDOF 4
