REMARK  Name = pdb/CHEMBL3673461.pdb
REMARK                            x       y       z     vdW  Elec       q    Type
REMARK                         _______ _______ _______ _____ _____    ______ ____
ROOT
ATOM      1  C   LIG    1       10.031   4.206   8.142  0.00  0.00    +0.160 C 
ENDROOT
BRANCH   1   2
ATOM      2  N   LIG    1       11.248   4.435   7.393  0.00  0.00    -0.311 N 
ATOM      3  C   LIG    1       12.336   3.607   7.338  0.00  0.00    +0.161 A 
ATOM      4  N   LIG    1       12.477   2.397   7.909  0.00  0.00    -0.234 NA
ATOM      5  C   LIG    1       13.687   1.838   7.619  0.00  0.00    +0.136 A 
ATOM      6  C   LIG    1       14.722   2.387   6.836  0.00  0.00    +0.051 A 
ATOM      7  C   LIG    1       14.496   3.671   6.314  0.00  0.00    +0.056 A 
ATOM      8  C   LIG    1       13.261   4.289   6.561  0.00  0.00    +0.110 A 
ATOM      9  N   LIG    1       12.763   5.506   6.163  0.00  0.00    -0.234 NA
ATOM     10  C   LIG    1       11.551   5.563   6.677  0.00  0.00    +0.201 A 
BRANCH   6  11
ATOM     11  N   LIG    1       15.954   1.744   6.560  0.00  0.00    -0.316 N 
ATOM     12  C   LIG    1       17.047   2.222   7.499  0.00  0.00    +0.182 C 
ATOM     13  C   LIG    1       17.805   0.944   7.880  0.00  0.00    +0.035 C 
ATOM     14  C   LIG    1       16.736  -0.129   7.810  0.00  0.00    +0.021 C 
ATOM     15  C   LIG    1       15.955   0.265   6.564  0.00  0.00    +0.106 C 
BRANCH  12  16
ATOM     16  C   LIG    1       18.000   3.167   6.765  0.00  0.00    +0.325 C 
ATOM     17  O   LIG    1       18.840   3.870   7.303  0.00  0.00    -0.249 OA
BRANCH  16  18
ATOM     18  O   LIG    1       17.858   3.070   5.416  0.00  0.00    -0.479 OA
ATOM     19  H   LIG    1       17.084   2.475   5.257  0.00  0.00    +0.295 HD
ENDBRANCH  16  18
ENDBRANCH  12  16
ENDBRANCH   6  11
ENDBRANCH   1   2
BRANCH   1  23
ATOM     20  C   LIG    1        6.985   2.243   5.775  0.00  0.00    +0.162 A 
ATOM     21  C   LIG    1        7.946   1.481   6.458  0.00  0.00    +0.162 A 
ATOM     22  C   LIG    1        8.933   2.129   7.213  0.00  0.00    +0.054 A 
ATOM     23  C   LIG    1        8.973   3.530   7.304  0.00  0.00    -0.024 A 
ATOM     24  C   LIG    1        8.034   4.280   6.586  0.00  0.00    +0.009 A 
ATOM     25  C   LIG    1        7.055   3.639   5.825  0.00  0.00    +0.050 A 
BRANCH  21  26
ATOM     26  O   LIG    1        7.957   0.120   6.292  0.00  0.00    -0.491 OA
ATOM     27  C   LIG    1        8.195  -0.627   7.482  0.00  0.00    +0.277 C 
ENDBRANCH  21  26
BRANCH  20  28
ATOM     28  O   LIG    1        5.935   1.769   5.028  0.00  0.00    -0.484 OA
BRANCH  28  29
ATOM     29  C   LIG    1        5.444   0.483   5.393  0.00  0.00    +0.266 C 
BRANCH  29  33
ATOM     30  C   LIG    1        1.390   0.024   4.269  0.00  0.00    +0.214 A 
ATOM     31  N   LIG    1        2.345  -0.372   3.401  0.00  0.00    -0.221 NA
ATOM     32  C   LIG    1        3.626  -0.174   3.781  0.00  0.00    +0.121 A 
ATOM     33  C   LIG    1        3.999   0.373   5.002  0.00  0.00    +0.008 A 
ATOM     34  C   LIG    1        2.981   0.803   5.859  0.00  0.00    +0.013 A 
ATOM     35  C   LIG    1        1.653   0.634   5.484  0.00  0.00    +0.067 A 
BRANCH  30  37
ATOM     36  C   LIG    1       -0.123  -1.241   3.044  0.00  0.00    +0.279 C 
ATOM     37  O   LIG    1        0.060  -0.153   3.945  0.00  0.00    -0.480 OA
ENDBRANCH  30  37
ENDBRANCH  29  33
ENDBRANCH  28  29
ENDBRANCH  20  28
ENDBRANCH   1  23
TORSDOF 10
