REMARK  Name = pdb/CHEMBL3976264.pdb
REMARK                            x       y       z     vdW  Elec       q    Type
REMARK                         _______ _______ _______ _____ _____    ______ ____
ROOT
ATOM      1  C   LIG    1        7.541  -1.560  -2.343  0.00  0.00    +0.149 A 
ATOM      2  N   LIG    1        8.669  -1.810  -3.016  0.00  0.00    -0.160 NA
ATOM      3  N   LIG    1        9.449  -2.527  -2.165  0.00  0.00    -0.218 N 
ATOM      4  C   LIG    1        8.870  -2.605  -0.896  0.00  0.00    +0.129 A 
ATOM      5  C   LIG    1        7.640  -2.016  -1.015  0.00  0.00    +0.078 A 
ENDROOT
BRANCH   3   6
ATOM      6  C   LIG    1       10.657  -3.094  -2.679  0.00  0.00    +0.067 A 
ATOM      7  C   LIG    1       11.472  -3.949  -1.932  0.00  0.00    +0.028 A 
ATOM      8  C   LIG    1       12.646  -4.466  -2.489  0.00  0.00    +0.002 A 
ATOM      9  C   LIG    1       12.996  -4.171  -3.804  0.00  0.00    +0.000 A 
ATOM     10  C   LIG    1       12.175  -3.354  -4.571  0.00  0.00    +0.002 A 
ATOM     11  C   LIG    1       11.016  -2.813  -4.013  0.00  0.00    +0.028 A 
ENDBRANCH   3   6
BRANCH   4  12
ATOM     12  N   LIG    1        9.384  -3.100   0.297  0.00  0.00    -0.266 N 
ATOM     13  H   LIG    1       10.390  -3.172   0.361  0.00  0.00    +0.157 HD
ATOM     14  C   LIG    1        8.601  -3.428   1.458  0.00  0.00    +0.251 C 
ATOM     15  O   LIG    1        7.375  -3.399   1.439  0.00  0.00    -0.270 OA
BRANCH  14  16
ATOM     16  C   LIG    1        9.343  -3.930   2.645  0.00  0.00    +0.056 A 
ATOM     17  C   LIG    1       10.669  -3.592   2.906  0.00  0.00    +0.054 A 
ATOM     18 CL   LIG    1       11.531  -2.365   2.045  0.00  0.00    -0.083 Cl
ATOM     19  C   LIG    1       11.353  -4.231   3.935  0.00  0.00    +0.041 A 
ATOM     20  C   LIG    1       10.703  -5.148   4.774  0.00  0.00    +0.052 A 
ATOM     21 CL   LIG    1       11.708  -5.845   6.000  0.00  0.00    -0.083 Cl
ATOM     22  C   LIG    1        9.326  -5.425   4.626  0.00  0.00    +0.022 A 
ATOM     23  C   LIG    1        8.680  -4.822   3.516  0.00  0.00    +0.026 A 
BRANCH  22  24
ATOM     24  C   LIG    1        8.547  -6.269   5.570  0.00  0.00    +0.107 A 
ATOM     25  C   LIG    1        7.238  -5.962   5.958  0.00  0.00    +0.149 A 
ATOM     26  F   LIG    1        6.604  -4.882   5.478  0.00  0.00    -0.203 F 
ATOM     27  C   LIG    1        6.571  -6.769   6.874  0.00  0.00    +0.042 A 
ATOM     28  C   LIG    1        7.230  -7.865   7.413  0.00  0.00    +0.023 A 
ATOM     29  C   LIG    1        8.523  -8.116   6.988  0.00  0.00    +0.111 A 
ATOM     30  N   LIG    1        9.175  -7.364   6.068  0.00  0.00    -0.252 NA
ENDBRANCH  22  24
ENDBRANCH  14  16
ENDBRANCH   4  12
BRANCH   1  32
ATOM     31  N   LIG    1        6.338  -0.406  -4.070  0.00  0.00    -0.247 NA
ATOM     32  C   LIG    1        6.356  -0.928  -2.905  0.00  0.00    +0.236 C 
BRANCH  32  33
ATOM     33  O   LIG    1        5.320  -0.993  -2.049  0.00  0.00    -0.491 OA
ATOM     34  H   LIG    1        4.515  -0.622  -2.453  0.00  0.00    +0.294 HD
ENDBRANCH  32  33
BRANCH  31  35
ATOM     35  C   LIG    1        5.169   0.186  -4.721  0.00  0.00    +0.173 C 
BRANCH  35  36
ATOM     36  C   LIG    1        4.387   1.195  -3.875  0.00  0.00    +0.179 C 
BRANCH  36  37
ATOM     37  O   LIG    1        3.660   0.538  -2.834  0.00  0.00    -0.393 OA
ATOM     38  H   LIG    1        3.523   1.200  -2.128  0.00  0.00    +0.209 HD
ENDBRANCH  36  37
ENDBRANCH  35  36
ENDBRANCH  31  35
ENDBRANCH   1  32
TORSDOF 9
