REMARK  Name = pdb/CHEMBL3952347.pdb
REMARK                            x       y       z     vdW  Elec       q    Type
REMARK                         _______ _______ _______ _____ _____    ______ ____
ROOT
ATOM      1  C   LIG    1       -0.217  -6.621  -0.793  0.00  0.00    +0.323 A 
ATOM      2  N   LIG    1       -0.852  -6.157  -1.887  0.00  0.00    -0.201 NA
ATOM      3  C   LIG    1       -2.185  -6.348  -1.937  0.00  0.00    +0.145 A 
ATOM      4  C   LIG    1       -2.907  -7.066  -1.007  0.00  0.00    +0.105 A 
ATOM      5  C   LIG    1       -2.156  -7.468   0.083  0.00  0.00    +0.145 A 
ATOM      6  N   LIG    1       -0.818  -7.271   0.218  0.00  0.00    -0.201 NA
ENDROOT
BRANCH   4   7
ATOM      7  N   LIG    1       -4.296  -7.283  -1.081  0.00  0.00    -0.196 NA
ATOM      8  C   LIG    1       -4.927  -7.614  -2.147  0.00  0.00    +0.285 C 
BRANCH   8   9
ATOM      9  N   LIG    1       -6.282  -7.719  -2.326  0.00  0.00    -0.267 N 
ATOM     10  H   LIG    1       -6.589  -8.063  -3.234  0.00  0.00    +0.157 HD
BRANCH   9  11
ATOM     11  C   LIG    1       -7.324  -7.433  -1.421  0.00  0.00    +0.061 A 
ATOM     12  C   LIG    1       -8.611  -8.026  -1.510  0.00  0.00    +0.087 A 
ATOM     13  C   LIG    1       -9.589  -7.722  -0.536  0.00  0.00    +0.030 A 
ATOM     14  C   LIG    1       -9.336  -6.821   0.494  0.00  0.00    +0.014 A 
ATOM     15  C   LIG    1       -8.087  -6.215   0.592  0.00  0.00    +0.057 A 
ATOM     16  C   LIG    1       -7.096  -6.555  -0.342  0.00  0.00    +0.037 A 
BRANCH  12  17
ATOM     17  N   LIG    1       -8.980  -8.936  -2.552  0.00  0.00    -0.237 N 
ATOM     18  N   LIG    1       -8.099  -9.355  -3.506  0.00  0.00    -0.173 NA
ATOM     19  C   LIG    1       -8.787 -10.256  -4.220  0.00  0.00    +0.154 A 
ATOM     20  C   LIG    1      -10.120 -10.363  -3.810  0.00  0.00    +0.079 A 
ATOM     21 CL   LIG    1      -11.330 -11.340  -4.469  0.00  0.00    -0.080 Cl
ATOM     22  C   LIG    1      -10.229  -9.493  -2.761  0.00  0.00    +0.134 A 
ENDBRANCH  12  17
BRANCH  15  23
ATOM     23  C   LIG    1       -7.810  -5.207   1.677  0.00  0.00    +0.417 C 
ATOM     24  F   LIG    1       -7.835  -5.762   2.919  0.00  0.00    -0.166 F 
ATOM     25  F   LIG    1       -8.732  -4.204   1.696  0.00  0.00    -0.166 F 
ATOM     26  F   LIG    1       -6.601  -4.595   1.560  0.00  0.00    -0.166 F 
ENDBRANCH  15  23
ENDBRANCH   9  11
ENDBRANCH   8   9
BRANCH   8  27
ATOM     27  O   LIG    1       -4.304  -7.953  -3.298  0.00  0.00    -0.481 OA
ATOM     28  H   LIG    1       -3.364  -8.138  -3.151  0.00  0.00    +0.295 HD
ENDBRANCH   8  27
ENDBRANCH   4   7
BRANCH   1  29
ATOM     29  O   LIG    1        1.168  -6.478  -0.703  0.00  0.00    -0.424 OA
BRANCH  29  33
ATOM     30  C   LIG    1        2.987  -3.182  -2.646  0.00  0.00    -0.014 A 
ATOM     31  C   LIG    1        1.707  -3.080  -2.070  0.00  0.00    +0.012 A 
ATOM     32  C   LIG    1        1.110  -4.148  -1.396  0.00  0.00    +0.047 A 
ATOM     33  C   LIG    1        1.736  -5.390  -1.334  0.00  0.00    +0.132 A 
ATOM     34  C   LIG    1        3.015  -5.521  -1.872  0.00  0.00    +0.047 A 
ATOM     35  C   LIG    1        3.630  -4.428  -2.513  0.00  0.00    +0.012 A 
BRANCH  30  37
ATOM     36  C   LIG    1        4.531  -2.059  -4.378  0.00  0.00    +0.124 A 
ATOM     37  C   LIG    1        3.624  -2.002  -3.303  0.00  0.00    +0.022 A 
ATOM     38  C   LIG    1        3.336  -0.703  -2.832  0.00  0.00    +0.025 A 
ATOM     39  C   LIG    1        3.912   0.439  -3.403  0.00  0.00    +0.074 A 
ATOM     40  C   LIG    1        4.798   0.244  -4.440  0.00  0.00    +0.125 A 
ATOM     41  N   LIG    1        5.116  -0.972  -4.929  0.00  0.00    -0.240 NA
BRANCH  39  42
ATOM     42  C   LIG    1        3.584   1.811  -2.907  0.00  0.00    +0.419 C 
ATOM     43  F   LIG    1        3.892   1.977  -1.591  0.00  0.00    -0.166 F 
ATOM     44  F   LIG    1        2.258   2.098  -3.018  0.00  0.00    -0.166 F 
ATOM     45  F   LIG    1        4.237   2.803  -3.572  0.00  0.00    -0.166 F 
ENDBRANCH  39  42
BRANCH  36  46
ATOM     46  N   LIG    1        4.920  -3.246  -4.997  0.00  0.00    -0.343 N 
ATOM     47  H   LIG    1        4.112  -3.740  -5.361  0.00  0.00    +0.144 HD
ATOM     48  H   LIG    1        5.557  -2.977  -5.743  0.00  0.00    +0.144 HD
ENDBRANCH  36  46
ENDBRANCH  30  37
ENDBRANCH  29  33
ENDBRANCH   1  29
TORSDOF 11
