REMARK  Name = pdb/CHEMBL3936597.pdb
REMARK                            x       y       z     vdW  Elec       q    Type
REMARK                         _______ _______ _______ _____ _____    ______ ____
ROOT
ATOM      1  C   LIG    1        8.870  -0.478   0.075  0.00  0.00    +0.149 A 
ATOM      2  N   LIG    1        9.498  -1.656  -0.068  0.00  0.00    -0.160 NA
ATOM      3  N   LIG    1       10.821  -1.350  -0.152  0.00  0.00    -0.218 N 
ATOM      4  C   LIG    1       11.056   0.000   0.115  0.00  0.00    +0.129 A 
ATOM      5  C   LIG    1        9.808   0.560   0.266  0.00  0.00    +0.078 A 
ENDROOT
BRANCH   3   6
ATOM      6  C   LIG    1       11.757  -2.357  -0.521  0.00  0.00    +0.067 A 
ATOM      7  C   LIG    1       12.955  -2.033  -1.172  0.00  0.00    +0.028 A 
ATOM      8  C   LIG    1       13.852  -3.043  -1.531  0.00  0.00    +0.002 A 
ATOM      9  C   LIG    1       13.563  -4.375  -1.244  0.00  0.00    +0.000 A 
ATOM     10  C   LIG    1       12.362  -4.707  -0.618  0.00  0.00    +0.002 A 
ATOM     11  C   LIG    1       11.453  -3.706  -0.272  0.00  0.00    +0.028 A 
ENDBRANCH   3   6
BRANCH   4  12
ATOM     12  N   LIG    1       12.284   0.662   0.269  0.00  0.00    -0.266 N 
ATOM     13  H   LIG    1       13.110   0.084   0.392  0.00  0.00    +0.157 HD
ATOM     14  C   LIG    1       12.407   2.095   0.256  0.00  0.00    +0.251 C 
ATOM     15  O   LIG    1       11.420   2.787   0.064  0.00  0.00    -0.270 OA
BRANCH  14  16
ATOM     16  C   LIG    1       13.734   2.751   0.417  0.00  0.00    +0.056 A 
ATOM     17  C   LIG    1       14.941   2.102   0.660  0.00  0.00    +0.054 A 
ATOM     18 CL   LIG    1       15.089   0.399   0.901  0.00  0.00    -0.083 Cl
ATOM     19  C   LIG    1       16.121   2.845   0.741  0.00  0.00    +0.041 A 
ATOM     20  C   LIG    1       16.111   4.250   0.632  0.00  0.00    +0.052 A 
ATOM     21 CL   LIG    1       17.657   5.008   0.821  0.00  0.00    -0.083 Cl
ATOM     22  C   LIG    1       14.910   4.955   0.435  0.00  0.00    +0.022 A 
ATOM     23  C   LIG    1       13.742   4.164   0.302  0.00  0.00    +0.026 A 
BRANCH  22  24
ATOM     24  C   LIG    1       14.813   6.438   0.391  0.00  0.00    +0.107 A 
ATOM     25  C   LIG    1       13.757   7.153   0.970  0.00  0.00    +0.149 A 
ATOM     26  F   LIG    1       12.728   6.528   1.560  0.00  0.00    -0.203 F 
ATOM     27  C   LIG    1       13.771   8.546   0.966  0.00  0.00    +0.042 A 
ATOM     28  C   LIG    1       14.844   9.209   0.394  0.00  0.00    +0.023 A 
ATOM     29  C   LIG    1       15.843   8.446  -0.186  0.00  0.00    +0.111 A 
ATOM     30  N   LIG    1       15.834   7.092  -0.220  0.00  0.00    -0.252 NA
ENDBRANCH  22  24
ENDBRANCH  14  16
ENDBRANCH   4  12
BRANCH   1  32
ATOM     31  N   LIG    1        6.618  -1.308   0.021  0.00  0.00    -0.241 NA
ATOM     32  C   LIG    1        7.411  -0.308   0.058  0.00  0.00    +0.236 C 
BRANCH  32  33
ATOM     33  O   LIG    1        7.025   0.992   0.061  0.00  0.00    -0.491 OA
ATOM     34  H   LIG    1        6.071   1.087   0.214  0.00  0.00    +0.294 HD
ENDBRANCH  32  33
BRANCH  31  35
ATOM     35  C   LIG    1        5.169  -1.118  -0.017  0.00  0.00    +0.223 C 
BRANCH  35  41
ATOM     36  C   LIG    1        3.044  -2.048   4.361  0.00  0.00    +0.087 C 
ATOM     37  C   LIG    1        3.681  -1.401   3.195  0.00  0.00    +0.122 A 
ATOM     38  N   LIG    1        3.955  -0.061   3.133  0.00  0.00    -0.263 N 
ATOM     39  H   LIG    1        3.768   0.656   3.821  0.00  0.00    +0.190 HD
ATOM     40  N   LIG    1        4.549   0.265   1.964  0.00  0.00    -0.156 NA
ATOM     41  C   LIG    1        4.596  -0.928   1.350  0.00  0.00    +0.172 A 
ATOM     42  N   LIG    1        4.069  -1.968   2.076  0.00  0.00    -0.215 NA
ENDBRANCH  35  41
ENDBRANCH  31  35
ENDBRANCH   1  32
TORSDOF 8
