REMARK  Name = pdb/CHEMBL3671154.pdb
REMARK                            x       y       z     vdW  Elec       q    Type
REMARK                         _______ _______ _______ _____ _____    ______ ____
ROOT
ATOM      1  C   LIG    1        6.578   3.526   3.246  0.00  0.00    +0.100 A 
ATOM      2  C   LIG    1        6.215   4.861   3.186  0.00  0.00    +0.170 A 
ATOM      3  N   LIG    1        5.613   5.607   2.195  0.00  0.00    -0.212 NA
ATOM      4  C   LIG    1        5.427   6.891   2.415  0.00  0.00    +0.126 A 
ATOM      5  C   LIG    1        5.824   7.537   3.726  0.00  0.00    +0.063 A 
ATOM      6  C   LIG    1        6.386   6.761   4.658  0.00  0.00    +0.118 A 
ATOM      7  N   LIG    1        6.592   5.418   4.408  0.00  0.00    -0.221 N 
ATOM      8  N   LIG    1        7.143   4.505   5.241  0.00  0.00    -0.173 NA
ATOM      9  C   LIG    1        7.129   3.372   4.538  0.00  0.00    +0.150 A 
ENDROOT
BRANCH   4  10
ATOM     10  N   LIG    1        4.849   7.687   1.438  0.00  0.00    -0.308 N 
ATOM     11  C   LIG    1        4.178   7.166   0.234  0.00  0.00    +0.108 C 
ATOM     12  C   LIG    1        4.505   8.230  -0.827  0.00  0.00    +0.029 C 
ATOM     13  C   LIG    1        4.552   9.530  -0.041  0.00  0.00    +0.021 C 
ATOM     14  C   LIG    1        5.135   9.116   1.303  0.00  0.00    +0.107 C 
BRANCH  11  15
ATOM     15  C   LIG    1        2.685   6.984   0.472  0.00  0.00    +0.011 A 
ATOM     16  C   LIG    1        1.956   6.065  -0.295  0.00  0.00    +0.129 A 
ATOM     17  F   LIG    1        2.565   5.381  -1.273  0.00  0.00    -0.205 F 
ATOM     18  C   LIG    1        0.594   5.833  -0.071  0.00  0.00    +0.041 A 
ATOM     19  C   LIG    1       -0.077   6.543   0.923  0.00  0.00    +0.041 A 
ATOM     20  C   LIG    1        0.623   7.480   1.669  0.00  0.00    +0.124 A 
ATOM     21  F   LIG    1       -0.015   8.184   2.612  0.00  0.00    -0.205 F 
ATOM     22  C   LIG    1        1.981   7.702   1.455  0.00  0.00    +0.046 A 
ENDBRANCH  11  15
ENDBRANCH   4  10
BRANCH   1  25
ATOM     23  N   LIG    1        5.885   2.945   1.053  0.00  0.00    -0.309 N 
ATOM     24  H   LIG    1        5.477   3.878   1.065  0.00  0.00    +0.149 HD
ATOM     25  C   LIG    1        6.454   2.503   2.232  0.00  0.00    +0.249 C 
ATOM     26  O   LIG    1        6.830   1.359   2.410  0.00  0.00    -0.270 OA
BRANCH  23  27
ATOM     27  C   LIG    1        5.642   2.027  -0.042  0.00  0.00    +0.138 C 
BRANCH  27  28
ATOM     28  C   LIG    1        4.984   2.724  -1.240  0.00  0.00    +0.157 C 
BRANCH  28  29
ATOM     29  O   LIG    1        5.807   3.802  -1.708  0.00  0.00    -0.388 OA
ATOM     30  H   LIG    1        6.219   4.205  -0.923  0.00  0.00    +0.210 HD
ENDBRANCH  28  29
BRANCH  28  31
ATOM     31  C   LIG    1        4.758   1.743  -2.393  0.00  0.00    +0.188 C 
BRANCH  31  32
ATOM     32  O   LIG    1        3.951   0.646  -1.985  0.00  0.00    -0.392 OA
ATOM     33  H   LIG    1        3.864   0.057  -2.756  0.00  0.00    +0.210 HD
ENDBRANCH  31  32
ENDBRANCH  28  31
ENDBRANCH  27  28
ENDBRANCH  23  27
ENDBRANCH   1  25
TORSDOF 8
