REMARK  Name = pdb/CHEMBL2010872.pdb
REMARK                            x       y       z     vdW  Elec       q    Type
REMARK                         _______ _______ _______ _____ _____    ______ ____
ROOT
ATOM      1  N   LIG    1        4.834  -1.314  -2.326  0.00  0.00    -0.339 N 
ATOM      2  C   LIG    1        5.126  -2.574  -1.791  0.00  0.00    +0.054 A 
ATOM      3  C   LIG    1        4.543  -3.864  -1.862  0.00  0.00    -0.014 A 
ATOM      4  C   LIG    1        3.415  -4.255  -2.823  0.00  0.00    +0.044 C 
ATOM      5  C   LIG    1        3.242  -5.775  -3.060  0.00  0.00    +0.062 C 
ATOM      6  C   LIG    1        3.307  -6.465  -1.755  0.00  0.00    +0.071 A 
ATOM      7  C   LIG    1        4.199  -6.026  -0.760  0.00  0.00    +0.024 A 
ATOM      8  C   LIG    1        3.826  -6.715   0.366  0.00  0.00    +0.116 A 
ATOM      9  N   LIG    1        2.805  -7.541  -0.025  0.00  0.00    -0.274 N 
ATOM     10  C   LIG    1        1.975  -8.348   0.836  0.00  0.00    +0.172 C 
ATOM     11  N   LIG    1        2.472  -7.414  -1.331  0.00  0.00    -0.176 NA
ATOM     12  C   LIG    1        4.993  -4.831  -0.905  0.00  0.00    +0.003 A 
ATOM     13  C   LIG    1        6.137  -4.554  -0.162  0.00  0.00    +0.050 A 
ATOM     14  C   LIG    1        6.888  -5.422   0.716  0.00  0.00    +0.245 C 
ATOM     15  O   LIG    1        6.774  -6.598   1.062  0.00  0.00    -0.270 OA
ATOM     16  N   LIG    1        7.940  -4.641   1.172  0.00  0.00    -0.307 N 
ATOM     17  H   LIG    1        8.635  -5.049   1.780  0.00  0.00    +0.149 HD
ATOM     18  C   LIG    1        7.983  -3.285   0.673  0.00  0.00    +0.141 C 
ATOM     19  C   LIG    1        6.800  -3.309  -0.191  0.00  0.00    -0.008 A 
ATOM     20  C   LIG    1        6.218  -2.310  -1.003  0.00  0.00    +0.013 A 
ATOM     21  C   LIG    1        6.661  -0.997  -1.023  0.00  0.00    +0.010 A 
ATOM     22  C   LIG    1        7.657  -0.229  -0.398  0.00  0.00    +0.034 A 
ATOM     23  C   LIG    1        7.727   1.160  -0.551  0.00  0.00    +0.034 A 
ATOM     24  C   LIG    1        6.874   1.753  -1.484  0.00  0.00    +0.025 A 
ATOM     25  C   LIG    1        5.908   1.008  -2.185  0.00  0.00    +0.028 A 
ATOM     26  C   LIG    1        5.781  -0.365  -1.904  0.00  0.00    +0.050 A 
ENDROOT
BRANCH  23  27
ATOM     27  N   LIG    1        8.618   1.947   0.205  0.00  0.00    -0.284 N 
ATOM     28  H   LIG    1        8.514   2.948   0.118  0.00  0.00    +0.155 HD
BRANCH  27  29
ATOM     29  C   LIG    1        9.154   1.668   1.471  0.00  0.00    +0.219 A 
ATOM     30  N   LIG    1        9.296   0.400   1.898  0.00  0.00    -0.223 NA
ATOM     31  C   LIG    1        9.747   0.187   3.143  0.00  0.00    +0.116 A 
ATOM     32  C   LIG    1       10.076   1.202   3.996  0.00  0.00    +0.039 A 
ATOM     33  C   LIG    1        9.919   2.466   3.481  0.00  0.00    +0.116 A 
ATOM     34  N   LIG    1        9.471   2.725   2.233  0.00  0.00    -0.223 NA
ENDBRANCH  27  29
ENDBRANCH  23  27
BRANCH   1  35
ATOM     35  C   LIG    1        3.638  -0.939  -3.075  0.00  0.00    +0.125 C 
BRANCH  35  37
ATOM     36  C   LIG    1        1.401   0.263  -3.152  0.00  0.00    +0.009 C 
ATOM     37  C   LIG    1        2.617  -0.087  -2.286  0.00  0.00    +0.003 C 
ATOM     38  C   LIG    1        2.135  -0.797  -1.021  0.00  0.00    +0.009 C 
ENDBRANCH  35  37
ENDBRANCH   1  35
TORSDOF 4
