REMARK  Name = pdb/CHEMBL3904509.pdb
REMARK                            x       y       z     vdW  Elec       q    Type
REMARK                         _______ _______ _______ _____ _____    ______ ____
ROOT
ATOM      1  C   LIG    1        2.852  -0.875   2.748  0.00  0.00    +0.105 A 
ATOM      2  C   LIG    1        1.952  -0.125   3.461  0.00  0.00    +0.145 A 
ATOM      3  N   LIG    1        1.296  -0.554   4.555  0.00  0.00    -0.201 NA
ATOM      4  C   LIG    1        1.489  -1.844   4.901  0.00  0.00    +0.323 A 
ATOM      5  N   LIG    1        2.402  -2.653   4.344  0.00  0.00    -0.201 NA
ATOM      6  C   LIG    1        3.064  -2.146   3.277  0.00  0.00    +0.145 A 
ENDROOT
BRANCH   1   8
ATOM      7  C   LIG    1        3.760   0.585   1.071  0.00  0.00    +0.285 C 
ATOM      8  N   LIG    1        3.336  -0.555   1.463  0.00  0.00    -0.196 NA
BRANCH   7   9
ATOM      9  O   LIG    1        3.960   1.646   1.867  0.00  0.00    -0.481 OA
ATOM     10  H   LIG    1        3.951   1.400   2.797  0.00  0.00    +0.295 HD
ENDBRANCH   7   9
BRANCH   7  11
ATOM     11  N   LIG    1        4.115   0.924  -0.207  0.00  0.00    -0.269 N 
ATOM     12  H   LIG    1        4.621   1.796  -0.314  0.00  0.00    +0.157 HD
BRANCH  11  13
ATOM     13  C   LIG    1        3.653   0.344  -1.412  0.00  0.00    +0.043 A 
ATOM     14  C   LIG    1        4.487   0.245  -2.559  0.00  0.00    +0.005 A 
ATOM     15  C   LIG    1        3.917  -0.342  -3.715  0.00  0.00    +0.011 A 
ATOM     16  C   LIG    1        2.599  -0.818  -3.747  0.00  0.00    +0.013 A 
ATOM     17  C   LIG    1        1.795  -0.742  -2.611  0.00  0.00    +0.057 A 
ATOM     18  C   LIG    1        2.335  -0.164  -1.457  0.00  0.00    +0.036 A 
BRANCH  14  19
ATOM     19  C   LIG    1        5.917   0.690  -2.590  0.00  0.00    +0.002 A 
ATOM     20  C   LIG    1        6.755   0.654  -1.469  0.00  0.00    +0.119 A 
ATOM     21  N   LIG    1        8.050   1.064  -1.425  0.00  0.00    -0.263 NA
ATOM     22  C   LIG    1        8.588   1.487  -2.581  0.00  0.00    +0.111 A 
ATOM     23  C   LIG    1        7.886   1.530  -3.769  0.00  0.00    +0.020 A 
ATOM     24  C   LIG    1        6.541   1.147  -3.764  0.00  0.00    +0.011 A 
ENDBRANCH  14  19
BRANCH  17  25
ATOM     25  C   LIG    1        0.385  -1.279  -2.621  0.00  0.00    +0.417 C 
ATOM     26  F   LIG    1        0.336  -2.609  -2.906  0.00  0.00    -0.166 F 
ATOM     27  F   LIG    1       -0.399  -0.668  -3.553  0.00  0.00    -0.166 F 
ATOM     28  F   LIG    1       -0.267  -1.127  -1.434  0.00  0.00    -0.166 F 
ENDBRANCH  17  25
ENDBRANCH  11  13
ENDBRANCH   7  11
ENDBRANCH   1   8
BRANCH   4  29
ATOM     29  O   LIG    1        0.632  -2.426   5.828  0.00  0.00    -0.424 OA
BRANCH  29  30
ATOM     30  C   LIG    1       -0.690  -2.023   5.808  0.00  0.00    +0.132 A 
ATOM     31  C   LIG    1       -1.380  -2.057   7.019  0.00  0.00    +0.047 A 
ATOM     32  C   LIG    1       -2.722  -1.656   7.078  0.00  0.00    +0.012 A 
ATOM     33  C   LIG    1       -3.398  -1.220   5.926  0.00  0.00    -0.013 A 
ATOM     34  C   LIG    1       -2.706  -1.218   4.712  0.00  0.00    +0.012 A 
ATOM     35  C   LIG    1       -1.374  -1.639   4.649  0.00  0.00    +0.047 A 
BRANCH  33  36
ATOM     36  C   LIG    1       -4.801  -0.836   6.003  0.00  0.00    +0.046 A 
ATOM     37  C   LIG    1       -5.452   0.090   5.201  0.00  0.00    +0.165 A 
ATOM     38  N   LIG    1       -5.025   0.897   4.177  0.00  0.00    -0.213 NA
ATOM     39  C   LIG    1       -5.894   1.690   3.590  0.00  0.00    +0.125 A 
ATOM     40  C   LIG    1       -7.346   1.727   4.010  0.00  0.00    +0.063 A 
ATOM     41  C   LIG    1       -7.712   0.931   5.022  0.00  0.00    +0.118 A 
ATOM     42  N   LIG    1       -6.780   0.108   5.637  0.00  0.00    -0.221 N 
ATOM     43  N   LIG    1       -6.992  -0.735   6.675  0.00  0.00    -0.173 NA
ATOM     44  C   LIG    1       -5.802  -1.293   6.887  0.00  0.00    +0.145 A 
BRANCH  39  45
ATOM     45  N   LIG    1       -5.531   2.532   2.540  0.00  0.00    -0.315 N 
ATOM     46  C   LIG    1       -4.875   3.757   2.946  0.00  0.00    +0.108 C 
ATOM     47  C   LIG    1       -3.825   3.525   1.868  0.00  0.00    +0.038 C 
ATOM     48  C   LIG    1       -4.394   2.121   1.745  0.00  0.00    +0.108 C 
ENDBRANCH  39  45
ENDBRANCH  33  36
ENDBRANCH  29  30
ENDBRANCH   4  29
TORSDOF 10
