REMARK  Name = pdb/CHEMBL3671425.pdb
REMARK                            x       y       z     vdW  Elec       q    Type
REMARK                         _______ _______ _______ _____ _____    ______ ____
ROOT
ATOM      1  C   LIG    1        5.122  -5.790   1.401  0.00  0.00    +0.197 C 
ATOM      2  O   LIG    1        5.187  -6.512   2.382  0.00  0.00    -0.287 OA
ENDROOT
BRANCH   1  10
ATOM      3  N   LIG    1        5.271  -2.105   1.208  0.00  0.00    -0.323 N 
ATOM      4  C   LIG    1        6.138  -2.350   2.260  0.00  0.00    +0.147 A 
ATOM      5  N   LIG    1        6.809  -1.434   2.978  0.00  0.00    -0.197 NA
ATOM      6  C   LIG    1        7.514  -1.947   3.992  0.00  0.00    +0.214 A 
ATOM      7  N   LIG    1        7.647  -3.245   4.292  0.00  0.00    -0.222 NA
ATOM      8  C   LIG    1        6.978  -4.149   3.544  0.00  0.00    +0.126 A 
ATOM      9  C   LIG    1        6.186  -3.721   2.481  0.00  0.00    +0.048 A 
ATOM     10  C   LIG    1        5.374  -4.359   1.494  0.00  0.00    +0.051 A 
ATOM     11  C   LIG    1        4.865  -3.333   0.709  0.00  0.00    +0.100 A 
BRANCH   3  12
ATOM     12  C   LIG    1        4.826  -0.777   0.704  0.00  0.00    +0.065 C 
ATOM     13  C   LIG    1        3.400  -0.847   0.085  0.00  0.00    +0.036 C 
ATOM     14  C   LIG    1        4.736   0.271   1.841  0.00  0.00    +0.036 C 
BRANCH  12  15
ATOM     15  C   LIG    1        5.795  -0.266  -0.398  0.00  0.00    +0.187 C 
BRANCH  15  17
ATOM     16  C   LIG    1        6.159   1.511  -1.943  0.00  0.00    +0.194 C 
ATOM     17  O   LIG    1        5.350   1.008  -0.890  0.00  0.00    -0.381 OA
ENDBRANCH  15  17
ENDBRANCH  12  15
ENDBRANCH   3  12
BRANCH   6  18
ATOM     18  N   LIG    1        8.217  -1.059   4.783  0.00  0.00    -0.327 N 
ATOM     19  H   LIG    1        8.400  -0.213   4.264  0.00  0.00    +0.145 HD
ATOM     20  H   LIG    1        9.008  -1.536   5.194  0.00  0.00    +0.145 HD
ENDBRANCH   6  18
ENDBRANCH   1  10
BRANCH   1  21
ATOM     21  C   LIG    1        4.789  -6.416   0.098  0.00  0.00    +0.042 A 
ATOM     22  C   LIG    1        4.027  -7.591   0.079  0.00  0.00    +0.038 A 
ATOM     23  C   LIG    1        3.757  -8.239  -1.130  0.00  0.00    +0.052 A 
ATOM     24  C   LIG    1        4.274  -7.659  -2.286  0.00  0.00    +0.134 A 
ATOM     25  N   LIG    1        5.027  -6.527  -2.302  0.00  0.00    -0.261 NA
ATOM     26  C   LIG    1        5.281  -5.942  -1.110  0.00  0.00    +0.122 A 
BRANCH  23  27
ATOM     27  N   LIG    1        2.997  -9.428  -1.080  0.00  0.00    -0.283 N 
ATOM     28  H   LIG    1        2.644  -9.700  -0.166  0.00  0.00    +0.155 HD
ATOM     29  C   LIG    1        2.637 -10.228  -2.153  0.00  0.00    +0.239 C 
ATOM     30  O   LIG    1        2.916 -10.010  -3.331  0.00  0.00    -0.273 OA
BRANCH  29  31
ATOM     31  C   LIG    1        1.851 -11.459  -1.761  0.00  0.00    +0.239 C 
BRANCH  31  32
ATOM     32  N   LIG    1        0.432 -11.175  -1.746  0.00  0.00    -0.262 N 
ATOM     33  N   LIG    1       -0.150 -10.756  -0.606  0.00  0.00    -0.179 NA
ATOM     34  C   LIG    1       -1.435 -10.606  -0.945  0.00  0.00    +0.146 A 
ATOM     35  C   LIG    1       -1.686 -10.931  -2.296  0.00  0.00    +0.092 A 
ATOM     36  C   LIG    1       -0.447 -11.315  -2.779  0.00  0.00    +0.121 A 
BRANCH  35  37
ATOM     37  C   LIG    1       -2.992 -10.857  -2.990  0.00  0.00    +0.420 C 
ATOM     38  F   LIG    1       -3.498  -9.598  -2.974  0.00  0.00    -0.166 F 
ATOM     39  F   LIG    1       -3.919 -11.660  -2.409  0.00  0.00    -0.166 F 
ATOM     40  F   LIG    1       -2.907 -11.231  -4.292  0.00  0.00    -0.166 F 
ENDBRANCH  35  37
ENDBRANCH  31  32
ENDBRANCH  29  31
ENDBRANCH  23  27
ENDBRANCH   1  21
TORSDOF 10
