REMARK  Name = pdb/CHEMBL3954487.pdb
REMARK                            x       y       z     vdW  Elec       q    Type
REMARK                         _______ _______ _______ _____ _____    ______ ____
ROOT
ATOM      1  C   LIG    1        2.325  -1.620   0.501  0.00  0.00    +0.149 A 
ATOM      2  N   LIG    1        2.489  -2.919   0.201  0.00  0.00    -0.160 NA
ATOM      3  N   LIG    1        3.420  -3.372   1.069  0.00  0.00    -0.218 N 
ATOM      4  C   LIG    1        4.003  -2.325   1.789  0.00  0.00    +0.129 A 
ATOM      5  C   LIG    1        3.236  -1.218   1.507  0.00  0.00    +0.078 A 
ENDROOT
BRANCH   3   6
ATOM      6  C   LIG    1        3.744  -4.756   1.113  0.00  0.00    +0.067 A 
ATOM      7  C   LIG    1        4.251  -5.335   2.281  0.00  0.00    +0.028 A 
ATOM      8  C   LIG    1        4.594  -6.687   2.308  0.00  0.00    +0.002 A 
ATOM      9  C   LIG    1        4.401  -7.476   1.178  0.00  0.00    +0.000 A 
ATOM     10  C   LIG    1        3.862  -6.916   0.020  0.00  0.00    +0.002 A 
ATOM     11  C   LIG    1        3.528  -5.559  -0.016  0.00  0.00    +0.028 A 
ENDBRANCH   3   6
BRANCH   4  12
ATOM     12  N   LIG    1        5.178  -2.384   2.552  0.00  0.00    -0.266 N 
ATOM     13  H   LIG    1        5.657  -3.272   2.600  0.00  0.00    +0.157 HD
ATOM     14  C   LIG    1        5.794  -1.237   3.164  0.00  0.00    +0.251 C 
ATOM     15  O   LIG    1        5.308  -0.134   3.060  0.00  0.00    -0.270 OA
BRANCH  14  16
ATOM     16  C   LIG    1        7.099  -1.435   3.848  0.00  0.00    +0.056 A 
ATOM     17  C   LIG    1        7.466  -2.588   4.535  0.00  0.00    +0.054 A 
ATOM     18 CL   LIG    1        6.404  -3.916   4.802  0.00  0.00    -0.083 Cl
ATOM     19  C   LIG    1        8.729  -2.675   5.125  0.00  0.00    +0.041 A 
ATOM     20  C   LIG    1        9.604  -1.580   5.121  0.00  0.00    +0.052 A 
ATOM     21 CL   LIG    1       11.103  -1.834   5.944  0.00  0.00    -0.083 Cl
ATOM     22  C   LIG    1        9.218  -0.357   4.542  0.00  0.00    +0.019 A 
ATOM     23  C   LIG    1        7.979  -0.340   3.853  0.00  0.00    +0.026 A 
BRANCH  22  24
ATOM     24  C   LIG    1        9.900   0.938   4.767  0.00  0.00    +0.072 A 
ATOM     25  N   LIG    1        9.034   1.952   5.039  0.00  0.00    -0.255 NA
ATOM     26  C   LIG    1        9.537   3.145   5.421  0.00  0.00    +0.111 A 
ATOM     27  C   LIG    1       10.888   3.395   5.550  0.00  0.00    +0.020 A 
ATOM     28  C   LIG    1       11.771   2.374   5.226  0.00  0.00    +0.004 A 
ATOM     29  C   LIG    1       11.276   1.138   4.809  0.00  0.00    +0.028 A 
ENDBRANCH  22  24
ENDBRANCH  14  16
ENDBRANCH   4  12
BRANCH   1  30
ATOM     30  C   LIG    1        1.374  -0.769  -0.212  0.00  0.00    +0.236 C 
ATOM     31  N   LIG    1        0.915   0.291   0.348  0.00  0.00    -0.241 NA
BRANCH  30  32
ATOM     32  O   LIG    1        1.097  -1.197  -1.459  0.00  0.00    -0.491 OA
ATOM     33  H   LIG    1        0.370  -0.718  -1.878  0.00  0.00    +0.294 HD
ENDBRANCH  30  32
BRANCH  31  34
ATOM     34  C   LIG    1        0.023   1.219  -0.345  0.00  0.00    +0.222 C 
BRANCH  34  35
ATOM     35  C   LIG    1       -1.254   0.589  -0.753  0.00  0.00    +0.158 A 
ATOM     36  C   LIG    1       -2.475   0.375  -0.164  0.00  0.00    +0.069 A 
ATOM     37  C   LIG    1       -3.186  -0.373  -1.121  0.00  0.00    +0.157 A 
ATOM     38  N   LIG    1       -2.465  -0.591  -2.223  0.00  0.00    -0.086 NA
ATOM     39  O   LIG    1       -1.265   0.052  -2.005  0.00  0.00    -0.358 OA
ENDBRANCH  34  35
ENDBRANCH  31  34
ENDBRANCH   1  30
TORSDOF 8
