MODEL 1
REMARK VINA RESULT:      -7.1      0.000      0.000
REMARK  Name = pdb/CHEMBL3908953.pdb
REMARK                            x       y       z     vdW  Elec       q    Type
REMARK                         _______ _______ _______ _____ _____    ______ ____
ROOT
ATOM      1  C   LIG    1      -35.607  67.408  21.999  0.00  0.00    +0.132 C 
ATOM      2  N   LIG    1      -34.913  67.559  23.145  0.00  0.00    -0.141 NA
ATOM      3  N   LIG    1      -35.680  68.399  23.901  0.00  0.00    -0.201 N 
ATOM      4  C   LIG    1      -36.637  69.040  23.103  0.00  0.00    +0.185 C 
ATOM      5  C   LIG    1      -36.719  68.281  21.959  0.00  0.00    +0.056 C 
ENDROOT
BRANCH   3   6
ATOM      6  C   LIG    1      -35.364  68.624  25.276  0.00  0.00    +0.052 A 
ATOM      7  C   LIG    1      -36.270  68.316  26.301  0.00  0.00    +0.025 A 
ATOM      8  C   LIG    1      -35.936  68.562  27.638  0.00  0.00    +0.002 A 
ATOM      9  C   LIG    1      -34.689  69.094  27.965  0.00  0.00    +0.000 A 
ATOM     10  C   LIG    1      -33.769  69.368  26.955  0.00  0.00    +0.002 A 
ATOM     11  C   LIG    1      -34.100  69.128  25.617  0.00  0.00    +0.025 A 
ENDBRANCH   3   6
BRANCH   4  12
ATOM     12  N   LIG    1      -37.298  70.243  23.368  0.00  0.00    -0.282 N 
ATOM     13  H   LIG    1      -36.901  71.085  22.967  0.00  0.00    +0.152 HD
ATOM     14  C   LIG    1      -38.576  70.341  24.044  0.00  0.00    +0.247 C 
ATOM     15  O   LIG    1      -39.191  69.356  24.378  0.00  0.00    -0.270 OA
BRANCH  14  16
ATOM     16  C   LIG    1      -39.122  71.720  24.229  0.00  0.00    +0.056 A 
ATOM     17  C   LIG    1      -40.311  72.157  23.669  0.00  0.00    +0.054 A 
ATOM     18 CL   LIG    1      -41.295  71.194  22.633  0.00  0.00    -0.083 Cl
ATOM     19  C   LIG    1      -40.771  73.447  23.921  0.00  0.00    +0.041 A 
ATOM     20  C   LIG    1      -40.046  74.340  24.729  0.00  0.00    +0.052 A 
ATOM     21 CL   LIG    1      -40.871  75.825  25.045  0.00  0.00    -0.083 Cl
ATOM     22  C   LIG    1      -38.802  73.978  25.282  0.00  0.00    +0.022 A 
ATOM     23  C   LIG    1      -38.374  72.639  25.020  0.00  0.00    +0.026 A 
BRANCH  22  24
ATOM     24  C   LIG    1      -37.935  74.848  26.139  0.00  0.00    +0.107 A 
ATOM     25  C   LIG    1      -37.224  75.979  25.721  0.00  0.00    +0.149 A 
ATOM     26  F   LIG    1      -37.214  76.391  24.447  0.00  0.00    -0.203 F 
ATOM     27  C   LIG    1      -36.432  76.690  26.624  0.00  0.00    +0.042 A 
ATOM     28  C   LIG    1      -36.320  76.244  27.932  0.00  0.00    +0.023 A 
ATOM     29  C   LIG    1      -37.017  75.103  28.280  0.00  0.00    +0.111 A 
ATOM     30  N   LIG    1      -37.817  74.410  27.429  0.00  0.00    -0.252 NA
ENDBRANCH  22  24
ENDBRANCH  14  16
ENDBRANCH   4  12
BRANCH   1  32
ATOM     31  N   LIG    1      -34.199  65.666  21.191  0.00  0.00    -0.208 NA
ATOM     32  C   LIG    1      -35.141  66.511  20.937  0.00  0.00    +0.238 C 
BRANCH  31  35
ATOM     33  C   LIG    1      -31.620  66.319  19.613  0.00  0.00    +0.070 C 
ATOM     34  C   LIG    1      -32.522  65.154  19.453  0.00  0.00    +0.085 A 
ATOM     35  C   LIG    1      -33.707  64.836  20.176  0.00  0.00    +0.111 A 
ATOM     36  C   LIG    1      -34.064  63.578  19.738  0.00  0.00    +0.059 A 
ATOM     37  C   LIG    1      -35.105  62.596  20.111  0.00  0.00    +0.067 C 
ATOM     38  N   LIG    1      -33.172  63.282  18.742  0.00  0.00    -0.279 N 
ATOM     39  H   LIG    1      -33.134  62.443  18.173  0.00  0.00    +0.189 HD
ATOM     40  N   LIG    1      -32.218  64.203  18.560  0.00  0.00    -0.177 NA
ENDBRANCH  31  35
BRANCH  32  41
ATOM     41  O   LIG    1      -35.801  66.657  19.765  0.00  0.00    -0.491 OA
ATOM     42  H   LIG    1      -35.939  67.603  19.578  0.00  0.00    +0.294 HD
ENDBRANCH  32  41
ENDBRANCH   1  32
TORSDOF 7
ENDMDL
MODEL 2
REMARK VINA RESULT:      -7.1      4.157     10.193
REMARK  Name = pdb/CHEMBL3908953.pdb
REMARK                            x       y       z     vdW  Elec       q    Type
REMARK                         _______ _______ _______ _____ _____    ______ ____
ROOT
ATOM      1  C   LIG    1      -36.731  76.286  26.459  0.00  0.00    +0.132 C 
ATOM      2  N   LIG    1      -37.595  77.110  25.833  0.00  0.00    -0.141 NA
ATOM      3  N   LIG    1      -38.568  76.283  25.349  0.00  0.00    -0.201 N 
ATOM      4  C   LIG    1      -38.127  74.952  25.359  0.00  0.00    +0.185 C 
ATOM      5  C   LIG    1      -37.061  74.931  26.227  0.00  0.00    +0.056 C 
ENDROOT
BRANCH   3   6
ATOM      6  C   LIG    1      -39.771  76.825  24.803  0.00  0.00    +0.052 A 
ATOM      7  C   LIG    1      -40.479  76.171  23.785  0.00  0.00    +0.025 A 
ATOM      8  C   LIG    1      -41.647  76.736  23.260  0.00  0.00    +0.002 A 
ATOM      9  C   LIG    1      -42.130  77.945  23.761  0.00  0.00    +0.000 A 
ATOM     10  C   LIG    1      -41.452  78.582  24.798  0.00  0.00    +0.002 A 
ATOM     11  C   LIG    1      -40.282  78.023  25.322  0.00  0.00    +0.025 A 
ENDBRANCH   3   6
BRANCH   4  12
ATOM     12  N   LIG    1      -38.606  73.892  24.582  0.00  0.00    -0.282 N 
ATOM     13  H   LIG    1      -38.141  73.723  23.697  0.00  0.00    +0.152 HD
ATOM     14  C   LIG    1      -39.611  72.946  25.023  0.00  0.00    +0.247 C 
ATOM     15  O   LIG    1      -40.067  72.983  26.141  0.00  0.00    -0.270 OA
BRANCH  14  16
ATOM     16  C   LIG    1      -39.987  71.879  24.046  0.00  0.00    +0.056 A 
ATOM     17  C   LIG    1      -41.180  71.866  23.343  0.00  0.00    +0.054 A 
ATOM     18 CL   LIG    1      -42.422  73.045  23.539  0.00  0.00    -0.083 Cl
ATOM     19  C   LIG    1      -41.439  70.855  22.422  0.00  0.00    +0.041 A 
ATOM     20  C   LIG    1      -40.517  69.820  22.189  0.00  0.00    +0.052 A 
ATOM     21 CL   LIG    1      -40.961  68.764  20.895  0.00  0.00    -0.083 Cl
ATOM     22  C   LIG    1      -39.310  69.741  22.912  0.00  0.00    +0.022 A 
ATOM     23  C   LIG    1      -39.069  70.809  23.833  0.00  0.00    +0.026 A 
BRANCH  22  24
ATOM     24  C   LIG    1      -38.265  68.679  22.765  0.00  0.00    +0.107 A 
ATOM     25  C   LIG    1      -37.397  68.514  21.678  0.00  0.00    +0.149 A 
ATOM     26  F   LIG    1      -37.446  69.300  20.595  0.00  0.00    -0.203 F 
ATOM     27  C   LIG    1      -36.480  67.463  21.660  0.00  0.00    +0.042 A 
ATOM     28  C   LIG    1      -36.460  66.555  22.707  0.00  0.00    +0.023 A 
ATOM     29  C   LIG    1      -37.362  66.747  23.736  0.00  0.00    +0.111 A 
ATOM     30  N   LIG    1      -38.245  67.778  23.793  0.00  0.00    -0.252 NA
ENDBRANCH  22  24
ENDBRANCH  14  16
ENDBRANCH   4  12
BRANCH   1  32
ATOM     31  N   LIG    1      -34.498  76.085  27.261  0.00  0.00    -0.208 NA
ATOM     32  C   LIG    1      -35.564  76.807  27.179  0.00  0.00    +0.238 C 
BRANCH  31  35
ATOM     33  C   LIG    1      -33.426  74.616  29.763  0.00  0.00    +0.070 C 
ATOM     34  C   LIG    1      -32.915  75.862  29.142  0.00  0.00    +0.085 A 
ATOM     35  C   LIG    1      -33.392  76.544  27.988  0.00  0.00    +0.111 A 
ATOM     36  C   LIG    1      -32.471  77.545  27.760  0.00  0.00    +0.059 A 
ATOM     37  C   LIG    1      -32.266  78.559  26.704  0.00  0.00    +0.067 C 
ATOM     38  N   LIG    1      -31.598  77.471  28.813  0.00  0.00    -0.279 N 
ATOM     39  H   LIG    1      -30.795  78.063  28.996  0.00  0.00    +0.189 HD
ATOM     40  N   LIG    1      -31.827  76.453  29.653  0.00  0.00    -0.177 NA
ENDBRANCH  31  35
BRANCH  32  41
ATOM     41  O   LIG    1      -35.737  78.053  27.677  0.00  0.00    -0.491 OA
ATOM     42  H   LIG    1      -35.856  78.011  28.643  0.00  0.00    +0.294 HD
ENDBRANCH  32  41
ENDBRANCH   1  32
TORSDOF 7
ENDMDL
MODEL 3
REMARK VINA RESULT:      -7.0      6.776     10.280
REMARK  Name = pdb/CHEMBL3908953.pdb
REMARK                            x       y       z     vdW  Elec       q    Type
REMARK                         _______ _______ _______ _____ _____    ______ ____
ROOT
ATOM      1  C   LIG    1      -37.203  76.172  26.094  0.00  0.00    +0.132 C 
ATOM      2  N   LIG    1      -37.607  74.886  26.081  0.00  0.00    -0.141 NA
ATOM      3  N   LIG    1      -38.495  74.817  25.045  0.00  0.00    -0.201 N 
ATOM      4  C   LIG    1      -38.903  76.102  24.664  0.00  0.00    +0.185 C 
ATOM      5  C   LIG    1      -37.956  76.951  25.185  0.00  0.00    +0.056 C 
ENDROOT
BRANCH   3   6
ATOM      6  C   LIG    1      -38.977  73.551  24.591  0.00  0.00    +0.052 A 
ATOM      7  C   LIG    1      -40.253  73.407  24.028  0.00  0.00    +0.025 A 
ATOM      8  C   LIG    1      -40.702  72.149  23.607  0.00  0.00    +0.002 A 
ATOM      9  C   LIG    1      -39.876  71.033  23.722  0.00  0.00    +0.000 A 
ATOM     10  C   LIG    1      -38.593  71.175  24.247  0.00  0.00    +0.002 A 
ATOM     11  C   LIG    1      -38.141  72.428  24.673  0.00  0.00    +0.025 A 
ENDBRANCH   3   6
BRANCH   4  12
ATOM     12  N   LIG    1      -40.072  76.455  23.982  0.00  0.00    -0.282 N 
ATOM     13  H   LIG    1      -40.057  76.376  22.971  0.00  0.00    +0.152 HD
ATOM     14  C   LIG    1      -41.327  76.780  24.628  0.00  0.00    +0.247 C 
ATOM     15  O   LIG    1      -41.459  76.707  25.826  0.00  0.00    -0.270 OA
BRANCH  14  16
ATOM     16  C   LIG    1      -42.466  77.129  23.723  0.00  0.00    +0.056 A 
ATOM     17  C   LIG    1      -42.981  78.408  23.595  0.00  0.00    +0.054 A 
ATOM     18 CL   LIG    1      -42.425  79.763  24.503  0.00  0.00    -0.083 Cl
ATOM     19  C   LIG    1      -44.019  78.657  22.701  0.00  0.00    +0.041 A 
ATOM     20  C   LIG    1      -44.579  77.631  21.921  0.00  0.00    +0.052 A 
ATOM     21 CL   LIG    1      -45.738  78.184  20.764  0.00  0.00    -0.083 Cl
ATOM     22  C   LIG    1      -44.140  76.298  22.044  0.00  0.00    +0.022 A 
ATOM     23  C   LIG    1      -43.058  76.085  22.956  0.00  0.00    +0.026 A 
BRANCH  22  24
ATOM     24  C   LIG    1      -44.672  75.123  21.283  0.00  0.00    +0.107 A 
ATOM     25  C   LIG    1      -44.639  74.951  19.894  0.00  0.00    +0.149 A 
ATOM     26  F   LIG    1      -44.143  75.880  19.067  0.00  0.00    -0.203 F 
ATOM     27  C   LIG    1      -45.193  73.811  19.310  0.00  0.00    +0.042 A 
ATOM     28  C   LIG    1      -45.816  72.867  20.112  0.00  0.00    +0.023 A 
ATOM     29  C   LIG    1      -45.849  73.106  21.472  0.00  0.00    +0.111 A 
ATOM     30  N   LIG    1      -45.292  74.192  22.068  0.00  0.00    -0.252 NA
ENDBRANCH  22  24
ENDBRANCH  14  16
ENDBRANCH   4  12
BRANCH   1  32
ATOM     31  N   LIG    1      -34.939  76.609  26.687  0.00  0.00    -0.208 NA
ATOM     32  C   LIG    1      -36.181  76.642  27.035  0.00  0.00    +0.238 C 
BRANCH  31  35
ATOM     33  C   LIG    1      -33.394  74.593  28.451  0.00  0.00    +0.070 C 
ATOM     34  C   LIG    1      -33.248  76.067  28.402  0.00  0.00    +0.085 A 
ATOM     35  C   LIG    1      -33.945  77.006  27.591  0.00  0.00    +0.111 A 
ATOM     36  C   LIG    1      -33.320  78.212  27.825  0.00  0.00    +0.059 A 
ATOM     37  C   LIG    1      -33.435  79.578  27.270  0.00  0.00    +0.067 C 
ATOM     38  N   LIG    1      -32.399  77.951  28.805  0.00  0.00    -0.279 N 
ATOM     39  H   LIG    1      -31.760  78.604  29.247  0.00  0.00    +0.189 HD
ATOM     40  N   LIG    1      -32.317  76.662  29.159  0.00  0.00    -0.177 NA
ENDBRANCH  31  35
BRANCH  32  41
ATOM     41  O   LIG    1      -36.681  77.103  28.205  0.00  0.00    -0.491 OA
ATOM     42  H   LIG    1      -36.752  76.372  28.846  0.00  0.00    +0.294 HD
ENDBRANCH  32  41
ENDBRANCH   1  32
TORSDOF 7
ENDMDL
MODEL 4
REMARK VINA RESULT:      -6.8     19.124     20.957
REMARK  Name = pdb/CHEMBL3908953.pdb
REMARK                            x       y       z     vdW  Elec       q    Type
REMARK                         _______ _______ _______ _____ _____    ______ ____
ROOT
ATOM      1  C   LIG    1      -24.962  78.749  14.111  0.00  0.00    +0.132 C 
ATOM      2  N   LIG    1      -23.781  78.182  14.430  0.00  0.00    -0.141 NA
ATOM      3  N   LIG    1      -22.932  79.237  14.608  0.00  0.00    -0.201 N 
ATOM      4  C   LIG    1      -23.478  80.403  14.056  0.00  0.00    +0.185 C 
ATOM      5  C   LIG    1      -24.822  80.143  13.920  0.00  0.00    +0.056 C 
ENDROOT
BRANCH   3   6
ATOM      6  C   LIG    1      -21.632  79.031  15.162  0.00  0.00    +0.052 A 
ATOM      7  C   LIG    1      -20.816  77.966  14.755  0.00  0.00    +0.025 A 
ATOM      8  C   LIG    1      -19.552  77.783  15.329  0.00  0.00    +0.002 A 
ATOM      9  C   LIG    1      -19.083  78.673  16.295  0.00  0.00    +0.000 A 
ATOM     10  C   LIG    1      -19.872  79.755  16.678  0.00  0.00    +0.002 A 
ATOM     11  C   LIG    1      -21.137  79.939  16.110  0.00  0.00    +0.025 A 
ENDBRANCH   3   6
BRANCH   4  12
ATOM     12  N   LIG    1      -22.794  81.551  13.644  0.00  0.00    -0.282 N 
ATOM     13  H   LIG    1      -22.474  81.576  12.683  0.00  0.00    +0.152 HD
ATOM     14  C   LIG    1      -22.646  82.747  14.449  0.00  0.00    +0.247 C 
ATOM     15  O   LIG    1      -23.170  82.848  15.533  0.00  0.00    -0.270 OA
BRANCH  14  16
ATOM     16  C   LIG    1      -21.882  83.872  13.828  0.00  0.00    +0.056 A 
ATOM     17  C   LIG    1      -20.501  83.899  13.728  0.00  0.00    +0.054 A 
ATOM     18 CL   LIG    1      -19.468  82.672  14.358  0.00  0.00    -0.083 Cl
ATOM     19  C   LIG    1      -19.866  84.968  13.100  0.00  0.00    +0.041 A 
ATOM     20  C   LIG    1      -20.595  86.045  12.568  0.00  0.00    +0.052 A 
ATOM     21 CL   LIG    1      -19.630  87.179  11.692  0.00  0.00    -0.083 Cl
ATOM     22  C   LIG    1      -21.998  86.107  12.687  0.00  0.00    +0.022 A 
ATOM     23  C   LIG    1      -22.616  84.981  13.317  0.00  0.00    +0.026 A 
BRANCH  22  24
ATOM     24  C   LIG    1      -22.875  87.208  12.178  0.00  0.00    +0.107 A 
ATOM     25  C   LIG    1      -22.801  88.560  12.535  0.00  0.00    +0.149 A 
ATOM     26  F   LIG    1      -21.926  89.017  13.440  0.00  0.00    -0.203 F 
ATOM     27  C   LIG    1      -23.700  89.483  11.999  0.00  0.00    +0.042 A 
ATOM     28  C   LIG    1      -24.696  89.046  11.140  0.00  0.00    +0.023 A 
ATOM     29  C   LIG    1      -24.743  87.696  10.850  0.00  0.00    +0.111 A 
ATOM     30  N   LIG    1      -23.863  86.782  11.335  0.00  0.00    -0.252 NA
ENDBRANCH  22  24
ENDBRANCH  14  16
ENDBRANCH   4  12
BRANCH   1  32
ATOM     31  N   LIG    1      -26.375  77.396  12.754  0.00  0.00    -0.208 NA
ATOM     32  C   LIG    1      -26.167  77.939  13.906  0.00  0.00    +0.238 C 
BRANCH  31  35
ATOM     33  C   LIG    1      -26.599  74.379  13.398  0.00  0.00    +0.070 C 
ATOM     34  C   LIG    1      -27.631  75.271  12.818  0.00  0.00    +0.085 A 
ATOM     35  C   LIG    1      -27.545  76.662  12.524  0.00  0.00    +0.111 A 
ATOM     36  C   LIG    1      -28.822  77.026  12.153  0.00  0.00    +0.059 A 
ATOM     37  C   LIG    1      -29.492  78.301  11.816  0.00  0.00    +0.067 C 
ATOM     38  N   LIG    1      -29.536  75.857  12.141  0.00  0.00    -0.279 N 
ATOM     39  H   LIG    1      -30.513  75.729  11.899  0.00  0.00    +0.189 HD
ATOM     40  N   LIG    1      -28.851  74.785  12.558  0.00  0.00    -0.177 NA
ENDBRANCH  31  35
BRANCH  32  41
ATOM     41  O   LIG    1      -26.948  77.826  15.006  0.00  0.00    -0.491 OA
ATOM     42  H   LIG    1      -27.148  76.888  15.175  0.00  0.00    +0.294 HD
ENDBRANCH  32  41
ENDBRANCH   1  32
TORSDOF 7
ENDMDL
MODEL 5
REMARK VINA RESULT:      -6.8      6.194     10.374
REMARK  Name = pdb/CHEMBL3908953.pdb
REMARK                            x       y       z     vdW  Elec       q    Type
REMARK                         _______ _______ _______ _____ _____    ______ ____
ROOT
ATOM      1  C   LIG    1      -36.642  76.276  26.773  0.00  0.00    +0.132 C 
ATOM      2  N   LIG    1      -37.516  77.136  26.211  0.00  0.00    -0.141 NA
ATOM      3  N   LIG    1      -38.502  76.339  25.704  0.00  0.00    -0.201 N 
ATOM      4  C   LIG    1      -38.067  75.009  25.631  0.00  0.00    +0.185 C 
ATOM      5  C   LIG    1      -36.983  74.937  26.475  0.00  0.00    +0.056 C 
ENDROOT
BRANCH   3   6
ATOM      6  C   LIG    1      -39.714  76.914  25.213  0.00  0.00    +0.052 A 
ATOM      7  C   LIG    1      -39.998  76.976  23.841  0.00  0.00    +0.025 A 
ATOM      8  C   LIG    1      -41.189  77.560  23.391  0.00  0.00    +0.002 A 
ATOM      9  C   LIG    1      -42.113  78.064  24.305  0.00  0.00    +0.000 A 
ATOM     10  C   LIG    1      -41.854  77.973  25.671  0.00  0.00    +0.002 A 
ATOM     11  C   LIG    1      -40.665  77.395  26.125  0.00  0.00    +0.025 A 
ENDBRANCH   3   6
BRANCH   4  12
ATOM     12  N   LIG    1      -38.566  73.994  24.808  0.00  0.00    -0.282 N 
ATOM     13  H   LIG    1      -38.126  73.878  23.902  0.00  0.00    +0.152 HD
ATOM     14  C   LIG    1      -39.556  73.020  25.222  0.00  0.00    +0.247 C 
ATOM     15  O   LIG    1      -39.979  72.990  26.352  0.00  0.00    -0.270 OA
BRANCH  14  16
ATOM     16  C   LIG    1      -39.958  72.010  24.195  0.00  0.00    +0.056 A 
ATOM     17  C   LIG    1      -39.202  70.895  23.877  0.00  0.00    +0.054 A 
ATOM     18 CL   LIG    1      -37.664  70.547  24.573  0.00  0.00    -0.083 Cl
ATOM     19  C   LIG    1      -39.666  69.980  22.935  0.00  0.00    +0.041 A 
ATOM     20  C   LIG    1      -40.894  70.164  22.276  0.00  0.00    +0.052 A 
ATOM     21 CL   LIG    1      -41.356  68.835  21.273  0.00  0.00    -0.083 Cl
ATOM     22  C   LIG    1      -41.685  71.306  22.512  0.00  0.00    +0.022 A 
ATOM     23  C   LIG    1      -41.187  72.211  23.501  0.00  0.00    +0.026 A 
BRANCH  22  24
ATOM     24  C   LIG    1      -42.995  71.617  21.858  0.00  0.00    +0.107 A 
ATOM     25  C   LIG    1      -43.229  71.734  20.482  0.00  0.00    +0.149 A 
ATOM     26  F   LIG    1      -42.252  71.614  19.575  0.00  0.00    -0.203 F 
ATOM     27  C   LIG    1      -44.502  72.051  20.006  0.00  0.00    +0.042 A 
ATOM     28  C   LIG    1      -45.528  72.292  20.907  0.00  0.00    +0.023 A 
ATOM     29  C   LIG    1      -45.231  72.197  22.254  0.00  0.00    +0.111 A 
ATOM     30  N   LIG    1      -44.009  71.861  22.742  0.00  0.00    -0.252 NA
ENDBRANCH  22  24
ENDBRANCH  14  16
ENDBRANCH   4  12
BRANCH   1  32
ATOM     31  N   LIG    1      -34.308  76.229  27.240  0.00  0.00    -0.208 NA
ATOM     32  C   LIG    1      -35.459  76.753  27.496  0.00  0.00    +0.238 C 
BRANCH  31  35
ATOM     33  C   LIG    1      -32.884  74.394  29.282  0.00  0.00    +0.070 C 
ATOM     34  C   LIG    1      -32.535  75.783  28.899  0.00  0.00    +0.085 A 
ATOM     35  C   LIG    1      -33.175  76.637  27.957  0.00  0.00    +0.111 A 
ATOM     36  C   LIG    1      -32.362  77.747  27.872  0.00  0.00    +0.059 A 
ATOM     37  C   LIG    1      -32.342  78.970  27.041  0.00  0.00    +0.067 C 
ATOM     38  N   LIG    1      -31.387  77.546  28.813  0.00  0.00    -0.279 N 
ATOM     39  H   LIG    1      -30.618  78.163  29.051  0.00  0.00    +0.189 HD
ATOM     40  N   LIG    1      -31.452  76.362  29.434  0.00  0.00    -0.177 NA
ENDBRANCH  31  35
BRANCH  32  41
ATOM     41  O   LIG    1      -35.715  77.754  28.371  0.00  0.00    -0.491 OA
ATOM     42  H   LIG    1      -36.510  78.242  28.092  0.00  0.00    +0.294 HD
ENDBRANCH  32  41
ENDBRANCH   1  32
TORSDOF 7
ENDMDL
MODEL 6
REMARK VINA RESULT:      -6.7      3.657      9.724
REMARK  Name = pdb/CHEMBL3908953.pdb
REMARK                            x       y       z     vdW  Elec       q    Type
REMARK                         _______ _______ _______ _____ _____    ______ ____
ROOT
ATOM      1  C   LIG    1      -36.211  71.676  26.684  0.00  0.00    +0.132 C 
ATOM      2  N   LIG    1      -37.151  72.531  26.237  0.00  0.00    -0.141 NA
ATOM      3  N   LIG    1      -37.751  71.872  25.203  0.00  0.00    -0.201 N 
ATOM      4  C   LIG    1      -36.960  70.792  24.788  0.00  0.00    +0.185 C 
ATOM      5  C   LIG    1      -36.098  70.553  25.832  0.00  0.00    +0.056 C 
ENDROOT
BRANCH   3   6
ATOM      6  C   LIG    1      -38.945  72.387  24.613  0.00  0.00    +0.052 A 
ATOM      7  C   LIG    1      -39.934  71.542  24.091  0.00  0.00    +0.025 A 
ATOM      8  C   LIG    1      -41.087  72.079  23.505  0.00  0.00    +0.002 A 
ATOM      9  C   LIG    1      -41.273  73.460  23.457  0.00  0.00    +0.000 A 
ATOM     10  C   LIG    1      -40.311  74.306  24.007  0.00  0.00    +0.002 A 
ATOM     11  C   LIG    1      -39.156  73.774  24.589  0.00  0.00    +0.025 A 
ENDBRANCH   3   6
BRANCH   4  12
ATOM     12  N   LIG    1      -36.977  70.154  23.543  0.00  0.00    -0.282 N 
ATOM     13  H   LIG    1      -36.620  70.677  22.752  0.00  0.00    +0.152 HD
ATOM     14  C   LIG    1      -37.330  68.763  23.344  0.00  0.00    +0.247 C 
ATOM     15  O   LIG    1      -37.583  68.035  24.274  0.00  0.00    -0.270 OA
BRANCH  14  16
ATOM     16  C   LIG    1      -37.284  68.264  21.935  0.00  0.00    +0.056 A 
ATOM     17  C   LIG    1      -38.291  68.480  21.010  0.00  0.00    +0.054 A 
ATOM     18 CL   LIG    1      -39.764  69.299  21.368  0.00  0.00    -0.083 Cl
ATOM     19  C   LIG    1      -38.154  68.015  19.705  0.00  0.00    +0.041 A 
ATOM     20  C   LIG    1      -37.011  67.308  19.293  0.00  0.00    +0.052 A 
ATOM     21 CL   LIG    1      -36.970  66.966  17.600  0.00  0.00    -0.083 Cl
ATOM     22  C   LIG    1      -35.975  67.005  20.199  0.00  0.00    +0.022 A 
ATOM     23  C   LIG    1      -36.141  67.518  21.524  0.00  0.00    +0.026 A 
BRANCH  22  24
ATOM     24  C   LIG    1      -34.724  66.245  19.882  0.00  0.00    +0.107 A 
ATOM     25  C   LIG    1      -34.648  64.915  19.450  0.00  0.00    +0.149 A 
ATOM     26  F   LIG    1      -35.733  64.142  19.312  0.00  0.00    -0.203 F 
ATOM     27  C   LIG    1      -33.409  64.320  19.210  0.00  0.00    +0.042 A 
ATOM     28  C   LIG    1      -32.248  65.042  19.441  0.00  0.00    +0.023 A 
ATOM     29  C   LIG    1      -32.383  66.339  19.899  0.00  0.00    +0.111 A 
ATOM     30  N   LIG    1      -33.576  66.950  20.113  0.00  0.00    -0.252 NA
ENDBRANCH  22  24
ENDBRANCH  14  16
ENDBRANCH   4  12
BRANCH   1  32
ATOM     31  N   LIG    1      -34.209  72.501  27.675  0.00  0.00    -0.208 NA
ATOM     32  C   LIG    1      -35.382  71.993  27.852  0.00  0.00    +0.238 C 
BRANCH  31  35
ATOM     33  C   LIG    1      -34.049  75.288  29.006  0.00  0.00    +0.070 C 
ATOM     34  C   LIG    1      -33.315  74.054  29.374  0.00  0.00    +0.085 A 
ATOM     35  C   LIG    1      -33.384  72.764  28.776  0.00  0.00    +0.111 A 
ATOM     36  C   LIG    1      -32.627  71.952  29.594  0.00  0.00    +0.059 A 
ATOM     37  C   LIG    1      -32.334  70.503  29.652  0.00  0.00    +0.067 C 
ATOM     38  N   LIG    1      -32.083  72.795  30.527  0.00  0.00    -0.279 N 
ATOM     39  H   LIG    1      -31.453  72.557  31.286  0.00  0.00    +0.189 HD
ATOM     40  N   LIG    1      -32.496  74.065  30.434  0.00  0.00    -0.177 NA
ENDBRANCH  31  35
BRANCH  32  41
ATOM     41  O   LIG    1      -35.979  71.730  29.038  0.00  0.00    -0.491 OA
ATOM     42  H   LIG    1      -35.469  71.057  29.523  0.00  0.00    +0.294 HD
ENDBRANCH  32  41
ENDBRANCH   1  32
TORSDOF 7
ENDMDL
MODEL 7
REMARK VINA RESULT:      -6.7      6.105      8.115
REMARK  Name = pdb/CHEMBL3908953.pdb
REMARK                            x       y       z     vdW  Elec       q    Type
REMARK                         _______ _______ _______ _____ _____    ______ ____
ROOT
ATOM      1  C   LIG    1      -40.507  72.681  23.837  0.00  0.00    +0.132 C 
ATOM      2  N   LIG    1      -40.944  73.927  24.107  0.00  0.00    -0.141 NA
ATOM      3  N   LIG    1      -39.816  74.621  24.438  0.00  0.00    -0.201 N 
ATOM      4  C   LIG    1      -38.764  73.740  24.721  0.00  0.00    +0.185 C 
ATOM      5  C   LIG    1      -39.137  72.541  24.160  0.00  0.00    +0.056 C 
ENDROOT
BRANCH   3   6
ATOM      6  C   LIG    1      -39.860  76.041  24.585  0.00  0.00    +0.052 A 
ATOM      7  C   LIG    1      -39.983  76.894  23.479  0.00  0.00    +0.025 A 
ATOM      8  C   LIG    1      -40.008  78.283  23.656  0.00  0.00    +0.002 A 
ATOM      9  C   LIG    1      -39.933  78.830  24.936  0.00  0.00    +0.000 A 
ATOM     10  C   LIG    1      -39.848  77.988  26.042  0.00  0.00    +0.002 A 
ATOM     11  C   LIG    1      -39.819  76.601  25.871  0.00  0.00    +0.025 A 
ENDBRANCH   3   6
BRANCH   4  12
ATOM     12  N   LIG    1      -37.623  73.995  25.488  0.00  0.00    -0.282 N 
ATOM     13  H   LIG    1      -36.839  74.431  25.016  0.00  0.00    +0.152 HD
ATOM     14  C   LIG    1      -37.547  73.814  26.923  0.00  0.00    +0.247 C 
ATOM     15  O   LIG    1      -38.510  73.477  27.570  0.00  0.00    -0.270 OA
BRANCH  14  16
ATOM     16  C   LIG    1      -36.238  74.147  27.564  0.00  0.00    +0.056 A 
ATOM     17  C   LIG    1      -35.459  73.226  28.243  0.00  0.00    +0.054 A 
ATOM     18 CL   LIG    1      -35.917  71.584  28.499  0.00  0.00    -0.083 Cl
ATOM     19  C   LIG    1      -34.232  73.607  28.779  0.00  0.00    +0.041 A 
ATOM     20  C   LIG    1      -33.757  74.925  28.662  0.00  0.00    +0.052 A 
ATOM     21 CL   LIG    1      -32.147  75.144  29.251  0.00  0.00    -0.083 Cl
ATOM     22  C   LIG    1      -34.525  75.924  28.033  0.00  0.00    +0.022 A 
ATOM     23  C   LIG    1      -35.769  75.490  27.475  0.00  0.00    +0.026 A 
BRANCH  22  24
ATOM     24  C   LIG    1      -34.133  77.360  27.865  0.00  0.00    +0.107 A 
ATOM     25  C   LIG    1      -33.072  77.845  27.091  0.00  0.00    +0.149 A 
ATOM     26  F   LIG    1      -32.239  77.034  26.426  0.00  0.00    -0.203 F 
ATOM     27  C   LIG    1      -32.802  79.213  27.040  0.00  0.00    +0.042 A 
ATOM     28  C   LIG    1      -33.567  80.088  27.796  0.00  0.00    +0.023 A 
ATOM     29  C   LIG    1      -34.579  79.550  28.568  0.00  0.00    +0.111 A 
ATOM     30  N   LIG    1      -34.880  78.227  28.612  0.00  0.00    -0.252 NA
ENDBRANCH  22  24
ENDBRANCH  14  16
ENDBRANCH   4  12
BRANCH   1  32
ATOM     31  N   LIG    1      -40.998  70.755  22.526  0.00  0.00    -0.208 NA
ATOM     32  C   LIG    1      -41.422  71.634  23.370  0.00  0.00    +0.238 C 
BRANCH  31  35
ATOM     33  C   LIG    1      -42.673  71.172  19.959  0.00  0.00    +0.070 C 
ATOM     34  C   LIG    1      -42.643  69.988  20.851  0.00  0.00    +0.085 A 
ATOM     35  C   LIG    1      -41.872  69.778  22.030  0.00  0.00    +0.111 A 
ATOM     36  C   LIG    1      -42.103  68.465  22.378  0.00  0.00    +0.059 A 
ATOM     37  C   LIG    1      -41.575  67.544  23.408  0.00  0.00    +0.067 C 
ATOM     38  N   LIG    1      -43.045  68.022  21.487  0.00  0.00    -0.279 N 
ATOM     39  H   LIG    1      -43.475  67.104  21.443  0.00  0.00    +0.189 HD
ATOM     40  N   LIG    1      -43.375  68.910  20.541  0.00  0.00    -0.177 NA
ENDBRANCH  31  35
BRANCH  32  41
ATOM     41  O   LIG    1      -42.657  71.696  23.922  0.00  0.00    -0.491 OA
ATOM     42  H   LIG    1      -43.201  70.956  23.600  0.00  0.00    +0.294 HD
ENDBRANCH  32  41
ENDBRANCH   1  32
TORSDOF 7
ENDMDL
MODEL 8
REMARK VINA RESULT:      -6.7      6.998     10.116
REMARK  Name = pdb/CHEMBL3908953.pdb
REMARK                            x       y       z     vdW  Elec       q    Type
REMARK                         _______ _______ _______ _____ _____    ______ ____
ROOT
ATOM      1  C   LIG    1      -31.715  74.083  29.877  0.00  0.00    +0.132 C 
ATOM      2  N   LIG    1      -31.498  75.294  29.327  0.00  0.00    -0.141 NA
ATOM      3  N   LIG    1      -32.687  75.624  28.743  0.00  0.00    -0.201 N 
ATOM      4  C   LIG    1      -33.502  74.491  28.620  0.00  0.00    +0.185 C 
ATOM      5  C   LIG    1      -32.978  73.571  29.498  0.00  0.00    +0.056 C 
ENDROOT
BRANCH   3   6
ATOM      6  C   LIG    1      -32.902  76.942  28.238  0.00  0.00    +0.052 A 
ATOM      7  C   LIG    1      -32.250  77.406  27.087  0.00  0.00    +0.025 A 
ATOM      8  C   LIG    1      -32.471  78.710  26.625  0.00  0.00    +0.002 A 
ATOM      9  C   LIG    1      -33.360  79.550  27.293  0.00  0.00    +0.000 A 
ATOM     10  C   LIG    1      -34.041  79.084  28.415  0.00  0.00    +0.002 A 
ATOM     11  C   LIG    1      -33.820  77.785  28.883  0.00  0.00    +0.025 A 
ENDBRANCH   3   6
BRANCH   4  12
ATOM     12  N   LIG    1      -34.563  74.298  27.729  0.00  0.00    -0.282 N 
ATOM     13  H   LIG    1      -34.344  73.860  26.840  0.00  0.00    +0.152 HD
ATOM     14  C   LIG    1      -35.954  74.546  28.049  0.00  0.00    +0.247 C 
ATOM     15  O   LIG    1      -36.296  74.889  29.155  0.00  0.00    -0.270 OA
BRANCH  14  16
ATOM     16  C   LIG    1      -36.941  74.275  26.960  0.00  0.00    +0.056 A 
ATOM     17  C   LIG    1      -37.199  73.013  26.452  0.00  0.00    +0.054 A 
ATOM     18 CL   LIG    1      -36.374  71.588  26.961  0.00  0.00    -0.083 Cl
ATOM     19  C   LIG    1      -38.163  72.839  25.463  0.00  0.00    +0.041 A 
ATOM     20  C   LIG    1      -38.887  73.927  24.944  0.00  0.00    +0.052 A 
ATOM     21 CL   LIG    1      -40.143  73.473  23.848  0.00  0.00    -0.083 Cl
ATOM     22  C   LIG    1      -38.634  75.244  25.375  0.00  0.00    +0.022 A 
ATOM     23  C   LIG    1      -37.653  75.380  26.408  0.00  0.00    +0.026 A 
BRANCH  22  24
ATOM     24  C   LIG    1      -39.325  76.478  24.883  0.00  0.00    +0.107 A 
ATOM     25  C   LIG    1      -38.814  77.406  23.967  0.00  0.00    +0.149 A 
ATOM     26  F   LIG    1      -37.584  77.299  23.448  0.00  0.00    -0.203 F 
ATOM     27  C   LIG    1      -39.559  78.529  23.610  0.00  0.00    +0.042 A 
ATOM     28  C   LIG    1      -40.795  78.746  24.199  0.00  0.00    +0.023 A 
ATOM     29  C   LIG    1      -41.234  77.815  25.122  0.00  0.00    +0.111 A 
ATOM     30  N   LIG    1      -40.542  76.699  25.466  0.00  0.00    -0.252 NA
ENDBRANCH  22  24
ENDBRANCH  14  16
ENDBRANCH   4  12
BRANCH   1  32
ATOM     31  N   LIG    1      -30.476  73.774  31.886  0.00  0.00    -0.208 NA
ATOM     32  C   LIG    1      -30.682  73.405  30.667  0.00  0.00    +0.238 C 
BRANCH  31  35
ATOM     33  C   LIG    1      -30.943  71.229  33.580  0.00  0.00    +0.070 C 
ATOM     34  C   LIG    1      -29.691  72.006  33.421  0.00  0.00    +0.085 A 
ATOM     35  C   LIG    1      -29.459  73.173  32.639  0.00  0.00    +0.111 A 
ATOM     36  C   LIG    1      -28.100  73.391  32.721  0.00  0.00    +0.059 A 
ATOM     37  C   LIG    1      -27.151  74.339  32.098  0.00  0.00    +0.067 C 
ATOM     38  N   LIG    1      -27.640  72.446  33.600  0.00  0.00    -0.279 N 
ATOM     39  H   LIG    1      -26.688  72.308  33.922  0.00  0.00    +0.189 HD
ATOM     40  N   LIG    1      -28.572  71.583  34.023  0.00  0.00    -0.177 NA
ENDBRANCH  31  35
BRANCH  32  41
ATOM     41  O   LIG    1      -30.050  72.407  30.006  0.00  0.00    -0.491 OA
ATOM     42  H   LIG    1      -30.640  71.635  29.930  0.00  0.00    +0.294 HD
ENDBRANCH  32  41
ENDBRANCH   1  32
TORSDOF 7
ENDMDL
MODEL 9
REMARK VINA RESULT:      -6.6     19.514     21.384
REMARK  Name = pdb/CHEMBL3908953.pdb
REMARK                            x       y       z     vdW  Elec       q    Type
REMARK                         _______ _______ _______ _____ _____    ______ ____
ROOT
ATOM      1  C   LIG    1      -24.564  79.153  14.664  0.00  0.00    +0.132 C 
ATOM      2  N   LIG    1      -23.391  78.504  14.798  0.00  0.00    -0.141 NA
ATOM      3  N   LIG    1      -22.490  79.482  15.107  0.00  0.00    -0.201 N 
ATOM      4  C   LIG    1      -23.020  80.745  14.812  0.00  0.00    +0.185 C 
ATOM      5  C   LIG    1      -24.379  80.554  14.719  0.00  0.00    +0.056 C 
ENDROOT
BRANCH   3   6
ATOM      6  C   LIG    1      -21.169  79.141  15.529  0.00  0.00    +0.052 A 
ATOM      7  C   LIG    1      -20.408  79.998  16.336  0.00  0.00    +0.025 A 
ATOM      8  C   LIG    1      -19.110  79.640  16.721  0.00  0.00    +0.002 A 
ATOM      9  C   LIG    1      -18.571  78.417  16.323  0.00  0.00    +0.000 A 
ATOM     10  C   LIG    1      -19.335  77.544  15.552  0.00  0.00    +0.002 A 
ATOM     11  C   LIG    1      -20.630  77.899  15.162  0.00  0.00    +0.025 A 
ENDBRANCH   3   6
BRANCH   4  12
ATOM     12  N   LIG    1      -22.315  81.928  14.570  0.00  0.00    -0.282 N 
ATOM     13  H   LIG    1      -22.202  82.565  15.351  0.00  0.00    +0.152 HD
ATOM     14  C   LIG    1      -21.620  82.227  13.334  0.00  0.00    +0.247 C 
ATOM     15  O   LIG    1      -21.559  81.424  12.434  0.00  0.00    -0.270 OA
BRANCH  14  16
ATOM     16  C   LIG    1      -20.919  83.546  13.272  0.00  0.00    +0.056 A 
ATOM     17  C   LIG    1      -19.576  83.716  13.562  0.00  0.00    +0.054 A 
ATOM     18 CL   LIG    1      -18.540  82.446  14.095  0.00  0.00    -0.083 Cl
ATOM     19  C   LIG    1      -18.988  84.973  13.443  0.00  0.00    +0.041 A 
ATOM     20  C   LIG    1      -19.732  86.096  13.043  0.00  0.00    +0.052 A 
ATOM     21 CL   LIG    1      -18.779  87.518  12.802  0.00  0.00    -0.083 Cl
ATOM     22  C   LIG    1      -21.114  86.004  12.788  0.00  0.00    +0.022 A 
ATOM     23  C   LIG    1      -21.678  84.693  12.899  0.00  0.00    +0.026 A 
BRANCH  22  24
ATOM     24  C   LIG    1      -22.010  87.131  12.376  0.00  0.00    +0.107 A 
ATOM     25  C   LIG    1      -22.388  88.222  13.169  0.00  0.00    +0.149 A 
ATOM     26  F   LIG    1      -22.002  88.350  14.444  0.00  0.00    -0.203 F 
ATOM     27  C   LIG    1      -23.250  89.196  12.664  0.00  0.00    +0.042 A 
ATOM     28  C   LIG    1      -23.766  89.055  11.385  0.00  0.00    +0.023 A 
ATOM     29  C   LIG    1      -23.386  87.941  10.661  0.00  0.00    +0.111 A 
ATOM     30  N   LIG    1      -22.526  86.994  11.118  0.00  0.00    -0.252 NA
ENDBRANCH  22  24
ENDBRANCH  14  16
ENDBRANCH   4  12
BRANCH   1  32
ATOM     31  N   LIG    1      -26.023  77.952  13.215  0.00  0.00    -0.208 NA
ATOM     32  C   LIG    1      -25.812  78.431  14.395  0.00  0.00    +0.238 C 
BRANCH  31  35
ATOM     33  C   LIG    1      -28.070  79.076  11.187  0.00  0.00    +0.070 C 
ATOM     34  C   LIG    1      -28.167  77.837  11.996  0.00  0.00    +0.085 A 
ATOM     35  C   LIG    1      -27.231  77.304  12.926  0.00  0.00    +0.111 A 
ATOM     36  C   LIG    1      -27.737  76.069  13.272  0.00  0.00    +0.059 A 
ATOM     37  C   LIG    1      -27.263  74.935  14.095  0.00  0.00    +0.067 C 
ATOM     38  N   LIG    1      -28.949  75.992  12.639  0.00  0.00    -0.279 N 
ATOM     39  H   LIG    1      -29.620  75.232  12.674  0.00  0.00    +0.189 HD
ATOM     40  N   LIG    1      -29.228  77.034  11.846  0.00  0.00    -0.177 NA
ENDBRANCH  31  35
BRANCH  32  41
ATOM     41  O   LIG    1      -26.625  78.319  15.471  0.00  0.00    -0.491 OA
ATOM     42  H   LIG    1      -27.518  78.637  15.245  0.00  0.00    +0.294 HD
ENDBRANCH  32  41
ENDBRANCH   1  32
TORSDOF 7
ENDMDL
