MODEL 1
REMARK VINA RESULT:      -7.1      0.000      0.000
REMARK  Name = pdb/CHEMBL3944160.pdb
REMARK                            x       y       z     vdW  Elec       q    Type
REMARK                         _______ _______ _______ _____ _____    ______ ____
ROOT
ATOM      1  C   LIG    1      -30.151  87.651  30.834  0.00  0.00    +0.286 C 
ATOM      2  N   LIG    1      -30.571  86.619  30.241  0.00  0.00    -0.196 NA
ENDROOT
BRANCH   2   3
ATOM      3  C   LIG    1      -31.711  85.886  30.513  0.00  0.00    +0.105 A 
ATOM      4  C   LIG    1      -31.698  84.865  31.453  0.00  0.00    +0.145 A 
ATOM      5  N   LIG    1      -32.765  84.083  31.757  0.00  0.00    -0.201 NA
ATOM      6  C   LIG    1      -33.902  84.434  31.147  0.00  0.00    +0.323 A 
ATOM      7  N   LIG    1      -34.054  85.497  30.368  0.00  0.00    -0.201 NA
ATOM      8  C   LIG    1      -32.930  86.117  29.978  0.00  0.00    +0.145 A 
BRANCH   6   9
ATOM      9  O   LIG    1      -34.966  83.541  31.227  0.00  0.00    -0.424 OA
BRANCH   9  10
ATOM     10  C   LIG    1      -34.890  82.386  30.472  0.00  0.00    +0.132 A 
ATOM     11  C   LIG    1      -35.111  81.194  31.156  0.00  0.00    +0.047 A 
ATOM     12  C   LIG    1      -35.130  79.979  30.462  0.00  0.00    +0.012 A 
ATOM     13  C   LIG    1      -34.962  79.952  29.073  0.00  0.00    -0.010 A 
ATOM     14  C   LIG    1      -34.689  81.147  28.403  0.00  0.00    +0.012 A 
ATOM     15  C   LIG    1      -34.597  82.336  29.103  0.00  0.00    +0.047 A 
BRANCH  13  16
ATOM     16  C   LIG    1      -35.090  78.720  28.311  0.00  0.00    +0.041 A 
ATOM     17  S   LIG    1      -36.642  78.046  28.076  0.00  0.00    -0.052 S 
ATOM     18  C   LIG    1      -35.971  76.761  27.192  0.00  0.00    +0.168 A 
ATOM     19  N   LIG    1      -34.667  76.809  27.023  0.00  0.00    -0.232 NA
ATOM     20  C   LIG    1      -34.157  77.910  27.698  0.00  0.00    +0.129 A 
BRANCH  18  21
ATOM     21  N   LIG    1      -36.807  75.821  26.632  0.00  0.00    -0.250 N 
ATOM     22  C   LIG    1      -37.346  75.924  25.344  0.00  0.00    +0.221 C 
ATOM     23  O   LIG    1      -37.271  76.823  24.526  0.00  0.00    -0.275 OA
ATOM     24  C   LIG    1      -38.153  74.677  25.089  0.00  0.00    +0.098 C 
ATOM     25  C   LIG    1      -37.778  73.755  26.235  0.00  0.00    +0.029 C 
ATOM     26  C   LIG    1      -37.346  74.696  27.340  0.00  0.00    +0.116 C 
ENDBRANCH  18  21
ENDBRANCH  13  16
ENDBRANCH   9  10
ENDBRANCH   6   9
ENDBRANCH   2   3
BRANCH   1  27
ATOM     27  N   LIG    1      -30.623  88.542  31.824  0.00  0.00    -0.254 N 
ATOM     28  H   LIG    1      -31.625  88.576  31.886  0.00  0.00    +0.158 HD
BRANCH  27  30
ATOM     29  N   LIG    1      -29.543  88.738  34.085  0.00  0.00    -0.218 N 
ATOM     30  C   LIG    1      -30.016  89.245  32.837  0.00  0.00    +0.130 A 
ATOM     31  C   LIG    1      -29.718  90.599  32.892  0.00  0.00    +0.069 A 
ATOM     32  C   LIG    1      -28.887  90.806  33.993  0.00  0.00    +0.071 A 
ATOM     33  N   LIG    1      -28.820  89.707  34.738  0.00  0.00    -0.169 NA
BRANCH  29  39
ATOM     34  C   LIG    1      -29.872  82.494  36.566  0.00  0.00    +0.173 C 
ATOM     35  N   LIG    1      -29.029  83.592  36.156  0.00  0.00    -0.267 N 
ATOM     36  C   LIG    1      -29.445  84.813  35.671  0.00  0.00    +0.069 A 
ATOM     37  C   LIG    1      -30.687  85.310  35.244  0.00  0.00    +0.030 A 
ATOM     38  C   LIG    1      -30.744  86.634  34.746  0.00  0.00    +0.030 A 
ATOM     39  C   LIG    1      -29.619  87.461  34.755  0.00  0.00    +0.068 A 
ATOM     40  C   LIG    1      -28.425  86.970  35.349  0.00  0.00    +0.039 A 
ATOM     41  C   LIG    1      -28.309  85.610  35.699  0.00  0.00    +0.022 A 
ATOM     42  C   LIG    1      -27.262  84.734  36.070  0.00  0.00    +0.143 A 
ATOM     43  N   LIG    1      -27.696  83.499  36.337  0.00  0.00    -0.179 NA
ENDBRANCH  29  39
BRANCH  32  44
ATOM     44  C   LIG    1      -28.101  92.071  34.304  0.00  0.00    +0.006 C 
ATOM     45  C   LIG    1      -26.734  91.740  34.951  0.00  0.00    +0.017 C 
ATOM     46  C   LIG    1      -28.882  92.953  35.303  0.00  0.00    +0.017 C 
ATOM     47  C   LIG    1      -27.848  92.892  33.030  0.00  0.00    +0.017 C 
ENDBRANCH  32  44
ENDBRANCH  27  30
ENDBRANCH   1  27
BRANCH   1  48
ATOM     48  O   LIG    1      -28.899  87.933  30.430  0.00  0.00    -0.481 OA
ATOM     49  H   LIG    1      -28.271  87.559  31.026  0.00  0.00    +0.295 HD
ENDBRANCH   1  48
TORSDOF 10
ENDMDL
MODEL 2
REMARK VINA RESULT:      -7.1     10.121     18.484
REMARK  Name = pdb/CHEMBL3944160.pdb
REMARK                            x       y       z     vdW  Elec       q    Type
REMARK                         _______ _______ _______ _____ _____    ______ ____
ROOT
ATOM      1  C   LIG    1      -38.827  66.111  25.309  0.00  0.00    +0.286 C 
ATOM      2  N   LIG    1      -39.987  66.513  25.014  0.00  0.00    -0.196 NA
ENDROOT
BRANCH   2   3
ATOM      3  C   LIG    1      -40.370  67.773  24.595  0.00  0.00    +0.105 A 
ATOM      4  C   LIG    1      -40.163  68.184  23.286  0.00  0.00    +0.145 A 
ATOM      5  N   LIG    1      -40.484  69.412  22.803  0.00  0.00    -0.201 NA
ATOM      6  C   LIG    1      -41.131  70.198  23.671  0.00  0.00    +0.323 A 
ATOM      7  N   LIG    1      -41.526  69.832  24.883  0.00  0.00    -0.201 NA
ATOM      8  C   LIG    1      -41.027  68.678  25.352  0.00  0.00    +0.145 A 
BRANCH   6   9
ATOM      9  O   LIG    1      -41.277  71.538  23.326  0.00  0.00    -0.424 OA
BRANCH   9  10
ATOM     10  C   LIG    1      -40.358  72.434  23.839  0.00  0.00    +0.132 A 
ATOM     11  C   LIG    1      -40.748  73.770  23.846  0.00  0.00    +0.047 A 
ATOM     12  C   LIG    1      -39.916  74.741  24.415  0.00  0.00    +0.012 A 
ATOM     13  C   LIG    1      -38.704  74.376  25.012  0.00  0.00    -0.010 A 
ATOM     14  C   LIG    1      -38.298  73.041  24.954  0.00  0.00    +0.012 A 
ATOM     15  C   LIG    1      -39.088  72.097  24.324  0.00  0.00    +0.047 A 
BRANCH  13  16
ATOM     16  C   LIG    1      -37.874  75.345  25.712  0.00  0.00    +0.041 A 
ATOM     17  S   LIG    1      -36.720  74.788  26.842  0.00  0.00    -0.052 S 
ATOM     18  C   LIG    1      -36.243  76.384  27.169  0.00  0.00    +0.168 A 
ATOM     19  N   LIG    1      -36.858  77.315  26.470  0.00  0.00    -0.232 NA
ATOM     20  C   LIG    1      -37.820  76.722  25.663  0.00  0.00    +0.129 A 
BRANCH  18  21
ATOM     21  N   LIG    1      -35.206  76.609  28.045  0.00  0.00    -0.250 N 
ATOM     22  C   LIG    1      -33.950  77.096  27.661  0.00  0.00    +0.221 C 
ATOM     23  O   LIG    1      -33.502  77.336  26.554  0.00  0.00    -0.275 OA
ATOM     24  C   LIG    1      -33.123  77.257  28.910  0.00  0.00    +0.098 C 
ATOM     25  C   LIG    1      -34.124  77.087  30.039  0.00  0.00    +0.029 C 
ATOM     26  C   LIG    1      -35.226  76.242  29.432  0.00  0.00    +0.116 C 
ENDBRANCH  18  21
ENDBRANCH  13  16
ENDBRANCH   9  10
ENDBRANCH   6   9
ENDBRANCH   2   3
BRANCH   1  27
ATOM     27  N   LIG    1      -37.507  66.609  25.233  0.00  0.00    -0.254 N 
ATOM     28  H   LIG    1      -37.037  66.636  26.120  0.00  0.00    +0.158 HD
BRANCH  27  30
ATOM     29  N   LIG    1      -35.627  67.888  24.162  0.00  0.00    -0.218 N 
ATOM     30  C   LIG    1      -36.663  66.907  24.190  0.00  0.00    +0.130 A 
ATOM     31  C   LIG    1      -36.612  66.332  22.927  0.00  0.00    +0.069 A 
ATOM     32  C   LIG    1      -35.444  66.777  22.306  0.00  0.00    +0.071 A 
ATOM     33  N   LIG    1      -34.878  67.746  23.019  0.00  0.00    -0.169 NA
BRANCH  29  39
ATOM     34  C   LIG    1      -34.128  72.536  28.789  0.00  0.00    +0.173 C 
ATOM     35  N   LIG    1      -33.949  71.178  28.333  0.00  0.00    -0.267 N 
ATOM     36  C   LIG    1      -34.499  70.608  27.206  0.00  0.00    +0.069 A 
ATOM     37  C   LIG    1      -35.491  71.020  26.301  0.00  0.00    +0.030 A 
ATOM     38  C   LIG    1      -35.853  70.138  25.255  0.00  0.00    +0.030 A 
ATOM     39  C   LIG    1      -35.188  68.925  25.067  0.00  0.00    +0.068 A 
ATOM     40  C   LIG    1      -34.081  68.625  25.905  0.00  0.00    +0.039 A 
ATOM     41  C   LIG    1      -33.814  69.411  27.044  0.00  0.00    +0.022 A 
ATOM     42  C   LIG    1      -32.999  69.303  28.195  0.00  0.00    +0.143 A 
ATOM     43  N   LIG    1      -33.089  70.373  28.990  0.00  0.00    -0.179 NA
ENDBRANCH  29  39
BRANCH  32  44
ATOM     44  C   LIG    1      -34.836  66.220  21.027  0.00  0.00    +0.006 C 
ATOM     45  C   LIG    1      -33.375  66.696  20.845  0.00  0.00    +0.017 C 
ATOM     46  C   LIG    1      -35.637  66.707  19.799  0.00  0.00    +0.017 C 
ATOM     47  C   LIG    1      -34.848  64.683  21.033  0.00  0.00    +0.017 C 
ENDBRANCH  32  44
ENDBRANCH  27  30
ENDBRANCH   1  27
BRANCH   1  48
ATOM     48  O   LIG    1      -38.896  64.899  25.889  0.00  0.00    -0.481 OA
ATOM     49  H   LIG    1      -39.649  64.428  25.572  0.00  0.00    +0.295 HD
ENDBRANCH   1  48
TORSDOF 10
ENDMDL
MODEL 3
REMARK VINA RESULT:      -7.0      8.302     14.414
REMARK  Name = pdb/CHEMBL3944160.pdb
REMARK                            x       y       z     vdW  Elec       q    Type
REMARK                         _______ _______ _______ _____ _____    ______ ____
ROOT
ATOM      1  C   LIG    1      -35.519  76.220  27.198  0.00  0.00    +0.286 C 
ATOM      2  N   LIG    1      -35.037  76.985  28.078  0.00  0.00    -0.196 NA
ENDROOT
BRANCH   2   3
ATOM      3  C   LIG    1      -35.117  78.364  28.144  0.00  0.00    +0.105 A 
ATOM      4  C   LIG    1      -36.036  78.988  28.975  0.00  0.00    +0.145 A 
ATOM      5  N   LIG    1      -36.196  80.333  29.076  0.00  0.00    -0.201 NA
ATOM      6  C   LIG    1      -35.311  81.051  28.376  0.00  0.00    +0.323 A 
ATOM      7  N   LIG    1      -34.292  80.549  27.693  0.00  0.00    -0.201 NA
ATOM      8  C   LIG    1      -34.298  79.222  27.497  0.00  0.00    +0.145 A 
BRANCH   6   9
ATOM      9  O   LIG    1      -35.563  82.413  28.246  0.00  0.00    -0.424 OA
BRANCH   9  10
ATOM     10  C   LIG    1      -36.285  82.828  27.143  0.00  0.00    +0.132 A 
ATOM     11  C   LIG    1      -37.477  82.150  26.905  0.00  0.00    +0.047 A 
ATOM     12  C   LIG    1      -38.314  82.548  25.856  0.00  0.00    +0.012 A 
ATOM     13  C   LIG    1      -37.979  83.650  25.060  0.00  0.00    -0.010 A 
ATOM     14  C   LIG    1      -36.757  84.291  25.275  0.00  0.00    +0.012 A 
ATOM     15  C   LIG    1      -35.898  83.847  26.264  0.00  0.00    +0.047 A 
BRANCH  13  16
ATOM     16  C   LIG    1      -38.882  84.158  24.038  0.00  0.00    +0.041 A 
ATOM     17  S   LIG    1      -39.672  83.051  23.004  0.00  0.00    -0.052 S 
ATOM     18  C   LIG    1      -40.443  84.329  22.196  0.00  0.00    +0.168 A 
ATOM     19  N   LIG    1      -40.184  85.533  22.660  0.00  0.00    -0.232 NA
ATOM     20  C   LIG    1      -39.259  85.438  23.691  0.00  0.00    +0.129 A 
BRANCH  18  21
ATOM     21  N   LIG    1      -41.344  84.045  21.194  0.00  0.00    -0.250 N 
ATOM     22  C   LIG    1      -41.235  84.530  19.885  0.00  0.00    +0.221 C 
ATOM     23  O   LIG    1      -40.435  85.308  19.396  0.00  0.00    -0.275 OA
ATOM     24  C   LIG    1      -42.375  83.949  19.089  0.00  0.00    +0.098 C 
ATOM     25  C   LIG    1      -42.952  82.881  19.999  0.00  0.00    +0.029 C 
ATOM     26  C   LIG    1      -42.578  83.340  21.393  0.00  0.00    +0.116 C 
ENDBRANCH  18  21
ENDBRANCH  13  16
ENDBRANCH   9  10
ENDBRANCH   6   9
ENDBRANCH   2   3
BRANCH   1  27
ATOM     27  N   LIG    1      -36.379  76.336  26.082  0.00  0.00    -0.254 N 
ATOM     28  H   LIG    1      -36.016  75.903  25.251  0.00  0.00    +0.158 HD
BRANCH  27  30
ATOM     29  N   LIG    1      -38.782  76.010  25.423  0.00  0.00    -0.218 N 
ATOM     30  C   LIG    1      -37.676  76.761  25.923  0.00  0.00    +0.130 A 
ATOM     31  C   LIG    1      -38.219  78.006  26.206  0.00  0.00    +0.069 A 
ATOM     32  C   LIG    1      -39.607  77.892  26.122  0.00  0.00    +0.071 A 
ATOM     33  N   LIG    1      -39.946  76.715  25.605  0.00  0.00    -0.169 NA
BRANCH  29  39
ATOM     34  C   LIG    1      -39.697  69.684  23.324  0.00  0.00    +0.173 C 
ATOM     35  N   LIG    1      -40.279  70.989  23.529  0.00  0.00    -0.267 N 
ATOM     36  C   LIG    1      -39.644  72.106  24.024  0.00  0.00    +0.069 A 
ATOM     37  C   LIG    1      -38.399  72.316  24.640  0.00  0.00    +0.030 A 
ATOM     38  C   LIG    1      -38.079  73.623  25.080  0.00  0.00    +0.030 A 
ATOM     39  C   LIG    1      -38.934  74.699  24.835  0.00  0.00    +0.068 A 
ATOM     40  C   LIG    1      -40.104  74.470  24.062  0.00  0.00    +0.039 A 
ATOM     41  C   LIG    1      -40.513  73.155  23.759  0.00  0.00    +0.022 A 
ATOM     42  C   LIG    1      -41.679  72.537  23.249  0.00  0.00    +0.143 A 
ATOM     43  N   LIG    1      -41.545  71.215  23.120  0.00  0.00    -0.179 NA
ENDBRANCH  29  39
BRANCH  32  44
ATOM     44  C   LIG    1      -40.626  78.918  26.598  0.00  0.00    +0.006 C 
ATOM     45  C   LIG    1      -40.125  79.665  27.857  0.00  0.00    +0.017 C 
ATOM     46  C   LIG    1      -41.951  78.218  26.973  0.00  0.00    +0.017 C 
ATOM     47  C   LIG    1      -40.919  79.954  25.503  0.00  0.00    +0.017 C 
ENDBRANCH  32  44
ENDBRANCH  27  30
ENDBRANCH   1  27
BRANCH   1  48
ATOM     48  O   LIG    1      -35.035  74.976  27.359  0.00  0.00    -0.481 OA
ATOM     49  H   LIG    1      -35.645  74.449  27.848  0.00  0.00    +0.295 HD
ENDBRANCH   1  48
TORSDOF 10
ENDMDL
MODEL 4
REMARK VINA RESULT:      -6.9      6.577     11.457
REMARK  Name = pdb/CHEMBL3944160.pdb
REMARK                            x       y       z     vdW  Elec       q    Type
REMARK                         _______ _______ _______ _____ _____    ______ ____
ROOT
ATOM      1  C   LIG    1      -38.648  79.923  28.716  0.00  0.00    +0.286 C 
ATOM      2  N   LIG    1      -39.615  79.883  27.906  0.00  0.00    -0.196 NA
ENDROOT
BRANCH   2   3
ATOM      3  C   LIG    1      -39.810  79.006  26.855  0.00  0.00    +0.105 A 
ATOM      4  C   LIG    1      -40.683  77.934  26.972  0.00  0.00    +0.145 A 
ATOM      5  N   LIG    1      -40.909  77.014  25.999  0.00  0.00    -0.201 NA
ATOM      6  C   LIG    1      -40.292  77.269  24.840  0.00  0.00    +0.323 A 
ATOM      7  N   LIG    1      -39.578  78.355  24.579  0.00  0.00    -0.201 NA
ATOM      8  C   LIG    1      -39.258  79.127  25.628  0.00  0.00    +0.145 A 
BRANCH   6   9
ATOM      9  O   LIG    1      -40.289  76.254  23.888  0.00  0.00    -0.424 OA
BRANCH   9  10
ATOM     10  C   LIG    1      -39.716  75.047  24.243  0.00  0.00    +0.132 A 
ATOM     11  C   LIG    1      -40.450  73.907  23.929  0.00  0.00    +0.047 A 
ATOM     12  C   LIG    1      -39.919  72.638  24.180  0.00  0.00    +0.012 A 
ATOM     13  C   LIG    1      -38.633  72.500  24.715  0.00  0.00    -0.010 A 
ATOM     14  C   LIG    1      -37.924  73.649  25.074  0.00  0.00    +0.012 A 
ATOM     15  C   LIG    1      -38.484  74.900  24.894  0.00  0.00    +0.047 A 
BRANCH  13  16
ATOM     16  C   LIG    1      -38.009  71.196  24.880  0.00  0.00    +0.041 A 
ATOM     17  S   LIG    1      -38.100  70.063  23.605  0.00  0.00    -0.052 S 
ATOM     18  C   LIG    1      -37.224  68.933  24.520  0.00  0.00    +0.168 A 
ATOM     19  N   LIG    1      -36.831  69.346  25.706  0.00  0.00    -0.232 NA
ATOM     20  C   LIG    1      -37.315  70.629  25.929  0.00  0.00    +0.129 A 
BRANCH  18  21
ATOM     21  N   LIG    1      -36.897  67.721  23.956  0.00  0.00    -0.250 N 
ATOM     22  C   LIG    1      -35.653  67.439  23.379  0.00  0.00    +0.221 C 
ATOM     23  O   LIG    1      -34.689  68.160  23.189  0.00  0.00    -0.275 OA
ATOM     24  C   LIG    1      -35.674  66.000  22.933  0.00  0.00    +0.098 C 
ATOM     25  C   LIG    1      -36.931  65.436  23.571  0.00  0.00    +0.029 C 
ATOM     26  C   LIG    1      -37.824  66.645  23.759  0.00  0.00    +0.116 C 
ENDBRANCH  18  21
ENDBRANCH  13  16
ENDBRANCH   9  10
ENDBRANCH   6   9
ENDBRANCH   2   3
BRANCH   1  27
ATOM     27  N   LIG    1      -37.519  79.131  29.022  0.00  0.00    -0.254 N 
ATOM     28  H   LIG    1      -37.697  78.434  29.723  0.00  0.00    +0.158 HD
BRANCH  27  30
ATOM     29  N   LIG    1      -35.363  80.022  28.087  0.00  0.00    -0.218 N 
ATOM     30  C   LIG    1      -36.276  78.988  28.452  0.00  0.00    +0.130 A 
ATOM     31  C   LIG    1      -35.616  77.819  28.098  0.00  0.00    +0.069 A 
ATOM     32  C   LIG    1      -34.296  78.154  27.794  0.00  0.00    +0.071 A 
ATOM     33  N   LIG    1      -34.153  79.475  27.736  0.00  0.00    -0.169 NA
BRANCH  29  39
ATOM     34  C   LIG    1      -36.321  86.681  28.158  0.00  0.00    +0.173 C 
ATOM     35  N   LIG    1      -35.924  85.506  28.896  0.00  0.00    -0.267 N 
ATOM     36  C   LIG    1      -35.863  84.214  28.420  0.00  0.00    +0.069 A 
ATOM     37  C   LIG    1      -36.313  83.598  27.241  0.00  0.00    +0.030 A 
ATOM     38  C   LIG    1      -36.119  82.203  27.097  0.00  0.00    +0.030 A 
ATOM     39  C   LIG    1      -35.425  81.464  28.057  0.00  0.00    +0.068 A 
ATOM     40  C   LIG    1      -34.843  82.159  29.153  0.00  0.00    +0.039 A 
ATOM     41  C   LIG    1      -35.163  83.511  29.391  0.00  0.00    +0.022 A 
ATOM     42  C   LIG    1      -34.990  84.433  30.450  0.00  0.00    +0.143 A 
ATOM     43  N   LIG    1      -35.465  85.647  30.157  0.00  0.00    -0.179 NA
ENDBRANCH  29  39
BRANCH  32  44
ATOM     44  C   LIG    1      -33.141  77.182  27.606  0.00  0.00    +0.006 C 
ATOM     45  C   LIG    1      -32.214  77.627  26.449  0.00  0.00    +0.017 C 
ATOM     46  C   LIG    1      -33.678  75.777  27.252  0.00  0.00    +0.017 C 
ATOM     47  C   LIG    1      -32.299  77.070  28.886  0.00  0.00    +0.017 C 
ENDBRANCH  32  44
ENDBRANCH  27  30
ENDBRANCH   1  27
BRANCH   1  48
ATOM     48  O   LIG    1      -38.706  81.054  29.442  0.00  0.00    -0.481 OA
ATOM     49  H   LIG    1      -37.843  81.415  29.555  0.00  0.00    +0.295 HD
ENDBRANCH   1  48
TORSDOF 10
ENDMDL
MODEL 5
REMARK VINA RESULT:      -6.9      8.699     12.998
REMARK  Name = pdb/CHEMBL3944160.pdb
REMARK                            x       y       z     vdW  Elec       q    Type
REMARK                         _______ _______ _______ _____ _____    ______ ____
ROOT
ATOM      1  C   LIG    1      -38.420  81.139  27.896  0.00  0.00    +0.286 C 
ATOM      2  N   LIG    1      -37.369  81.365  28.556  0.00  0.00    -0.196 NA
ENDROOT
BRANCH   2   3
ATOM      3  C   LIG    1      -36.156  80.708  28.477  0.00  0.00    +0.105 A 
ATOM      4  C   LIG    1      -35.311  80.896  27.393  0.00  0.00    +0.145 A 
ATOM      5  N   LIG    1      -34.118  80.270  27.227  0.00  0.00    -0.201 NA
ATOM      6  C   LIG    1      -33.743  79.507  28.259  0.00  0.00    +0.323 A 
ATOM      7  N   LIG    1      -34.398  79.402  29.407  0.00  0.00    -0.201 NA
ATOM      8  C   LIG    1      -35.642  79.906  29.435  0.00  0.00    +0.145 A 
BRANCH   6   9
ATOM      9  O   LIG    1      -32.658  78.659  28.060  0.00  0.00    -0.424 OA
BRANCH   9  10
ATOM     10  C   LIG    1      -32.848  77.311  28.302  0.00  0.00    +0.132 A 
ATOM     11  C   LIG    1      -33.789  76.673  27.498  0.00  0.00    +0.047 A 
ATOM     12  C   LIG    1      -33.995  75.294  27.618  0.00  0.00    +0.012 A 
ATOM     13  C   LIG    1      -33.237  74.539  28.519  0.00  0.00    -0.010 A 
ATOM     14  C   LIG    1      -32.332  75.195  29.357  0.00  0.00    +0.012 A 
ATOM     15  C   LIG    1      -32.185  76.569  29.288  0.00  0.00    +0.047 A 
BRANCH  13  16
ATOM     16  C   LIG    1      -33.347  73.089  28.584  0.00  0.00    +0.041 A 
ATOM     17  S   LIG    1      -34.574  72.308  27.688  0.00  0.00    -0.052 S 
ATOM     18  C   LIG    1      -34.061  70.797  28.268  0.00  0.00    +0.168 A 
ATOM     19  N   LIG    1      -33.012  70.820  29.061  0.00  0.00    -0.232 NA
ATOM     20  C   LIG    1      -32.626  72.137  29.274  0.00  0.00    +0.129 A 
BRANCH  18  21
ATOM     21  N   LIG    1      -34.686  69.657  27.816  0.00  0.00    -0.250 N 
ATOM     22  C   LIG    1      -34.382  69.028  26.603  0.00  0.00    +0.221 C 
ATOM     23  O   LIG    1      -33.618  69.358  25.712  0.00  0.00    -0.275 OA
ATOM     24  C   LIG    1      -35.237  67.791  26.504  0.00  0.00    +0.098 C 
ATOM     25  C   LIG    1      -35.830  67.642  27.894  0.00  0.00    +0.029 C 
ATOM     26  C   LIG    1      -35.820  69.050  28.453  0.00  0.00    +0.116 C 
ENDBRANCH  18  21
ENDBRANCH  13  16
ENDBRANCH   9  10
ENDBRANCH   6   9
ENDBRANCH   2   3
BRANCH   1  27
ATOM     27  N   LIG    1      -38.803  80.330  26.801  0.00  0.00    -0.254 N 
ATOM     28  H   LIG    1      -38.868  79.354  27.029  0.00  0.00    +0.158 HD
BRANCH  27  30
ATOM     29  N   LIG    1      -39.590  79.664  24.510  0.00  0.00    -0.218 N 
ATOM     30  C   LIG    1      -39.270  80.601  25.538  0.00  0.00    +0.130 A 
ATOM     31  C   LIG    1      -39.543  81.834  24.963  0.00  0.00    +0.069 A 
ATOM     32  C   LIG    1      -40.228  81.603  23.769  0.00  0.00    +0.071 A 
ATOM     33  N   LIG    1      -40.214  80.308  23.468  0.00  0.00    -0.169 NA
BRANCH  29  39
ATOM     34  C   LIG    1      -39.159  72.951  24.475  0.00  0.00    +0.173 C 
ATOM     35  N   LIG    1      -39.975  74.114  24.220  0.00  0.00    -0.267 N 
ATOM     36  C   LIG    1      -39.602  75.431  24.372  0.00  0.00    +0.069 A 
ATOM     37  C   LIG    1      -38.493  76.059  24.963  0.00  0.00    +0.030 A 
ATOM     38  C   LIG    1      -38.456  77.474  24.984  0.00  0.00    +0.030 A 
ATOM     39  C   LIG    1      -39.447  78.235  24.360  0.00  0.00    +0.068 A 
ATOM     40  C   LIG    1      -40.460  77.556  23.632  0.00  0.00    +0.039 A 
ATOM     41  C   LIG    1      -40.601  76.158  23.737  0.00  0.00    +0.022 A 
ATOM     42  C   LIG    1      -41.575  75.196  23.381  0.00  0.00    +0.143 A 
ATOM     43  N   LIG    1      -41.203  73.950  23.686  0.00  0.00    -0.179 NA
ENDBRANCH  29  39
BRANCH  32  44
ATOM     44  C   LIG    1      -40.953  82.645  22.930  0.00  0.00    +0.006 C 
ATOM     45  C   LIG    1      -40.157  82.989  21.648  0.00  0.00    +0.017 C 
ATOM     46  C   LIG    1      -41.122  83.954  23.734  0.00  0.00    +0.017 C 
ATOM     47  C   LIG    1      -42.347  82.148  22.517  0.00  0.00    +0.017 C 
ENDBRANCH  32  44
ENDBRANCH  27  30
ENDBRANCH   1  27
BRANCH   1  48
ATOM     48  O   LIG    1      -39.448  81.831  28.419  0.00  0.00    -0.481 OA
ATOM     49  H   LIG    1      -39.507  81.677  29.347  0.00  0.00    +0.295 HD
ENDBRANCH   1  48
TORSDOF 10
ENDMDL
MODEL 6
REMARK VINA RESULT:      -6.8      8.561     10.451
REMARK  Name = pdb/CHEMBL3944160.pdb
REMARK                            x       y       z     vdW  Elec       q    Type
REMARK                         _______ _______ _______ _____ _____    ______ ____
ROOT
ATOM      1  C   LIG    1      -25.532  78.031  35.007  0.00  0.00    +0.286 C 
ATOM      2  N   LIG    1      -26.573  77.318  34.968  0.00  0.00    -0.196 NA
ENDROOT
BRANCH   2   3
ATOM      3  C   LIG    1      -27.437  77.129  33.905  0.00  0.00    +0.105 A 
ATOM      4  C   LIG    1      -26.983  76.617  32.698  0.00  0.00    +0.145 A 
ATOM      5  N   LIG    1      -27.759  76.427  31.600  0.00  0.00    -0.201 NA
ATOM      6  C   LIG    1      -29.059  76.677  31.790  0.00  0.00    +0.323 A 
ATOM      7  N   LIG    1      -29.612  77.003  32.950  0.00  0.00    -0.201 NA
ATOM      8  C   LIG    1      -28.771  77.337  33.941  0.00  0.00    +0.145 A 
BRANCH   6   9
ATOM      9  O   LIG    1      -29.865  76.732  30.657  0.00  0.00    -0.424 OA
BRANCH   9  10
ATOM     10  C   LIG    1      -30.650  75.629  30.377  0.00  0.00    +0.132 A 
ATOM     11  C   LIG    1      -31.719  75.845  29.512  0.00  0.00    +0.047 A 
ATOM     12  C   LIG    1      -32.525  74.774  29.110  0.00  0.00    +0.012 A 
ATOM     13  C   LIG    1      -32.244  73.473  29.543  0.00  0.00    -0.010 A 
ATOM     14  C   LIG    1      -31.201  73.274  30.451  0.00  0.00    +0.012 A 
ATOM     15  C   LIG    1      -30.455  74.347  30.904  0.00  0.00    +0.047 A 
BRANCH  13  16
ATOM     16  C   LIG    1      -32.992  72.326  29.052  0.00  0.00    +0.041 A 
ATOM     17  S   LIG    1      -34.212  72.568  27.882  0.00  0.00    -0.052 S 
ATOM     18  C   LIG    1      -34.553  70.905  27.866  0.00  0.00    +0.168 A 
ATOM     19  N   LIG    1      -33.799  70.164  28.649  0.00  0.00    -0.232 NA
ATOM     20  C   LIG    1      -32.929  70.982  29.358  0.00  0.00    +0.129 A 
BRANCH  18  21
ATOM     21  N   LIG    1      -35.503  70.422  26.994  0.00  0.00    -0.250 N 
ATOM     22  C   LIG    1      -35.204  69.871  25.742  0.00  0.00    +0.221 C 
ATOM     23  O   LIG    1      -34.141  69.772  25.157  0.00  0.00    -0.275 OA
ATOM     24  C   LIG    1      -36.501  69.411  25.127  0.00  0.00    +0.098 C 
ATOM     25  C   LIG    1      -37.500  69.498  26.267  0.00  0.00    +0.029 C 
ATOM     26  C   LIG    1      -36.918  70.550  27.189  0.00  0.00    +0.116 C 
ENDBRANCH  18  21
ENDBRANCH  13  16
ENDBRANCH   9  10
ENDBRANCH   6   9
ENDBRANCH   2   3
BRANCH   1  27
ATOM     27  N   LIG    1      -24.747  78.768  34.092  0.00  0.00    -0.254 N 
ATOM     28  H   LIG    1      -25.017  79.733  34.019  0.00  0.00    +0.158 HD
BRANCH  27  30
ATOM     29  N   LIG    1      -22.246  78.689  33.857  0.00  0.00    -0.218 N 
ATOM     30  C   LIG    1      -23.586  78.501  33.405  0.00  0.00    +0.130 A 
ATOM     31  C   LIG    1      -23.438  77.988  32.124  0.00  0.00    +0.069 A 
ATOM     32  C   LIG    1      -22.093  77.656  31.954  0.00  0.00    +0.071 A 
ATOM     33  N   LIG    1      -21.368  78.120  32.967  0.00  0.00    -0.169 NA
BRANCH  29  39
ATOM     34  C   LIG    1      -18.893  81.619  38.900  0.00  0.00    +0.173 C 
ATOM     35  N   LIG    1      -19.820  81.782  37.806  0.00  0.00    -0.267 N 
ATOM     36  C   LIG    1      -20.278  80.795  36.960  0.00  0.00    +0.069 A 
ATOM     37  C   LIG    1      -19.898  79.461  36.738  0.00  0.00    +0.030 A 
ATOM     38  C   LIG    1      -20.572  78.731  35.729  0.00  0.00    +0.030 A 
ATOM     39  C   LIG    1      -21.645  79.285  35.028  0.00  0.00    +0.068 A 
ATOM     40  C   LIG    1      -22.101  80.578  35.402  0.00  0.00    +0.039 A 
ATOM     41  C   LIG    1      -21.344  81.374  36.285  0.00  0.00    +0.022 A 
ATOM     42  C   LIG    1      -21.337  82.729  36.692  0.00  0.00    +0.143 A 
ATOM     43  N   LIG    1      -20.400  82.984  37.610  0.00  0.00    -0.179 NA
ENDBRANCH  29  39
BRANCH  32  44
ATOM     44  C   LIG    1      -21.506  76.831  30.818  0.00  0.00    +0.006 C 
ATOM     45  C   LIG    1      -21.273  75.363  31.251  0.00  0.00    +0.017 C 
ATOM     46  C   LIG    1      -20.138  77.409  30.391  0.00  0.00    +0.017 C 
ATOM     47  C   LIG    1      -22.436  76.834  29.595  0.00  0.00    +0.017 C 
ENDBRANCH  32  44
ENDBRANCH  27  30
ENDBRANCH   1  27
BRANCH   1  48
ATOM     48  O   LIG    1      -25.098  78.138  36.275  0.00  0.00    -0.481 OA
ATOM     49  H   LIG    1      -25.786  78.468  36.829  0.00  0.00    +0.295 HD
ENDBRANCH   1  48
TORSDOF 10
ENDMDL
MODEL 7
REMARK VINA RESULT:      -6.8      8.745     16.196
REMARK  Name = pdb/CHEMBL3944160.pdb
REMARK                            x       y       z     vdW  Elec       q    Type
REMARK                         _______ _______ _______ _____ _____    ______ ____
ROOT
ATOM      1  C   LIG    1      -30.894  74.369  32.067  0.00  0.00    +0.286 C 
ATOM      2  N   LIG    1      -29.951  74.864  32.743  0.00  0.00    -0.196 NA
ENDROOT
BRANCH   2   3
ATOM      3  C   LIG    1      -28.718  75.300  32.293  0.00  0.00    +0.105 A 
ATOM      4  C   LIG    1      -28.512  76.627  31.947  0.00  0.00    +0.145 A 
ATOM      5  N   LIG    1      -27.343  77.128  31.472  0.00  0.00    -0.201 NA
ATOM      6  C   LIG    1      -26.332  76.253  31.453  0.00  0.00    +0.323 A 
ATOM      7  N   LIG    1      -26.385  75.014  31.924  0.00  0.00    -0.201 NA
ATOM      8  C   LIG    1      -27.605  74.538  32.216  0.00  0.00    +0.145 A 
BRANCH   6   9
ATOM      9  O   LIG    1      -25.182  76.628  30.764  0.00  0.00    -0.424 OA
BRANCH   9  10
ATOM     10  C   LIG    1      -24.150  77.184  31.497  0.00  0.00    +0.132 A 
ATOM     11  C   LIG    1      -24.512  78.177  32.402  0.00  0.00    +0.047 A 
ATOM     12  C   LIG    1      -23.548  78.745  33.243  0.00  0.00    +0.012 A 
ATOM     13  C   LIG    1      -22.223  78.298  33.207  0.00  0.00    -0.010 A 
ATOM     14  C   LIG    1      -21.859  77.337  32.260  0.00  0.00    +0.012 A 
ATOM     15  C   LIG    1      -22.800  76.833  31.380  0.00  0.00    +0.047 A 
BRANCH  13  16
ATOM     16  C   LIG    1      -21.225  78.787  34.146  0.00  0.00    +0.041 A 
ATOM     17  S   LIG    1      -21.740  79.574  35.572  0.00  0.00    -0.052 S 
ATOM     18  C   LIG    1      -20.128  79.807  36.049  0.00  0.00    +0.168 A 
ATOM     19  N   LIG    1      -19.219  79.310  35.238  0.00  0.00    -0.232 NA
ATOM     20  C   LIG    1      -19.846  78.759  34.128  0.00  0.00    +0.129 A 
BRANCH  18  21
ATOM     21  N   LIG    1      -19.865  80.398  37.264  0.00  0.00    -0.250 N 
ATOM     22  C   LIG    1      -20.116  81.746  37.548  0.00  0.00    +0.221 C 
ATOM     23  O   LIG    1      -20.514  82.643  36.827  0.00  0.00    -0.275 OA
ATOM     24  C   LIG    1      -19.749  81.983  38.990  0.00  0.00    +0.098 C 
ATOM     25  C   LIG    1      -19.545  80.587  39.552  0.00  0.00    +0.029 C 
ATOM     26  C   LIG    1      -19.174  79.753  38.343  0.00  0.00    +0.116 C 
ENDBRANCH  18  21
ENDBRANCH  13  16
ENDBRANCH   9  10
ENDBRANCH   6   9
ENDBRANCH   2   3
BRANCH   1  27
ATOM     27  N   LIG    1      -31.198  74.171  30.701  0.00  0.00    -0.254 N 
ATOM     28  H   LIG    1      -30.463  74.465  30.081  0.00  0.00    +0.158 HD
BRANCH  27  30
ATOM     29  N   LIG    1      -33.188  74.071  29.170  0.00  0.00    -0.218 N 
ATOM     30  C   LIG    1      -32.203  73.510  30.037  0.00  0.00    +0.130 A 
ATOM     31  C   LIG    1      -32.501  72.155  30.048  0.00  0.00    +0.069 A 
ATOM     32  C   LIG    1      -33.437  71.918  29.040  0.00  0.00    +0.071 A 
ATOM     33  N   LIG    1      -33.888  73.067  28.546  0.00  0.00    -0.169 NA
BRANCH  29  39
ATOM     34  C   LIG    1      -34.424  80.554  27.865  0.00  0.00    +0.173 C 
ATOM     35  N   LIG    1      -33.644  79.382  27.548  0.00  0.00    -0.267 N 
ATOM     36  C   LIG    1      -33.757  78.136  28.125  0.00  0.00    +0.069 A 
ATOM     37  C   LIG    1      -34.444  77.652  29.250  0.00  0.00    +0.030 A 
ATOM     38  C   LIG    1      -34.295  76.286  29.591  0.00  0.00    +0.030 A 
ATOM     39  C   LIG    1      -33.556  75.415  28.789  0.00  0.00    +0.068 A 
ATOM     40  C   LIG    1      -33.016  75.912  27.572  0.00  0.00    +0.039 A 
ATOM     41  C   LIG    1      -33.020  77.296  27.302  0.00  0.00    +0.022 A 
ATOM     42  C   LIG    1      -32.400  78.159  26.367  0.00  0.00    +0.143 A 
ATOM     43  N   LIG    1      -32.769  79.433  26.523  0.00  0.00    -0.179 NA
ENDBRANCH  29  39
BRANCH  32  44
ATOM     44  C   LIG    1      -33.864  70.558  28.508  0.00  0.00    +0.006 C 
ATOM     45  C   LIG    1      -32.675  69.567  28.478  0.00  0.00    +0.017 C 
ATOM     46  C   LIG    1      -34.388  70.692  27.061  0.00  0.00    +0.017 C 
ATOM     47  C   LIG    1      -34.979  69.952  29.373  0.00  0.00    +0.017 C 
ENDBRANCH  32  44
ENDBRANCH  27  30
ENDBRANCH   1  27
BRANCH   1  48
ATOM     48  O   LIG    1      -31.829  73.860  32.890  0.00  0.00    -0.481 OA
ATOM     49  H   LIG    1      -31.527  73.886  33.783  0.00  0.00    +0.295 HD
ENDBRANCH   1  48
TORSDOF 10
ENDMDL
MODEL 8
REMARK VINA RESULT:      -6.7      6.902     10.565
REMARK  Name = pdb/CHEMBL3944160.pdb
REMARK                            x       y       z     vdW  Elec       q    Type
REMARK                         _______ _______ _______ _____ _____    ______ ____
ROOT
ATOM      1  C   LIG    1      -30.735  85.817  36.445  0.00  0.00    +0.286 C 
ATOM      2  N   LIG    1      -30.219  84.844  37.061  0.00  0.00    -0.196 NA
ENDROOT
BRANCH   2   3
ATOM      3  C   LIG    1      -28.881  84.508  37.154  0.00  0.00    +0.105 A 
ATOM      4  C   LIG    1      -28.403  83.766  38.225  0.00  0.00    +0.145 A 
ATOM      5  N   LIG    1      -27.103  83.419  38.403  0.00  0.00    -0.201 NA
ATOM      6  C   LIG    1      -26.294  83.760  37.394  0.00  0.00    +0.323 A 
ATOM      7  N   LIG    1      -26.687  84.315  36.255  0.00  0.00    -0.201 NA
ATOM      8  C   LIG    1      -27.945  84.782  36.220  0.00  0.00    +0.145 A 
BRANCH   6   9
ATOM      9  O   LIG    1      -24.925  83.649  37.615  0.00  0.00    -0.424 OA
BRANCH   9  10
ATOM     10  C   LIG    1      -24.245  82.660  36.928  0.00  0.00    +0.132 A 
ATOM     11  C   LIG    1      -24.956  81.489  36.683  0.00  0.00    +0.047 A 
ATOM     12  C   LIG    1      -24.379  80.461  35.929  0.00  0.00    +0.012 A 
ATOM     13  C   LIG    1      -23.099  80.613  35.385  0.00  0.00    -0.010 A 
ATOM     14  C   LIG    1      -22.373  81.771  35.679  0.00  0.00    +0.012 A 
ATOM     15  C   LIG    1      -22.919  82.751  36.487  0.00  0.00    +0.047 A 
BRANCH  13  16
ATOM     16  C   LIG    1      -22.518  79.612  34.503  0.00  0.00    +0.041 A 
ATOM     17  S   LIG    1      -23.500  78.891  33.305  0.00  0.00    -0.052 S 
ATOM     18  C   LIG    1      -22.194  77.940  32.782  0.00  0.00    +0.168 A 
ATOM     19  N   LIG    1      -21.057  78.141  33.413  0.00  0.00    -0.232 NA
ATOM     20  C   LIG    1      -21.252  79.071  34.426  0.00  0.00    +0.129 A 
BRANCH  18  21
ATOM     21  N   LIG    1      -22.361  77.107  31.699  0.00  0.00    -0.250 N 
ATOM     22  C   LIG    1      -21.595  77.184  30.529  0.00  0.00    +0.221 C 
ATOM     23  O   LIG    1      -20.737  77.983  30.200  0.00  0.00    -0.275 OA
ATOM     24  C   LIG    1      -22.044  76.072  29.617  0.00  0.00    +0.098 C 
ATOM     25  C   LIG    1      -22.923  75.205  30.500  0.00  0.00    +0.029 C 
ATOM     26  C   LIG    1      -23.426  76.154  31.569  0.00  0.00    +0.116 C 
ENDBRANCH  18  21
ENDBRANCH  13  16
ENDBRANCH   9  10
ENDBRANCH   6   9
ENDBRANCH   2   3
BRANCH   1  27
ATOM     27  N   LIG    1      -30.282  86.970  35.763  0.00  0.00    -0.254 N 
ATOM     28  H   LIG    1      -29.640  87.525  36.300  0.00  0.00    +0.158 HD
BRANCH  27  30
ATOM     29  N   LIG    1      -29.726  88.521  33.866  0.00  0.00    -0.218 N 
ATOM     30  C   LIG    1      -30.393  87.411  34.467  0.00  0.00    +0.130 A 
ATOM     31  C   LIG    1      -31.169  86.893  33.440  0.00  0.00    +0.069 A 
ATOM     32  C   LIG    1      -30.768  87.508  32.253  0.00  0.00    +0.071 A 
ATOM     33  N   LIG    1      -29.941  88.517  32.509  0.00  0.00    -0.169 NA
BRANCH  29  39
ATOM     34  C   LIG    1      -25.221  93.154  35.737  0.00  0.00    +0.173 C 
ATOM     35  N   LIG    1      -26.258  92.779  34.806  0.00  0.00    -0.267 N 
ATOM     36  C   LIG    1      -26.995  91.615  34.818  0.00  0.00    +0.069 A 
ATOM     37  C   LIG    1      -26.883  90.408  35.528  0.00  0.00    +0.030 A 
ATOM     38  C   LIG    1      -27.812  89.377  35.249  0.00  0.00    +0.030 A 
ATOM     39  C   LIG    1      -28.867  89.573  34.356  0.00  0.00    +0.068 A 
ATOM     40  C   LIG    1      -29.038  90.865  33.787  0.00  0.00    +0.039 A 
ATOM     41  C   LIG    1      -28.036  91.846  33.929  0.00  0.00    +0.022 A 
ATOM     42  C   LIG    1      -27.740  93.099  33.344  0.00  0.00    +0.143 A 
ATOM     43  N   LIG    1      -26.649  93.665  33.867  0.00  0.00    -0.179 NA
ENDBRANCH  29  39
BRANCH  32  44
ATOM     44  C   LIG    1      -31.149  87.080  30.843  0.00  0.00    +0.006 C 
ATOM     45  C   LIG    1      -31.421  85.558  30.771  0.00  0.00    +0.017 C 
ATOM     46  C   LIG    1      -29.995  87.389  29.863  0.00  0.00    +0.017 C 
ATOM     47  C   LIG    1      -32.405  87.821  30.361  0.00  0.00    +0.017 C 
ENDBRANCH  32  44
ENDBRANCH  27  30
ENDBRANCH   1  27
BRANCH   1  48
ATOM     48  O   LIG    1      -32.072  85.673  36.399  0.00  0.00    -0.481 OA
ATOM     49  H   LIG    1      -32.444  86.277  35.778  0.00  0.00    +0.295 HD
ENDBRANCH   1  48
TORSDOF 10
ENDMDL
MODEL 9
REMARK VINA RESULT:      -6.7     10.975     16.945
REMARK  Name = pdb/CHEMBL3944160.pdb
REMARK                            x       y       z     vdW  Elec       q    Type
REMARK                         _______ _______ _______ _____ _____    ______ ____
ROOT
ATOM      1  C   LIG    1      -20.767  71.494  33.338  0.00  0.00    +0.286 C 
ATOM      2  N   LIG    1      -19.742  72.226  33.422  0.00  0.00    -0.196 NA
ENDROOT
BRANCH   2   3
ATOM      3  C   LIG    1      -19.629  73.570  33.118  0.00  0.00    +0.105 A 
ATOM      4  C   LIG    1      -19.221  74.487  34.076  0.00  0.00    +0.145 A 
ATOM      5  N   LIG    1      -19.110  75.824  33.866  0.00  0.00    -0.201 NA
ATOM      6  C   LIG    1      -19.329  76.207  32.604  0.00  0.00    +0.323 A 
ATOM      7  N   LIG    1      -19.554  75.388  31.585  0.00  0.00    -0.201 NA
ATOM      8  C   LIG    1      -19.818  74.109  31.894  0.00  0.00    +0.145 A 
BRANCH   6   9
ATOM      9  O   LIG    1      -19.466  77.573  32.371  0.00  0.00    -0.424 OA
BRANCH   9  10
ATOM     10  C   LIG    1      -20.461  78.242  33.059  0.00  0.00    +0.132 A 
ATOM     11  C   LIG    1      -21.768  77.900  32.725  0.00  0.00    +0.047 A 
ATOM     12  C   LIG    1      -22.842  78.468  33.420  0.00  0.00    +0.012 A 
ATOM     13  C   LIG    1      -22.613  79.356  34.477  0.00  0.00    -0.010 A 
ATOM     14  C   LIG    1      -21.300  79.732  34.771  0.00  0.00    +0.012 A 
ATOM     15  C   LIG    1      -20.246  79.225  34.032  0.00  0.00    +0.047 A 
BRANCH  13  16
ATOM     16  C   LIG    1      -23.702  79.873  35.291  0.00  0.00    +0.041 A 
ATOM     17  S   LIG    1      -23.429  81.248  36.268  0.00  0.00    -0.052 S 
ATOM     18  C   LIG    1      -25.030  81.188  36.831  0.00  0.00    +0.168 A 
ATOM     19  N   LIG    1      -25.777  80.233  36.319  0.00  0.00    -0.232 NA
ATOM     20  C   LIG    1      -25.005  79.455  35.466  0.00  0.00    +0.129 A 
BRANCH  18  21
ATOM     21  N   LIG    1      -25.477  82.167  37.691  0.00  0.00    -0.250 N 
ATOM     22  C   LIG    1      -25.883  83.441  37.278  0.00  0.00    +0.221 C 
ATOM     23  O   LIG    1      -25.863  83.958  36.175  0.00  0.00    -0.275 OA
ATOM     24  C   LIG    1      -26.352  84.187  38.501  0.00  0.00    +0.098 C 
ATOM     25  C   LIG    1      -26.435  83.117  39.575  0.00  0.00    +0.029 C 
ATOM     26  C   LIG    1      -25.449  82.060  39.121  0.00  0.00    +0.116 C 
ENDBRANCH  18  21
ENDBRANCH  13  16
ENDBRANCH   9  10
ENDBRANCH   6   9
ENDBRANCH   2   3
BRANCH   1  27
ATOM     27  N   LIG    1      -22.145  71.667  33.077  0.00  0.00    -0.254 N 
ATOM     28  H   LIG    1      -22.609  72.251  33.750  0.00  0.00    +0.158 HD
BRANCH  27  30
ATOM     29  N   LIG    1      -23.671  72.253  31.168  0.00  0.00    -0.218 N 
ATOM     30  C   LIG    1      -22.958  71.352  32.015  0.00  0.00    +0.130 A 
ATOM     31  C   LIG    1      -23.277  70.098  31.512  0.00  0.00    +0.069 A 
ATOM     32  C   LIG    1      -23.923  70.283  30.289  0.00  0.00    +0.071 A 
ATOM     33  N   LIG    1      -24.205  71.569  30.103  0.00  0.00    -0.169 NA
BRANCH  29  39
ATOM     34  C   LIG    1      -24.933  78.827  30.498  0.00  0.00    +0.173 C 
ATOM     35  N   LIG    1      -25.446  77.524  30.848  0.00  0.00    -0.267 N 
ATOM     36  C   LIG    1      -24.748  76.336  30.851  0.00  0.00    +0.069 A 
ATOM     37  C   LIG    1      -23.484  75.958  30.368  0.00  0.00    +0.030 A 
ATOM     38  C   LIG    1      -23.093  74.604  30.501  0.00  0.00    +0.030 A 
ATOM     39  C   LIG    1      -23.898  73.679  31.169  0.00  0.00    +0.068 A 
ATOM     40  C   LIG    1      -25.091  74.144  31.785  0.00  0.00    +0.039 A 
ATOM     41  C   LIG    1      -25.569  75.443  31.525  0.00  0.00    +0.022 A 
ATOM     42  C   LIG    1      -26.773  76.155  31.744  0.00  0.00    +0.143 A 
ATOM     43  N   LIG    1      -26.705  77.420  31.320  0.00  0.00    -0.179 NA
ENDBRANCH  29  39
BRANCH  32  44
ATOM     44  C   LIG    1      -24.226  69.207  29.258  0.00  0.00    +0.006 C 
ATOM     45  C   LIG    1      -23.086  68.162  29.184  0.00  0.00    +0.017 C 
ATOM     46  C   LIG    1      -24.365  69.837  27.854  0.00  0.00    +0.017 C 
ATOM     47  C   LIG    1      -25.534  68.474  29.591  0.00  0.00    +0.017 C 
ENDBRANCH  32  44
ENDBRANCH  27  30
ENDBRANCH   1  27
BRANCH   1  48
ATOM     48  O   LIG    1      -20.422  70.204  33.499  0.00  0.00    -0.481 OA
ATOM     49  H   LIG    1      -19.871  70.105  34.258  0.00  0.00    +0.295 HD
ENDBRANCH   1  48
TORSDOF 10
ENDMDL
