MODEL 1
REMARK VINA RESULT:      -5.7      0.000      0.000
REMARK  Name = pdb/CHEMBL3675917.pdb
REMARK                            x       y       z     vdW  Elec       q    Type
REMARK                         _______ _______ _______ _____ _____    ______ ____
ROOT
ATOM      1  C   LIG    1      -21.145  77.417  31.537  0.00  0.00    +0.126 A 
ATOM      2  N   LIG    1      -22.202  77.594  32.305  0.00  0.00    -0.212 NA
ATOM      3  C   LIG    1      -23.445  77.511  31.731  0.00  0.00    +0.170 A 
ATOM      4  C   LIG    1      -24.720  77.645  32.254  0.00  0.00    +0.100 A 
ATOM      5  C   LIG    1      -25.574  77.470  31.146  0.00  0.00    +0.150 A 
ATOM      6  N   LIG    1      -24.919  77.232  30.010  0.00  0.00    -0.173 NA
ATOM      7  N   LIG    1      -23.615  77.248  30.371  0.00  0.00    -0.221 N 
ATOM      8  C   LIG    1      -22.518  77.040  29.556  0.00  0.00    +0.118 A 
ATOM      9  C   LIG    1      -21.283  77.099  30.064  0.00  0.00    +0.063 A 
ENDROOT
BRANCH   1  11
ATOM     10  C   LIG    1      -19.373  78.788  32.674  0.00  0.00    +0.108 C 
ATOM     11  N   LIG    1      -19.877  77.522  32.094  0.00  0.00    -0.308 N 
ATOM     12  C   LIG    1      -18.757  76.653  31.741  0.00  0.00    +0.107 C 
ATOM     13  C   LIG    1      -17.597  77.615  31.551  0.00  0.00    +0.021 C 
ATOM     14  C   LIG    1      -17.838  78.645  32.641  0.00  0.00    +0.029 C 
BRANCH  10  18
ATOM     15  F   LIG    1      -21.819  81.454  35.995  0.00  0.00    -0.205 F 
ATOM     16  C   LIG    1      -21.110  80.354  35.708  0.00  0.00    +0.124 A 
ATOM     17  C   LIG    1      -20.660  80.154  34.406  0.00  0.00    +0.046 A 
ATOM     18  C   LIG    1      -19.896  79.022  34.077  0.00  0.00    +0.011 A 
ATOM     19  C   LIG    1      -19.635  78.097  35.097  0.00  0.00    +0.129 A 
ATOM     20  F   LIG    1      -18.913  76.999  34.831  0.00  0.00    -0.205 F 
ATOM     21  C   LIG    1      -20.099  78.294  36.401  0.00  0.00    +0.041 A 
ATOM     22  C   LIG    1      -20.837  79.434  36.711  0.00  0.00    +0.041 A 
ENDBRANCH  10  18
ENDBRANCH   1  11
BRANCH   4  23
ATOM     23  C   LIG    1      -25.123  77.912  33.615  0.00  0.00    +0.250 C 
ATOM     24  N   LIG    1      -24.111  78.275  34.468  0.00  0.00    -0.298 N 
ATOM     25  H   LIG    1      -23.162  78.308  34.094  0.00  0.00    +0.150 HD
ATOM     26  O   LIG    1      -26.293  77.823  33.973  0.00  0.00    -0.270 OA
BRANCH  24  27
ATOM     27  C   LIG    1      -24.364  78.596  35.855  0.00  0.00    +0.223 C 
BRANCH  27  28
ATOM     28  C   LIG    1      -24.802  79.984  36.043  0.00  0.00    +0.081 C 
ATOM     29  N   LIG    1      -25.140  81.086  36.226  0.00  0.00    -0.195 NA
ENDBRANCH  27  28
ENDBRANCH  24  27
ENDBRANCH   4  23
TORSDOF 5
ENDMDL
MODEL 2
REMARK VINA RESULT:      -5.7      2.568      5.364
REMARK  Name = pdb/CHEMBL3675917.pdb
REMARK                            x       y       z     vdW  Elec       q    Type
REMARK                         _______ _______ _______ _____ _____    ______ ____
ROOT
ATOM      1  C   LIG    1      -20.287  78.889  33.791  0.00  0.00    +0.126 A 
ATOM      2  N   LIG    1      -20.838  78.404  32.697  0.00  0.00    -0.212 NA
ATOM      3  C   LIG    1      -20.030  77.769  31.787  0.00  0.00    +0.170 A 
ATOM      4  C   LIG    1      -20.296  77.166  30.570  0.00  0.00    +0.100 A 
ATOM      5  C   LIG    1      -19.039  76.717  30.118  0.00  0.00    +0.150 A 
ATOM      6  N   LIG    1      -18.048  76.990  30.965  0.00  0.00    -0.173 NA
ATOM      7  N   LIG    1      -18.657  77.626  31.992  0.00  0.00    -0.221 N 
ATOM      8  C   LIG    1      -18.068  78.110  33.146  0.00  0.00    +0.118 A 
ATOM      9  C   LIG    1      -18.809  78.730  34.070  0.00  0.00    +0.063 A 
ENDROOT
BRANCH   1  11
ATOM     10  C   LIG    1      -22.545  79.715  34.522  0.00  0.00    +0.108 C 
ATOM     11  N   LIG    1      -21.084  79.557  34.712  0.00  0.00    -0.308 N 
ATOM     12  C   LIG    1      -20.587  80.576  35.634  0.00  0.00    +0.107 C 
ATOM     13  C   LIG    1      -21.611  81.692  35.527  0.00  0.00    +0.021 C 
ATOM     14  C   LIG    1      -22.918  80.932  35.393  0.00  0.00    +0.029 C 
BRANCH  10  18
ATOM     15  F   LIG    1      -23.334  75.881  37.486  0.00  0.00    -0.205 F 
ATOM     16  C   LIG    1      -23.687  76.576  36.397  0.00  0.00    +0.124 A 
ATOM     17  C   LIG    1      -22.979  77.729  36.066  0.00  0.00    +0.046 A 
ATOM     18  C   LIG    1      -23.311  78.469  34.919  0.00  0.00    +0.011 A 
ATOM     19  C   LIG    1      -24.390  78.020  34.147  0.00  0.00    +0.129 A 
ATOM     20  F   LIG    1      -24.745  78.696  33.044  0.00  0.00    -0.205 F 
ATOM     21  C   LIG    1      -25.106  76.869  34.487  0.00  0.00    +0.041 A 
ATOM     22  C   LIG    1      -24.749  76.138  35.618  0.00  0.00    +0.041 A 
ENDBRANCH  10  18
ENDBRANCH   1  11
BRANCH   4  23
ATOM     23  C   LIG    1      -21.559  77.019  29.884  0.00  0.00    +0.250 C 
ATOM     24  N   LIG    1      -22.642  77.570  30.520  0.00  0.00    -0.298 N 
ATOM     25  H   LIG    1      -22.487  78.015  31.425  0.00  0.00    +0.150 HD
ATOM     26  O   LIG    1      -21.645  76.445  28.803  0.00  0.00    -0.270 OA
BRANCH  24  27
ATOM     27  C   LIG    1      -23.968  77.524  29.943  0.00  0.00    +0.223 C 
BRANCH  27  28
ATOM     28  C   LIG    1      -24.835  76.534  30.594  0.00  0.00    +0.081 C 
ATOM     29  N   LIG    1      -25.500  75.724  31.105  0.00  0.00    -0.195 NA
ENDBRANCH  27  28
ENDBRANCH  24  27
ENDBRANCH   4  23
TORSDOF 5
ENDMDL
MODEL 3
REMARK VINA RESULT:      -5.6      1.831      4.862
REMARK  Name = pdb/CHEMBL3675917.pdb
REMARK                            x       y       z     vdW  Elec       q    Type
REMARK                         _______ _______ _______ _____ _____    ______ ____
ROOT
ATOM      1  C   LIG    1      -23.582  79.525  34.801  0.00  0.00    +0.126 A 
ATOM      2  N   LIG    1      -23.683  78.943  33.623  0.00  0.00    -0.212 NA
ATOM      3  C   LIG    1      -24.817  78.219  33.350  0.00  0.00    +0.170 A 
ATOM      4  C   LIG    1      -25.216  77.506  32.232  0.00  0.00    +0.100 A 
ATOM      5  C   LIG    1      -26.473  76.974  32.587  0.00  0.00    +0.150 A 
ATOM      6  N   LIG    1      -26.861  77.317  33.814  0.00  0.00    -0.173 NA
ATOM      7  N   LIG    1      -25.851  78.087  34.277  0.00  0.00    -0.221 N 
ATOM      8  C   LIG    1      -25.768  78.710  35.509  0.00  0.00    +0.118 A 
ATOM      9  C   LIG    1      -24.691  79.434  35.826  0.00  0.00    +0.063 A 
ENDROOT
BRANCH   1  11
ATOM     10  C   LIG    1      -21.327  79.656  35.904  0.00  0.00    +0.108 C 
ATOM     11  N   LIG    1      -22.430  80.241  35.106  0.00  0.00    -0.308 N 
ATOM     12  C   LIG    1      -22.367  81.699  35.159  0.00  0.00    +0.107 C 
ATOM     13  C   LIG    1      -21.612  81.983  36.445  0.00  0.00    +0.021 C 
ATOM     14  C   LIG    1      -20.575  80.875  36.473  0.00  0.00    +0.029 C 
BRANCH  10  18
ATOM     15  F   LIG    1      -18.932  78.603  31.748  0.00  0.00    -0.205 F 
ATOM     16  C   LIG    1      -19.249  78.261  33.004  0.00  0.00    +0.124 A 
ATOM     17  C   LIG    1      -20.060  79.107  33.756  0.00  0.00    +0.046 A 
ATOM     18  C   LIG    1      -20.428  78.766  35.068  0.00  0.00    +0.011 A 
ATOM     19  C   LIG    1      -19.927  77.568  35.593  0.00  0.00    +0.129 A 
ATOM     20  F   LIG    1      -20.249  77.202  36.843  0.00  0.00    -0.205 F 
ATOM     21  C   LIG    1      -19.103  76.726  34.840  0.00  0.00    +0.041 A 
ATOM     22  C   LIG    1      -18.766  77.072  33.533  0.00  0.00    +0.041 A 
ENDBRANCH  10  18
ENDBRANCH   1  11
BRANCH   4  23
ATOM     23  C   LIG    1      -24.527  77.321  30.976  0.00  0.00    +0.250 C 
ATOM     24  N   LIG    1      -23.158  77.360  31.045  0.00  0.00    -0.298 N 
ATOM     25  H   LIG    1      -22.731  77.536  31.954  0.00  0.00    +0.150 HD
ATOM     26  O   LIG    1      -25.135  77.135  29.926  0.00  0.00    -0.270 OA
BRANCH  24  27
ATOM     27  C   LIG    1      -22.332  77.165  29.873  0.00  0.00    +0.223 C 
BRANCH  27  28
ATOM     28  C   LIG    1      -21.104  76.417  30.164  0.00  0.00    +0.081 C 
ATOM     29  N   LIG    1      -20.119  75.846  30.418  0.00  0.00    -0.195 NA
ENDBRANCH  27  28
ENDBRANCH  24  27
ENDBRANCH   4  23
TORSDOF 5
ENDMDL
MODEL 4
REMARK VINA RESULT:      -5.6      2.397      5.275
REMARK  Name = pdb/CHEMBL3675917.pdb
REMARK                            x       y       z     vdW  Elec       q    Type
REMARK                         _______ _______ _______ _____ _____    ______ ____
ROOT
ATOM      1  C   LIG    1      -20.983  79.167  34.277  0.00  0.00    +0.126 A 
ATOM      2  N   LIG    1      -21.186  78.640  33.086  0.00  0.00    -0.212 NA
ATOM      3  C   LIG    1      -20.112  78.103  32.421  0.00  0.00    +0.170 A 
ATOM      4  C   LIG    1      -19.997  77.490  31.185  0.00  0.00    +0.100 A 
ATOM      5  C   LIG    1      -18.627  77.179  31.074  0.00  0.00    +0.150 A 
ATOM      6  N   LIG    1      -17.916  77.543  32.140  0.00  0.00    -0.173 NA
ATOM      7  N   LIG    1      -18.828  78.101  32.969  0.00  0.00    -0.221 N 
ATOM      8  C   LIG    1      -18.605  78.631  34.227  0.00  0.00    +0.118 A 
ATOM      9  C   LIG    1      -19.615  79.159  34.924  0.00  0.00    +0.063 A 
ENDROOT
BRANCH   1  11
ATOM     10  C   LIG    1      -22.191  79.648  36.428  0.00  0.00    +0.108 C 
ATOM     11  N   LIG    1      -22.052  79.739  34.956  0.00  0.00    -0.308 N 
ATOM     12  C   LIG    1      -23.352  80.013  34.346  0.00  0.00    +0.107 C 
ATOM     13  C   LIG    1      -24.348  79.498  35.371  0.00  0.00    +0.021 C 
ATOM     14  C   LIG    1      -23.694  79.874  36.688  0.00  0.00    +0.029 C 
BRANCH  10  18
ATOM     15  F   LIG    1      -20.326  84.163  36.931  0.00  0.00    -0.205 F 
ATOM     16  C   LIG    1      -20.412  82.904  37.381  0.00  0.00    +0.124 A 
ATOM     17  C   LIG    1      -21.231  81.996  36.714  0.00  0.00    +0.046 A 
ATOM     18  C   LIG    1      -21.326  80.664  37.147  0.00  0.00    +0.011 A 
ATOM     19  C   LIG    1      -20.593  80.297  38.283  0.00  0.00    +0.129 A 
ATOM     20  F   LIG    1      -20.655  79.036  38.736  0.00  0.00    -0.205 F 
ATOM     21  C   LIG    1      -19.782  81.213  38.959  0.00  0.00    +0.041 A 
ATOM     22  C   LIG    1      -19.685  82.525  38.501  0.00  0.00    +0.041 A 
ENDBRANCH  10  18
ENDBRANCH   1  11
BRANCH   4  23
ATOM     23  C   LIG    1      -21.022  77.221  30.204  0.00  0.00    +0.250 C 
ATOM     24  N   LIG    1      -22.306  77.491  30.604  0.00  0.00    -0.298 N 
ATOM     25  H   LIG    1      -22.446  77.834  31.555  0.00  0.00    +0.150 HD
ATOM     26  O   LIG    1      -20.752  76.786  29.089  0.00  0.00    -0.270 OA
BRANCH  24  27
ATOM     27  C   LIG    1      -23.435  77.295  29.722  0.00  0.00    +0.223 C 
BRANCH  27  28
ATOM     28  C   LIG    1      -24.715  77.634  30.356  0.00  0.00    +0.081 C 
ATOM     29  N   LIG    1      -25.747  77.899  30.829  0.00  0.00    -0.195 NA
ENDBRANCH  27  28
ENDBRANCH  24  27
ENDBRANCH   4  23
TORSDOF 5
ENDMDL
MODEL 5
REMARK VINA RESULT:      -5.6      2.201      4.472
REMARK  Name = pdb/CHEMBL3675917.pdb
REMARK                            x       y       z     vdW  Elec       q    Type
REMARK                         _______ _______ _______ _____ _____    ______ ____
ROOT
ATOM      1  C   LIG    1      -22.661  78.108  34.857  0.00  0.00    +0.126 A 
ATOM      2  N   LIG    1      -23.012  77.827  33.617  0.00  0.00    -0.212 NA
ATOM      3  C   LIG    1      -24.346  77.657  33.342  0.00  0.00    +0.170 A 
ATOM      4  C   LIG    1      -25.021  77.362  32.170  0.00  0.00    +0.100 A 
ATOM      5  C   LIG    1      -26.377  77.301  32.552  0.00  0.00    +0.150 A 
ATOM      6  N   LIG    1      -26.569  77.545  33.847  0.00  0.00    -0.173 NA
ATOM      7  N   LIG    1      -25.325  77.772  34.329  0.00  0.00    -0.221 N 
ATOM      8  C   LIG    1      -24.974  78.087  35.629  0.00  0.00    +0.118 A 
ATOM      9  C   LIG    1      -23.690  78.273  35.952  0.00  0.00    +0.063 A 
ENDROOT
BRANCH   1  11
ATOM     10  C   LIG    1      -20.553  79.474  34.787  0.00  0.00    +0.108 C 
ATOM     11  N   LIG    1      -21.313  78.259  35.161  0.00  0.00    -0.308 N 
ATOM     12  C   LIG    1      -20.397  77.143  35.381  0.00  0.00    +0.107 C 
ATOM     13  C   LIG    1      -19.168  77.517  34.571  0.00  0.00    +0.021 C 
ATOM     14  C   LIG    1      -19.079  79.019  34.777  0.00  0.00    +0.029 C 
BRANCH  10  18
ATOM     15  F   LIG    1      -19.338  82.139  38.729  0.00  0.00    -0.205 F 
ATOM     16  C   LIG    1      -20.177  81.926  37.707  0.00  0.00    +0.124 A 
ATOM     17  C   LIG    1      -19.921  80.881  36.822  0.00  0.00    +0.046 A 
ATOM     18  C   LIG    1      -20.793  80.617  35.753  0.00  0.00    +0.011 A 
ATOM     19  C   LIG    1      -21.902  81.459  35.598  0.00  0.00    +0.129 A 
ATOM     20  F   LIG    1      -22.761  81.248  34.589  0.00  0.00    -0.205 F 
ATOM     21  C   LIG    1      -22.150  82.515  36.480  0.00  0.00    +0.041 A 
ATOM     22  C   LIG    1      -21.285  82.747  37.546  0.00  0.00    +0.041 A 
ENDBRANCH  10  18
ENDBRANCH   1  11
BRANCH   4  23
ATOM     23  C   LIG    1      -24.492  77.150  30.842  0.00  0.00    +0.250 C 
ATOM     24  N   LIG    1      -23.129  77.010  30.767  0.00  0.00    -0.298 N 
ATOM     25  H   LIG    1      -22.594  77.087  31.633  0.00  0.00    +0.150 HD
ATOM     26  O   LIG    1      -25.220  77.093  29.857  0.00  0.00    -0.270 OA
BRANCH  24  27
ATOM     27  C   LIG    1      -22.458  76.768  29.510  0.00  0.00    +0.223 C 
BRANCH  27  28
ATOM     28  C   LIG    1      -20.996  76.808  29.631  0.00  0.00    +0.081 C 
ATOM     29  N   LIG    1      -19.834  76.872  29.719  0.00  0.00    -0.195 NA
ENDBRANCH  27  28
ENDBRANCH  24  27
ENDBRANCH   4  23
TORSDOF 5
ENDMDL
MODEL 6
REMARK VINA RESULT:      -5.5      2.457      5.196
REMARK  Name = pdb/CHEMBL3675917.pdb
REMARK                            x       y       z     vdW  Elec       q    Type
REMARK                         _______ _______ _______ _____ _____    ______ ____
ROOT
ATOM      1  C   LIG    1      -20.389  78.926  33.739  0.00  0.00    +0.126 A 
ATOM      2  N   LIG    1      -20.962  78.294  32.734  0.00  0.00    -0.212 NA
ATOM      3  C   LIG    1      -20.156  77.689  31.802  0.00  0.00    +0.170 A 
ATOM      4  C   LIG    1      -20.443  76.965  30.658  0.00  0.00    +0.100 A 
ATOM      5  C   LIG    1      -19.180  76.633  30.127  0.00  0.00    +0.150 A 
ATOM      6  N   LIG    1      -18.166  77.087  30.861  0.00  0.00    -0.173 NA
ATOM      7  N   LIG    1      -18.764  77.727  31.892  0.00  0.00    -0.221 N 
ATOM      8  C   LIG    1      -18.149  78.367  32.952  0.00  0.00    +0.118 A 
ATOM      9  C   LIG    1      -18.885  78.966  33.894  0.00  0.00    +0.063 A 
ENDROOT
BRANCH   1  11
ATOM     10  C   LIG    1      -22.644  79.748  34.485  0.00  0.00    +0.108 C 
ATOM     11  N   LIG    1      -21.186  79.567  34.680  0.00  0.00    -0.308 N 
ATOM     12  C   LIG    1      -20.685  80.543  35.644  0.00  0.00    +0.107 C 
ATOM     13  C   LIG    1      -21.697  81.674  35.574  0.00  0.00    +0.021 C 
ATOM     14  C   LIG    1      -23.011  80.933  35.400  0.00  0.00    +0.029 C 
BRANCH  10  18
ATOM     15  F   LIG    1      -26.078  76.381  33.493  0.00  0.00    -0.205 F 
ATOM     16  C   LIG    1      -25.130  76.838  34.320  0.00  0.00    +0.124 A 
ATOM     17  C   LIG    1      -24.412  77.979  33.971  0.00  0.00    +0.046 A 
ATOM     18  C   LIG    1      -23.425  78.495  34.828  0.00  0.00    +0.011 A 
ATOM     19  C   LIG    1      -23.176  77.805  36.021  0.00  0.00    +0.129 A 
ATOM     20  F   LIG    1      -22.241  78.259  36.869  0.00  0.00    -0.205 F 
ATOM     21  C   LIG    1      -23.889  76.653  36.364  0.00  0.00    +0.041 A 
ATOM     22  C   LIG    1      -24.878  76.168  35.510  0.00  0.00    +0.041 A 
ENDBRANCH  10  18
ENDBRANCH   1  11
BRANCH   4  23
ATOM     23  C   LIG    1      -21.729  76.615  30.100  0.00  0.00    +0.250 C 
ATOM     24  N   LIG    1      -22.740  76.444  31.012  0.00  0.00    -0.298 N 
ATOM     25  H   LIG    1      -22.512  76.551  32.000  0.00  0.00    +0.150 HD
ATOM     26  O   LIG    1      -21.897  76.489  28.891  0.00  0.00    -0.270 OA
BRANCH  24  27
ATOM     27  C   LIG    1      -24.087  76.117  30.600  0.00  0.00    +0.223 C 
BRANCH  27  28
ATOM     28  C   LIG    1      -24.957  77.297  30.518  0.00  0.00    +0.081 C 
ATOM     29  N   LIG    1      -25.646  78.233  30.419  0.00  0.00    -0.195 NA
ENDBRANCH  27  28
ENDBRANCH  24  27
ENDBRANCH   4  23
TORSDOF 5
ENDMDL
MODEL 7
REMARK VINA RESULT:      -5.4      3.281      6.431
REMARK  Name = pdb/CHEMBL3675917.pdb
REMARK                            x       y       z     vdW  Elec       q    Type
REMARK                         _______ _______ _______ _____ _____    ______ ____
ROOT
ATOM      1  C   LIG    1      -23.789  78.812  34.568  0.00  0.00    +0.126 A 
ATOM      2  N   LIG    1      -24.300  79.836  35.222  0.00  0.00    -0.212 NA
ATOM      3  C   LIG    1      -23.449  80.826  35.646  0.00  0.00    +0.170 A 
ATOM      4  C   LIG    1      -23.668  82.004  36.341  0.00  0.00    +0.100 A 
ATOM      5  C   LIG    1      -22.385  82.570  36.484  0.00  0.00    +0.150 A 
ATOM      6  N   LIG    1      -21.422  81.839  35.926  0.00  0.00    -0.173 NA
ATOM      7  N   LIG    1      -22.076  80.775  35.405  0.00  0.00    -0.221 N 
ATOM      8  C   LIG    1      -21.528  79.717  34.702  0.00  0.00    +0.118 A 
ATOM      9  C   LIG    1      -22.311  78.729  34.257  0.00  0.00    +0.063 A 
ENDROOT
BRANCH   1  11
ATOM     10  C   LIG    1      -25.195  77.737  32.784  0.00  0.00    +0.108 C 
ATOM     11  N   LIG    1      -24.630  77.786  34.152  0.00  0.00    -0.308 N 
ATOM     12  C   LIG    1      -25.444  76.981  35.060  0.00  0.00    +0.107 C 
ATOM     13  C   LIG    1      -26.805  76.941  34.386  0.00  0.00    +0.021 C 
ATOM     14  C   LIG    1      -26.444  76.842  32.915  0.00  0.00    +0.029 C 
BRANCH  10  18
ATOM     15  F   LIG    1      -21.780  74.497  31.387  0.00  0.00    -0.205 F 
ATOM     16  C   LIG    1      -22.514  75.580  31.101  0.00  0.00    +0.124 A 
ATOM     17  C   LIG    1      -23.433  76.047  32.037  0.00  0.00    +0.046 A 
ATOM     18  C   LIG    1      -24.203  77.192  31.776  0.00  0.00    +0.011 A 
ATOM     19  C   LIG    1      -24.030  77.821  30.536  0.00  0.00    +0.129 A 
ATOM     20  F   LIG    1      -24.746  78.917  30.240  0.00  0.00    -0.205 F 
ATOM     21  C   LIG    1      -23.116  77.344  29.593  0.00  0.00    +0.041 A 
ATOM     22  C   LIG    1      -22.347  76.218  29.879  0.00  0.00    +0.041 A 
ENDBRANCH  10  18
ENDBRANCH   1  11
BRANCH   4  23
ATOM     23  C   LIG    1      -24.911  82.555  36.830  0.00  0.00    +0.250 C 
ATOM     24  N   LIG    1      -25.664  81.710  37.606  0.00  0.00    -0.298 N 
ATOM     25  H   LIG    1      -25.312  80.765  37.760  0.00  0.00    +0.150 HD
ATOM     26  O   LIG    1      -25.257  83.702  36.569  0.00  0.00    -0.270 OA
BRANCH  24  27
ATOM     27  C   LIG    1      -26.920  82.130  38.187  0.00  0.00    +0.223 C 
BRANCH  27  28
ATOM     28  C   LIG    1      -28.075  81.776  37.353  0.00  0.00    +0.081 C 
ATOM     29  N   LIG    1      -28.995  81.465  36.707  0.00  0.00    -0.195 NA
ENDBRANCH  27  28
ENDBRANCH  24  27
ENDBRANCH   4  23
TORSDOF 5
ENDMDL
MODEL 8
REMARK VINA RESULT:      -5.4      2.074      3.218
REMARK  Name = pdb/CHEMBL3675917.pdb
REMARK                            x       y       z     vdW  Elec       q    Type
REMARK                         _______ _______ _______ _____ _____    ______ ____
ROOT
ATOM      1  C   LIG    1      -21.183  77.899  32.992  0.00  0.00    +0.126 A 
ATOM      2  N   LIG    1      -22.490  77.786  32.863  0.00  0.00    -0.212 NA
ATOM      3  C   LIG    1      -23.004  77.587  31.606  0.00  0.00    +0.170 A 
ATOM      4  C   LIG    1      -24.302  77.433  31.148  0.00  0.00    +0.100 A 
ATOM      5  C   LIG    1      -24.165  77.286  29.752  0.00  0.00    +0.150 A 
ATOM      6  N   LIG    1      -22.899  77.328  29.340  0.00  0.00    -0.173 NA
ATOM      7  N   LIG    1      -22.188  77.503  30.477  0.00  0.00    -0.221 N 
ATOM      8  C   LIG    1      -20.814  77.599  30.600  0.00  0.00    +0.118 A 
ATOM      9  C   LIG    1      -20.257  77.784  31.801  0.00  0.00    +0.063 A 
ENDROOT
BRANCH   1  11
ATOM     10  C   LIG    1      -20.416  79.492  34.778  0.00  0.00    +0.108 C 
ATOM     11  N   LIG    1      -20.644  78.126  34.253  0.00  0.00    -0.308 N 
ATOM     12  C   LIG    1      -19.798  77.169  34.962  0.00  0.00    +0.107 C 
ATOM     13  C   LIG    1      -18.649  78.016  35.481  0.00  0.00    +0.021 C 
ATOM     14  C   LIG    1      -19.341  79.312  35.868  0.00  0.00    +0.029 C 
BRANCH  10  18
ATOM     15  F   LIG    1      -25.002  79.166  36.501  0.00  0.00    -0.205 F 
ATOM     16  C   LIG    1      -23.956  79.935  36.173  0.00  0.00    +0.124 A 
ATOM     17  C   LIG    1      -22.793  79.335  35.695  0.00  0.00    +0.046 A 
ATOM     18  C   LIG    1      -21.686  80.115  35.322  0.00  0.00    +0.011 A 
ATOM     19  C   LIG    1      -21.788  81.503  35.478  0.00  0.00    +0.129 A 
ATOM     20  F   LIG    1      -20.755  82.289  35.137  0.00  0.00    -0.205 F 
ATOM     21  C   LIG    1      -22.951  82.102  35.969  0.00  0.00    +0.041 A 
ATOM     22  C   LIG    1      -24.046  81.313  36.314  0.00  0.00    +0.041 A 
ENDBRANCH  10  18
ENDBRANCH   1  11
BRANCH   4  23
ATOM     23  C   LIG    1      -25.537  77.426  31.896  0.00  0.00    +0.250 C 
ATOM     24  N   LIG    1      -25.400  77.324  33.257  0.00  0.00    -0.298 N 
ATOM     25  H   LIG    1      -24.456  77.239  33.636  0.00  0.00    +0.150 HD
ATOM     26  O   LIG    1      -26.629  77.513  31.344  0.00  0.00    -0.270 OA
BRANCH  24  27
ATOM     27  C   LIG    1      -26.546  77.330  34.139  0.00  0.00    +0.223 C 
BRANCH  27  28
ATOM     28  C   LIG    1      -26.954  75.980  34.546  0.00  0.00    +0.081 C 
ATOM     29  N   LIG    1      -27.308  74.920  34.881  0.00  0.00    -0.195 NA
ENDBRANCH  27  28
ENDBRANCH  24  27
ENDBRANCH   4  23
TORSDOF 5
ENDMDL
MODEL 9
REMARK VINA RESULT:      -5.4      2.798      6.453
REMARK  Name = pdb/CHEMBL3675917.pdb
REMARK                            x       y       z     vdW  Elec       q    Type
REMARK                         _______ _______ _______ _____ _____    ______ ____
ROOT
ATOM      1  C   LIG    1      -24.895  76.928  34.097  0.00  0.00    +0.126 A 
ATOM      2  N   LIG    1      -23.827  77.697  34.176  0.00  0.00    -0.212 NA
ATOM      3  C   LIG    1      -23.933  78.890  34.845  0.00  0.00    +0.170 A 
ATOM      4  C   LIG    1      -23.017  79.897  35.098  0.00  0.00    +0.100 A 
ATOM      5  C   LIG    1      -23.749  80.865  35.817  0.00  0.00    +0.150 A 
ATOM      6  N   LIG    1      -25.018  80.517  36.024  0.00  0.00    -0.173 NA
ATOM      7  N   LIG    1      -25.127  79.303  35.436  0.00  0.00    -0.221 N 
ATOM      8  C   LIG    1      -26.250  78.497  35.380  0.00  0.00    +0.118 A 
ATOM      9  C   LIG    1      -26.202  77.321  34.749  0.00  0.00    +0.063 A 
ENDROOT
BRANCH   1  11
ATOM     10  C   LIG    1      -25.070  75.643  31.944  0.00  0.00    +0.108 C 
ATOM     11  N   LIG    1      -24.815  75.728  33.401  0.00  0.00    -0.308 N 
ATOM     12  C   LIG    1      -24.991  74.415  34.018  0.00  0.00    +0.107 C 
ATOM     13  C   LIG    1      -25.919  73.687  33.061  0.00  0.00    +0.021 C 
ATOM     14  C   LIG    1      -25.437  74.164  31.703  0.00  0.00    +0.029 C 
BRANCH  10  18
ATOM     15  F   LIG    1      -20.359  75.234  30.622  0.00  0.00    -0.205 F 
ATOM     16  C   LIG    1      -21.535  75.859  30.485  0.00  0.00    +0.124 A 
ATOM     17  C   LIG    1      -22.628  75.428  31.232  0.00  0.00    +0.046 A 
ATOM     18  C   LIG    1      -23.870  76.076  31.128  0.00  0.00    +0.011 A 
ATOM     19  C   LIG    1      -23.969  77.145  30.228  0.00  0.00    +0.129 A 
ATOM     20  F   LIG    1      -25.135  77.794  30.092  0.00  0.00    -0.205 F 
ATOM     21  C   LIG    1      -22.874  77.570  29.470  0.00  0.00    +0.041 A 
ATOM     22  C   LIG    1      -21.646  76.926  29.603  0.00  0.00    +0.041 A 
ENDBRANCH  10  18
ENDBRANCH   1  11
BRANCH   4  23
ATOM     23  C   LIG    1      -21.624  79.978  34.721  0.00  0.00    +0.250 C 
ATOM     24  N   LIG    1      -21.215  79.064  33.784  0.00  0.00    -0.298 N 
ATOM     25  H   LIG    1      -21.902  78.391  33.443  0.00  0.00    +0.150 HD
ATOM     26  O   LIG    1      -20.870  80.814  35.208  0.00  0.00    -0.270 OA
BRANCH  24  27
ATOM     27  C   LIG    1      -19.856  79.038  33.290  0.00  0.00    +0.223 C 
BRANCH  27  28
ATOM     28  C   LIG    1      -19.312  77.678  33.198  0.00  0.00    +0.081 C 
ATOM     29  N   LIG    1      -18.911  76.586  33.113  0.00  0.00    -0.195 NA
ENDBRANCH  27  28
ENDBRANCH  24  27
ENDBRANCH   4  23
TORSDOF 5
ENDMDL
