MODEL 1
REMARK VINA RESULT:      -6.5      0.000      0.000
REMARK  Name = pdb/CHEMBL3923369.pdb
REMARK                            x       y       z     vdW  Elec       q    Type
REMARK                         _______ _______ _______ _____ _____    ______ ____
ROOT
ATOM      1  C   LIG    1      -20.764  76.833  30.731  0.00  0.00    +0.027 A 
ATOM      2  C   LIG    1      -20.978  77.886  31.627  0.00  0.00    +0.060 A 
ATOM      3  C   LIG    1      -19.885  78.425  32.281  0.00  0.00    +0.157 A 
ATOM      4  N   LIG    1      -18.621  77.993  32.070  0.00  0.00    -0.236 NA
ATOM      5  C   LIG    1      -18.452  76.917  31.277  0.00  0.00    +0.114 A 
ATOM      6  C   LIG    1      -19.489  76.281  30.624  0.00  0.00    +0.031 A 
ENDROOT
BRANCH   1   7
ATOM      7  C   LIG    1      -21.913  76.308  29.948  0.00  0.00    +0.195 C 
ATOM      8  O   LIG    1      -21.877  76.445  28.720  0.00  0.00    -0.287 OA
BRANCH   7  16
ATOM      9  N   LIG    1      -24.231  74.005  31.569  0.00  0.00    -0.343 N 
ATOM     10  C   LIG    1      -25.072  75.103  31.545  0.00  0.00    +0.053 A 
ATOM     11  C   LIG    1      -26.388  75.265  31.997  0.00  0.00    +0.046 A 
ATOM     12  C   LIG    1      -26.933  76.526  31.827  0.00  0.00    +0.113 A 
ATOM     13  N   LIG    1      -26.290  77.570  31.272  0.00  0.00    -0.263 NA
ATOM     14  C   LIG    1      -25.013  77.406  30.856  0.00  0.00    +0.121 A 
ATOM     15  C   LIG    1      -24.363  76.163  30.959  0.00  0.00    +0.029 A 
ATOM     16  C   LIG    1      -23.058  75.669  30.608  0.00  0.00    +0.049 A 
ATOM     17  C   LIG    1      -23.002  74.371  31.089  0.00  0.00    +0.099 A 
BRANCH   9  19
ATOM     18  C   LIG    1      -25.371  71.850  30.970  0.00  0.00    +0.030 C 
ATOM     19  C   LIG    1      -24.606  72.662  32.023  0.00  0.00    +0.081 C 
ATOM     20  C   LIG    1      -23.398  71.872  32.527  0.00  0.00    +0.030 C 
ENDBRANCH   9  19
ENDBRANCH   7  16
ENDBRANCH   1   7
BRANCH   3  21
ATOM     21  N   LIG    1      -20.057  79.412  33.253  0.00  0.00    -0.193 NA
ATOM     22  C   LIG    1      -19.986  79.140  34.515  0.00  0.00    +0.222 C 
BRANCH  22  23
ATOM     23  C   LIG    1      -20.252  80.120  35.594  0.00  0.00    +0.040 A 
ATOM     24  C   LIG    1      -21.352  80.985  35.477  0.00  0.00    +0.059 A 
ATOM     25  C   LIG    1      -21.631  81.906  36.487  0.00  0.00    +0.131 A 
ATOM     26  C   LIG    1      -20.772  81.990  37.589  0.00  0.00    +0.046 A 
ATOM     27  C   LIG    1      -19.683  81.129  37.718  0.00  0.00    +0.004 A 
ATOM     28  C   LIG    1      -19.430  80.186  36.728  0.00  0.00    +0.013 A 
BRANCH  25  29
ATOM     29  O   LIG    1      -22.638  82.820  36.489  0.00  0.00    -0.406 OA
BRANCH  29  30
ATOM     30  C   LIG    1      -23.978  82.427  36.758  0.00  0.00    +0.575 C 
ATOM     31  F   LIG    1      -24.790  83.494  36.595  0.00  0.00    -0.133 F 
ATOM     32  F   LIG    1      -24.056  82.037  38.051  0.00  0.00    -0.133 F 
ATOM     33  F   LIG    1      -24.434  81.415  35.996  0.00  0.00    -0.133 F 
ENDBRANCH  29  30
ENDBRANCH  25  29
ENDBRANCH  22  23
BRANCH  22  34
ATOM     34  O   LIG    1      -19.663  77.932  35.018  0.00  0.00    -0.492 OA
ATOM     35  H   LIG    1      -19.846  77.251  34.341  0.00  0.00    +0.294 HD
ENDBRANCH  22  34
ENDBRANCH   3  21
TORSDOF 8
ENDMDL
MODEL 2
REMARK VINA RESULT:      -6.3     21.015     23.497
REMARK  Name = pdb/CHEMBL3923369.pdb
REMARK                            x       y       z     vdW  Elec       q    Type
REMARK                         _______ _______ _______ _____ _____    ______ ____
ROOT
ATOM      1  C   LIG    1      -22.382  87.923  12.396  0.00  0.00    +0.027 A 
ATOM      2  C   LIG    1      -22.880  86.751  12.977  0.00  0.00    +0.060 A 
ATOM      3  C   LIG    1      -22.296  86.298  14.146  0.00  0.00    +0.157 A 
ATOM      4  N   LIG    1      -21.284  86.953  14.760  0.00  0.00    -0.236 NA
ATOM      5  C   LIG    1      -20.760  88.023  14.131  0.00  0.00    +0.114 A 
ATOM      6  C   LIG    1      -21.244  88.518  12.936  0.00  0.00    +0.031 A 
ENDROOT
BRANCH   1   7
ATOM      7  C   LIG    1      -23.061  88.477  11.196  0.00  0.00    +0.195 C 
ATOM      8  O   LIG    1      -23.152  87.747  10.202  0.00  0.00    -0.287 OA
BRANCH   7  16
ATOM      9  N   LIG    1      -25.082  91.495  11.530  0.00  0.00    -0.343 N 
ATOM     10  C   LIG    1      -23.999  92.085  10.904  0.00  0.00    +0.053 A 
ATOM     11  C   LIG    1      -23.766  93.413  10.523  0.00  0.00    +0.046 A 
ATOM     12  C   LIG    1      -22.544  93.662   9.922  0.00  0.00    +0.113 A 
ATOM     13  N   LIG    1      -21.600  92.731   9.691  0.00  0.00    -0.263 NA
ATOM     14  C   LIG    1      -21.829  91.456  10.081  0.00  0.00    +0.121 A 
ATOM     15  C   LIG    1      -23.043  91.082  10.683  0.00  0.00    +0.029 A 
ATOM     16  C   LIG    1      -23.589  89.847  11.182  0.00  0.00    +0.049 A 
ATOM     17  C   LIG    1      -24.798  90.178  11.772  0.00  0.00    +0.099 A 
BRANCH   9  19
ATOM     18  C   LIG    1      -27.564  91.575  11.163  0.00  0.00    +0.030 C 
ATOM     19  C   LIG    1      -26.339  92.174  11.864  0.00  0.00    +0.081 C 
ATOM     20  C   LIG    1      -26.570  92.237  13.374  0.00  0.00    +0.030 C 
ENDBRANCH   9  19
ENDBRANCH   7  16
ENDBRANCH   1   7
BRANCH   3  21
ATOM     21  N   LIG    1      -22.694  85.086  14.713  0.00  0.00    -0.193 NA
ATOM     22  C   LIG    1      -21.914  84.055  14.723  0.00  0.00    +0.222 C 
BRANCH  22  23
ATOM     23  C   LIG    1      -22.309  82.717  15.223  0.00  0.00    +0.040 A 
ATOM     24  C   LIG    1      -23.559  82.191  14.855  0.00  0.00    +0.059 A 
ATOM     25  C   LIG    1      -23.946  80.927  15.300  0.00  0.00    +0.131 A 
ATOM     26  C   LIG    1      -23.098  80.217  16.158  0.00  0.00    +0.046 A 
ATOM     27  C   LIG    1      -21.852  80.727  16.521  0.00  0.00    +0.004 A 
ATOM     28  C   LIG    1      -21.452  81.970  16.043  0.00  0.00    +0.013 A 
BRANCH  25  29
ATOM     29  O   LIG    1      -25.134  80.313  15.049  0.00  0.00    -0.406 OA
BRANCH  29  30
ATOM     30  C   LIG    1      -25.475  79.898  13.733  0.00  0.00    +0.575 C 
ATOM     31  F   LIG    1      -26.433  78.948  13.807  0.00  0.00    -0.133 F 
ATOM     32  F   LIG    1      -24.380  79.342  13.165  0.00  0.00    -0.133 F 
ATOM     33  F   LIG    1      -25.903  80.884  12.922  0.00  0.00    -0.133 F 
ENDBRANCH  29  30
ENDBRANCH  25  29
ENDBRANCH  22  23
BRANCH  22  34
ATOM     34  O   LIG    1      -20.640  84.057  14.282  0.00  0.00    -0.492 OA
ATOM     35  H   LIG    1      -20.530  83.332  13.638  0.00  0.00    +0.294 HD
ENDBRANCH  22  34
ENDBRANCH   3  21
TORSDOF 8
ENDMDL
MODEL 3
REMARK VINA RESULT:      -6.2      5.665     10.092
REMARK  Name = pdb/CHEMBL3923369.pdb
REMARK                            x       y       z     vdW  Elec       q    Type
REMARK                         _______ _______ _______ _____ _____    ______ ____
ROOT
ATOM      1  C   LIG    1      -25.974  76.008  32.893  0.00  0.00    +0.027 A 
ATOM      2  C   LIG    1      -26.914  75.979  31.857  0.00  0.00    +0.060 A 
ATOM      3  C   LIG    1      -28.117  76.635  32.044  0.00  0.00    +0.157 A 
ATOM      4  N   LIG    1      -28.409  77.320  33.173  0.00  0.00    -0.236 NA
ATOM      5  C   LIG    1      -27.528  77.253  34.191  0.00  0.00    +0.114 A 
ATOM      6  C   LIG    1      -26.326  76.579  34.114  0.00  0.00    +0.031 A 
ENDROOT
BRANCH   1   7
ATOM      7  C   LIG    1      -24.639  75.393  32.672  0.00  0.00    +0.195 C 
ATOM      8  O   LIG    1      -24.569  74.159  32.683  0.00  0.00    -0.287 OA
BRANCH   7  16
ATOM      9  N   LIG    1      -21.811  77.671  33.011  0.00  0.00    -0.343 N 
ATOM     10  C   LIG    1      -21.621  77.364  31.676  0.00  0.00    +0.053 A 
ATOM     11  C   LIG    1      -20.654  77.796  30.760  0.00  0.00    +0.046 A 
ATOM     12  C   LIG    1      -20.751  77.265  29.485  0.00  0.00    +0.113 A 
ATOM     13  N   LIG    1      -21.691  76.387  29.090  0.00  0.00    -0.263 NA
ATOM     14  C   LIG    1      -22.609  75.962  29.990  0.00  0.00    +0.121 A 
ATOM     15  C   LIG    1      -22.620  76.449  31.309  0.00  0.00    +0.029 A 
ATOM     16  C   LIG    1      -23.443  76.219  32.467  0.00  0.00    +0.049 A 
ATOM     17  C   LIG    1      -22.845  76.921  33.502  0.00  0.00    +0.099 A 
BRANCH   9  19
ATOM     18  C   LIG    1      -21.898  79.580  34.639  0.00  0.00    +0.030 C 
ATOM     19  C   LIG    1      -21.034  78.658  33.770  0.00  0.00    +0.081 C 
ATOM     20  C   LIG    1      -19.947  77.998  34.617  0.00  0.00    +0.030 C 
ENDBRANCH   9  19
ENDBRANCH   7  16
ENDBRANCH   1   7
BRANCH   3  21
ATOM     21  N   LIG    1      -29.124  76.557  31.079  0.00  0.00    -0.193 NA
ATOM     22  C   LIG    1      -30.148  75.782  31.230  0.00  0.00    +0.222 C 
BRANCH  22  23
ATOM     23  C   LIG    1      -31.199  75.583  30.205  0.00  0.00    +0.040 A 
ATOM     24  C   LIG    1      -31.618  76.680  29.433  0.00  0.00    +0.059 A 
ATOM     25  C   LIG    1      -32.595  76.514  28.452  0.00  0.00    +0.131 A 
ATOM     26  C   LIG    1      -33.187  75.256  28.284  0.00  0.00    +0.046 A 
ATOM     27  C   LIG    1      -32.770  74.160  29.039  0.00  0.00    +0.004 A 
ATOM     28  C   LIG    1      -31.768  74.321  29.990  0.00  0.00    +0.013 A 
BRANCH  25  29
ATOM     29  O   LIG    1      -33.115  77.489  27.658  0.00  0.00    -0.406 OA
BRANCH  29  30
ATOM     30  C   LIG    1      -32.284  78.226  26.771  0.00  0.00    +0.575 C 
ATOM     31  F   LIG    1      -31.470  77.369  26.118  0.00  0.00    -0.133 F 
ATOM     32  F   LIG    1      -31.510  79.059  27.505  0.00  0.00    -0.133 F 
ATOM     33  F   LIG    1      -32.945  78.972  25.865  0.00  0.00    -0.133 F 
ENDBRANCH  29  30
ENDBRANCH  25  29
ENDBRANCH  22  23
BRANCH  22  34
ATOM     34  O   LIG    1      -30.396  75.052  32.336  0.00  0.00    -0.492 OA
ATOM     35  H   LIG    1      -30.584  75.660  33.077  0.00  0.00    +0.294 HD
ENDBRANCH  22  34
ENDBRANCH   3  21
TORSDOF 8
ENDMDL
MODEL 4
REMARK VINA RESULT:      -6.1     13.165     16.852
REMARK  Name = pdb/CHEMBL3923369.pdb
REMARK                            x       y       z     vdW  Elec       q    Type
REMARK                         _______ _______ _______ _____ _____    ______ ____
ROOT
ATOM      1  C   LIG    1      -36.735  70.247  25.781  0.00  0.00    +0.027 A 
ATOM      2  C   LIG    1      -35.725  71.183  26.024  0.00  0.00    +0.060 A 
ATOM      3  C   LIG    1      -35.101  71.171  27.258  0.00  0.00    +0.157 A 
ATOM      4  N   LIG    1      -35.411  70.278  28.225  0.00  0.00    -0.236 NA
ATOM      5  C   LIG    1      -36.451  69.450  28.002  0.00  0.00    +0.114 A 
ATOM      6  C   LIG    1      -37.165  69.426  26.822  0.00  0.00    +0.031 A 
ENDROOT
BRANCH   1   7
ATOM      7  C   LIG    1      -37.347  70.182  24.428  0.00  0.00    +0.195 C 
ATOM      8  O   LIG    1      -36.748  69.538  23.560  0.00  0.00    -0.287 OA
BRANCH   7  16
ATOM      9  N   LIG    1      -40.719  71.099  23.382  0.00  0.00    -0.343 N 
ATOM     10  C   LIG    1      -40.320  72.359  23.789  0.00  0.00    +0.053 A 
ATOM     11  C   LIG    1      -40.999  73.584  23.791  0.00  0.00    +0.046 A 
ATOM     12  C   LIG    1      -40.292  74.664  24.294  0.00  0.00    +0.113 A 
ATOM     13  N   LIG    1      -39.033  74.604  24.764  0.00  0.00    -0.263 NA
ATOM     14  C   LIG    1      -38.395  73.410  24.775  0.00  0.00    +0.121 A 
ATOM     15  C   LIG    1      -39.006  72.249  24.270  0.00  0.00    +0.029 A 
ATOM     16  C   LIG    1      -38.606  70.874  24.126  0.00  0.00    +0.049 A 
ATOM     17  C   LIG    1      -39.726  70.200  23.664  0.00  0.00    +0.099 A 
BRANCH   9  19
ATOM     18  C   LIG    1      -41.920  70.759  21.203  0.00  0.00    +0.030 C 
ATOM     19  C   LIG    1      -41.998  70.785  22.735  0.00  0.00    +0.081 C 
ATOM     20  C   LIG    1      -42.595  69.479  23.258  0.00  0.00    +0.030 C 
ENDBRANCH   9  19
ENDBRANCH   7  16
ENDBRANCH   1   7
BRANCH   3  21
ATOM     21  N   LIG    1      -34.153  72.143  27.582  0.00  0.00    -0.193 NA
ATOM     22  C   LIG    1      -34.453  73.162  28.321  0.00  0.00    +0.222 C 
BRANCH  22  23
ATOM     23  C   LIG    1      -33.521  74.274  28.623  0.00  0.00    +0.040 A 
ATOM     24  C   LIG    1      -33.846  75.572  28.197  0.00  0.00    +0.059 A 
ATOM     25  C   LIG    1      -32.993  76.638  28.484  0.00  0.00    +0.131 A 
ATOM     26  C   LIG    1      -31.788  76.387  29.151  0.00  0.00    +0.046 A 
ATOM     27  C   LIG    1      -31.462  75.102  29.586  0.00  0.00    +0.004 A 
ATOM     28  C   LIG    1      -32.334  74.048  29.333  0.00  0.00    +0.013 A 
BRANCH  25  29
ATOM     29  O   LIG    1      -33.165  77.933  28.106  0.00  0.00    -0.406 OA
BRANCH  29  30
ATOM     30  C   LIG    1      -32.343  78.515  27.104  0.00  0.00    +0.575 C 
ATOM     31  F   LIG    1      -31.286  79.113  27.694  0.00  0.00    -0.133 F 
ATOM     32  F   LIG    1      -33.060  79.470  26.467  0.00  0.00    -0.133 F 
ATOM     33  F   LIG    1      -31.890  77.654  26.173  0.00  0.00    -0.133 F 
ENDBRANCH  29  30
ENDBRANCH  25  29
ENDBRANCH  22  23
BRANCH  22  34
ATOM     34  O   LIG    1      -35.649  73.348  28.913  0.00  0.00    -0.492 OA
ATOM     35  H   LIG    1      -36.273  72.675  28.580  0.00  0.00    +0.294 HD
ENDBRANCH  22  34
ENDBRANCH   3  21
TORSDOF 8
ENDMDL
MODEL 5
REMARK VINA RESULT:      -6.1     18.834     22.096
REMARK  Name = pdb/CHEMBL3923369.pdb
REMARK                            x       y       z     vdW  Elec       q    Type
REMARK                         _______ _______ _______ _____ _____    ______ ____
ROOT
ATOM      1  C   LIG    1      -22.860  82.314  15.759  0.00  0.00    +0.027 A 
ATOM      2  C   LIG    1      -23.836  81.731  14.944  0.00  0.00    +0.060 A 
ATOM      3  C   LIG    1      -24.022  80.362  15.019  0.00  0.00    +0.157 A 
ATOM      4  N   LIG    1      -23.317  79.573  15.862  0.00  0.00    -0.236 NA
ATOM      5  C   LIG    1      -22.319  80.144  16.565  0.00  0.00    +0.114 A 
ATOM      6  C   LIG    1      -22.027  81.492  16.516  0.00  0.00    +0.031 A 
ENDROOT
BRANCH   1   7
ATOM      7  C   LIG    1      -22.716  83.793  15.763  0.00  0.00    +0.195 C 
ATOM      8  O   LIG    1      -23.077  84.400  16.778  0.00  0.00    -0.287 OA
BRANCH   7  16
ATOM      9  N   LIG    1      -22.114  86.084  12.990  0.00  0.00    -0.343 N 
ATOM     10  C   LIG    1      -21.024  85.262  12.769  0.00  0.00    +0.053 A 
ATOM     11  C   LIG    1      -20.022  85.303  11.791  0.00  0.00    +0.046 A 
ATOM     12  C   LIG    1      -19.056  84.315  11.876  0.00  0.00    +0.113 A 
ATOM     13  N   LIG    1      -19.027  83.350  12.813  0.00  0.00    -0.263 NA
ATOM     14  C   LIG    1      -19.990  83.333  13.764  0.00  0.00    +0.121 A 
ATOM     15  C   LIG    1      -21.034  84.274  13.766  0.00  0.00    +0.029 A 
ATOM     16  C   LIG    1      -22.183  84.511  14.599  0.00  0.00    +0.049 A 
ATOM     17  C   LIG    1      -22.753  85.685  14.132  0.00  0.00    +0.099 A 
BRANCH   9  19
ATOM     18  C   LIG    1      -23.875  86.970  11.435  0.00  0.00    +0.030 C 
ATOM     19  C   LIG    1      -22.524  87.196  12.124  0.00  0.00    +0.081 C 
ATOM     20  C   LIG    1      -22.526  88.529  12.871  0.00  0.00    +0.030 C 
ENDBRANCH   9  19
ENDBRANCH   7  16
ENDBRANCH   1   7
BRANCH   3  21
ATOM     21  N   LIG    1      -24.917  79.720  14.161  0.00  0.00    -0.193 NA
ATOM     22  C   LIG    1      -25.850  78.945  14.610  0.00  0.00    +0.222 C 
BRANCH  22  23
ATOM     23  C   LIG    1      -26.768  78.164  13.750  0.00  0.00    +0.040 A 
ATOM     24  C   LIG    1      -27.298  78.761  12.595  0.00  0.00    +0.059 A 
ATOM     25  C   LIG    1      -28.153  78.040  11.761  0.00  0.00    +0.131 A 
ATOM     26  C   LIG    1      -28.516  76.736  12.120  0.00  0.00    +0.046 A 
ATOM     27  C   LIG    1      -27.987  76.132  13.261  0.00  0.00    +0.004 A 
ATOM     28  C   LIG    1      -27.104  76.840  14.068  0.00  0.00    +0.013 A 
BRANCH  25  29
ATOM     29  O   LIG    1      -28.760  78.501  10.635  0.00  0.00    -0.406 OA
BRANCH  29  30
ATOM     30  C   LIG    1      -30.112  78.939  10.664  0.00  0.00    +0.575 C 
ATOM     31  F   LIG    1      -30.496  79.094  11.950  0.00  0.00    -0.133 F 
ATOM     32  F   LIG    1      -30.884  77.974  10.111  0.00  0.00    -0.133 F 
ATOM     33  F   LIG    1      -30.350  80.086   9.999  0.00  0.00    -0.133 F 
ENDBRANCH  29  30
ENDBRANCH  25  29
ENDBRANCH  22  23
BRANCH  22  34
ATOM     34  O   LIG    1      -26.111  78.745  15.918  0.00  0.00    -0.492 OA
ATOM     35  H   LIG    1      -27.031  79.015  16.099  0.00  0.00    +0.294 HD
ENDBRANCH  22  34
ENDBRANCH   3  21
TORSDOF 8
ENDMDL
MODEL 6
REMARK VINA RESULT:      -6.0      5.354     10.032
REMARK  Name = pdb/CHEMBL3923369.pdb
REMARK                            x       y       z     vdW  Elec       q    Type
REMARK                         _______ _______ _______ _____ _____    ______ ____
ROOT
ATOM      1  C   LIG    1      -24.722  77.595  33.050  0.00  0.00    +0.027 A 
ATOM      2  C   LIG    1      -25.921  76.885  32.930  0.00  0.00    +0.060 A 
ATOM      3  C   LIG    1      -26.447  76.693  31.664  0.00  0.00    +0.157 A 
ATOM      4  N   LIG    1      -25.838  77.141  30.543  0.00  0.00    -0.236 NA
ATOM      5  C   LIG    1      -24.736  77.903  30.693  0.00  0.00    +0.114 A 
ATOM      6  C   LIG    1      -24.169  78.191  31.918  0.00  0.00    +0.031 A 
ENDROOT
BRANCH   1   7
ATOM      7  C   LIG    1      -24.093  77.725  34.390  0.00  0.00    +0.195 C 
ATOM      8  O   LIG    1      -24.708  77.262  35.357  0.00  0.00    -0.287 OA
BRANCH   7  16
ATOM      9  N   LIG    1      -21.369  79.986  35.268  0.00  0.00    -0.343 N 
ATOM     10  C   LIG    1      -20.616  79.096  34.525  0.00  0.00    +0.053 A 
ATOM     11  C   LIG    1      -19.251  79.079  34.214  0.00  0.00    +0.046 A 
ATOM     12  C   LIG    1      -18.820  78.011  33.446  0.00  0.00    +0.113 A 
ATOM     13  N   LIG    1      -19.613  77.020  32.998  0.00  0.00    -0.263 NA
ATOM     14  C   LIG    1      -20.927  77.037  33.321  0.00  0.00    +0.121 A 
ATOM     15  C   LIG    1      -21.481  78.084  34.079  0.00  0.00    +0.029 A 
ATOM     16  C   LIG    1      -22.799  78.397  34.563  0.00  0.00    +0.049 A 
ATOM     17  C   LIG    1      -22.653  79.521  35.362  0.00  0.00    +0.099 A 
BRANCH   9  19
ATOM     18  C   LIG    1      -21.971  82.269  36.121  0.00  0.00    +0.030 C 
ATOM     19  C   LIG    1      -20.869  81.238  35.848  0.00  0.00    +0.081 C 
ATOM     20  C   LIG    1      -20.048  80.991  37.114  0.00  0.00    +0.030 C 
ENDBRANCH   9  19
ENDBRANCH   7  16
ENDBRANCH   1   7
BRANCH   3  21
ATOM     21  N   LIG    1      -27.687  76.073  31.499  0.00  0.00    -0.193 NA
ATOM     22  C   LIG    1      -28.774  76.760  31.360  0.00  0.00    +0.222 C 
BRANCH  22  23
ATOM     23  C   LIG    1      -30.129  76.165  31.276  0.00  0.00    +0.040 A 
ATOM     24  C   LIG    1      -30.729  76.007  30.016  0.00  0.00    +0.059 A 
ATOM     25  C   LIG    1      -31.997  75.436  29.910  0.00  0.00    +0.131 A 
ATOM     26  C   LIG    1      -32.682  75.073  31.077  0.00  0.00    +0.046 A 
ATOM     27  C   LIG    1      -32.089  75.217  32.331  0.00  0.00    +0.004 A 
ATOM     28  C   LIG    1      -30.808  75.751  32.430  0.00  0.00    +0.013 A 
BRANCH  25  29
ATOM     29  O   LIG    1      -32.707  75.254  28.764  0.00  0.00    -0.406 OA
BRANCH  29  30
ATOM     30  C   LIG    1      -33.190  76.366  28.022  0.00  0.00    +0.575 C 
ATOM     31  F   LIG    1      -33.637  77.307  28.882  0.00  0.00    -0.133 F 
ATOM     32  F   LIG    1      -34.238  75.955  27.272  0.00  0.00    -0.133 F 
ATOM     33  F   LIG    1      -32.288  76.929  27.195  0.00  0.00    -0.133 F 
ENDBRANCH  29  30
ENDBRANCH  25  29
ENDBRANCH  22  23
BRANCH  22  34
ATOM     34  O   LIG    1      -28.822  78.104  31.274  0.00  0.00    -0.492 OA
ATOM     35  H   LIG    1      -27.909  78.449  31.236  0.00  0.00    +0.294 HD
ENDBRANCH  22  34
ENDBRANCH   3  21
TORSDOF 8
ENDMDL
MODEL 7
REMARK VINA RESULT:      -6.0     13.576     17.370
REMARK  Name = pdb/CHEMBL3923369.pdb
REMARK                            x       y       z     vdW  Elec       q    Type
REMARK                         _______ _______ _______ _____ _____    ______ ____
ROOT
ATOM      1  C   LIG    1      -38.341  72.029  26.074  0.00  0.00    +0.027 A 
ATOM      2  C   LIG    1      -37.227  72.835  26.330  0.00  0.00    +0.060 A 
ATOM      3  C   LIG    1      -36.734  72.883  27.622  0.00  0.00    +0.157 A 
ATOM      4  N   LIG    1      -37.269  72.165  28.636  0.00  0.00    -0.236 NA
ATOM      5  C   LIG    1      -38.396  71.472  28.384  0.00  0.00    +0.114 A 
ATOM      6  C   LIG    1      -38.990  71.407  27.139  0.00  0.00    +0.031 A 
ENDROOT
BRANCH   1   7
ATOM      7  C   LIG    1      -38.822  71.889  24.675  0.00  0.00    +0.195 C 
ATOM      8  O   LIG    1      -38.285  71.028  23.969  0.00  0.00    -0.287 OA
BRANCH   7  16
ATOM      9  N   LIG    1      -41.810  73.263  23.097  0.00  0.00    -0.343 N 
ATOM     10  C   LIG    1      -41.231  74.470  23.443  0.00  0.00    +0.053 A 
ATOM     11  C   LIG    1      -41.661  75.788  23.244  0.00  0.00    +0.046 A 
ATOM     12  C   LIG    1      -40.828  76.776  23.741  0.00  0.00    +0.113 A 
ATOM     13  N   LIG    1      -39.668  76.548  24.385  0.00  0.00    -0.263 NA
ATOM     14  C   LIG    1      -39.273  75.269  24.588  0.00  0.00    +0.121 A 
ATOM     15  C   LIG    1      -40.028  74.185  24.108  0.00  0.00    +0.029 A 
ATOM     16  C   LIG    1      -39.882  72.754  24.142  0.00  0.00    +0.049 A 
ATOM     17  C   LIG    1      -41.046  72.241  23.592  0.00  0.00    +0.099 A 
BRANCH   9  19
ATOM     18  C   LIG    1      -42.916  72.085  21.176  0.00  0.00    +0.030 C 
ATOM     19  C   LIG    1      -43.039  73.109  22.311  0.00  0.00    +0.081 C 
ATOM     20  C   LIG    1      -44.243  72.780  23.193  0.00  0.00    +0.030 C 
ENDBRANCH   9  19
ENDBRANCH   7  16
ENDBRANCH   1   7
BRANCH   3  21
ATOM     21  N   LIG    1      -35.685  73.745  27.948  0.00  0.00    -0.193 NA
ATOM     22  C   LIG    1      -34.493  73.302  28.183  0.00  0.00    +0.222 C 
BRANCH  22  23
ATOM     23  C   LIG    1      -33.362  74.150  28.625  0.00  0.00    +0.040 A 
ATOM     24  C   LIG    1      -33.352  75.512  28.278  0.00  0.00    +0.059 A 
ATOM     25  C   LIG    1      -32.306  76.334  28.696  0.00  0.00    +0.131 A 
ATOM     26  C   LIG    1      -31.244  75.774  29.417  0.00  0.00    +0.046 A 
ATOM     27  C   LIG    1      -31.251  74.426  29.774  0.00  0.00    +0.004 A 
ATOM     28  C   LIG    1      -32.315  73.617  29.389  0.00  0.00    +0.013 A 
BRANCH  25  29
ATOM     29  O   LIG    1      -32.153  77.654  28.407  0.00  0.00    -0.406 OA
BRANCH  29  30
ATOM     30  C   LIG    1      -32.357  78.139  27.087  0.00  0.00    +0.575 C 
ATOM     31  F   LIG    1      -33.662  77.999  26.764  0.00  0.00    -0.133 F 
ATOM     32  F   LIG    1      -31.633  77.376  26.236  0.00  0.00    -0.133 F 
ATOM     33  F   LIG    1      -31.999  79.423  26.893  0.00  0.00    -0.133 F 
ENDBRANCH  29  30
ENDBRANCH  25  29
ENDBRANCH  22  23
BRANCH  22  34
ATOM     34  O   LIG    1      -34.120  72.012  28.059  0.00  0.00    -0.492 OA
ATOM     35  H   LIG    1      -34.457  71.669  27.209  0.00  0.00    +0.294 HD
ENDBRANCH  22  34
ENDBRANCH   3  21
TORSDOF 8
ENDMDL
MODEL 8
REMARK VINA RESULT:      -6.0     21.266     23.748
REMARK  Name = pdb/CHEMBL3923369.pdb
REMARK                            x       y       z     vdW  Elec       q    Type
REMARK                         _______ _______ _______ _____ _____    ______ ____
ROOT
ATOM      1  C   LIG    1      -22.126  87.971  12.114  0.00  0.00    +0.027 A 
ATOM      2  C   LIG    1      -22.680  86.824  12.692  0.00  0.00    +0.060 A 
ATOM      3  C   LIG    1      -22.183  86.396  13.909  0.00  0.00    +0.157 A 
ATOM      4  N   LIG    1      -21.203  87.053  14.571  0.00  0.00    -0.236 NA
ATOM      5  C   LIG    1      -20.620  88.097  13.949  0.00  0.00    +0.114 A 
ATOM      6  C   LIG    1      -21.015  88.564  12.712  0.00  0.00    +0.031 A 
ENDROOT
BRANCH   1   7
ATOM      7  C   LIG    1      -22.715  88.501  10.857  0.00  0.00    +0.195 C 
ATOM      8  O   LIG    1      -22.866  87.710   9.918  0.00  0.00    -0.287 OA
BRANCH   7  16
ATOM      9  N   LIG    1      -22.868  92.061  10.078  0.00  0.00    -0.343 N 
ATOM     10  C   LIG    1      -24.031  92.001  10.825  0.00  0.00    +0.053 A 
ATOM     11  C   LIG    1      -24.957  92.994  11.168  0.00  0.00    +0.046 A 
ATOM     12  C   LIG    1      -26.036  92.575  11.928  0.00  0.00    +0.113 A 
ATOM     13  N   LIG    1      -26.237  91.310  12.342  0.00  0.00    -0.263 NA
ATOM     14  C   LIG    1      -25.344  90.357  11.988  0.00  0.00    +0.121 A 
ATOM     15  C   LIG    1      -24.199  90.669  11.235  0.00  0.00    +0.029 A 
ATOM     16  C   LIG    1      -23.085  89.915  10.724  0.00  0.00    +0.049 A 
ATOM     17  C   LIG    1      -22.353  90.800   9.947  0.00  0.00    +0.099 A 
BRANCH   9  19
ATOM     18  C   LIG    1      -20.910  93.631  10.134  0.00  0.00    +0.030 C 
ATOM     19  C   LIG    1      -22.277  93.287   9.530  0.00  0.00    +0.081 C 
ATOM     20  C   LIG    1      -22.188  93.244   8.005  0.00  0.00    +0.030 C 
ENDBRANCH   9  19
ENDBRANCH   7  16
ENDBRANCH   1   7
BRANCH   3  21
ATOM     21  N   LIG    1      -22.637  85.206  14.482  0.00  0.00    -0.193 NA
ATOM     22  C   LIG    1      -21.868  84.174  14.599  0.00  0.00    +0.222 C 
BRANCH  22  23
ATOM     23  C   LIG    1      -22.315  82.856  15.109  0.00  0.00    +0.040 A 
ATOM     24  C   LIG    1      -23.559  82.350  14.698  0.00  0.00    +0.059 A 
ATOM     25  C   LIG    1      -23.994  81.105  15.152  0.00  0.00    +0.131 A 
ATOM     26  C   LIG    1      -23.200  80.395  16.061  0.00  0.00    +0.046 A 
ATOM     27  C   LIG    1      -21.959  80.885  16.467  0.00  0.00    +0.004 A 
ATOM     28  C   LIG    1      -21.511  82.109  15.981  0.00  0.00    +0.013 A 
BRANCH  25  29
ATOM     29  O   LIG    1      -25.183  80.511  14.863  0.00  0.00    -0.406 OA
BRANCH  29  30
ATOM     30  C   LIG    1      -25.469  80.059  13.546  0.00  0.00    +0.575 C 
ATOM     31  F   LIG    1      -26.442  79.123  13.605  0.00  0.00    -0.133 F 
ATOM     32  F   LIG    1      -24.357  79.472  13.046  0.00  0.00    -0.133 F 
ATOM     33  F   LIG    1      -25.847  81.023  12.686  0.00  0.00    -0.133 F 
ENDBRANCH  29  30
ENDBRANCH  25  29
ENDBRANCH  22  23
BRANCH  22  34
ATOM     34  O   LIG    1      -20.559  84.156  14.275  0.00  0.00    -0.492 OA
ATOM     35  H   LIG    1      -20.455  84.512  13.372  0.00  0.00    +0.294 HD
ENDBRANCH  22  34
ENDBRANCH   3  21
TORSDOF 8
ENDMDL
MODEL 9
REMARK VINA RESULT:      -5.9      1.746      2.026
REMARK  Name = pdb/CHEMBL3923369.pdb
REMARK                            x       y       z     vdW  Elec       q    Type
REMARK                         _______ _______ _______ _____ _____    ______ ____
ROOT
ATOM      1  C   LIG    1      -20.828  76.970  30.809  0.00  0.00    +0.027 A 
ATOM      2  C   LIG    1      -21.194  77.887  31.799  0.00  0.00    +0.060 A 
ATOM      3  C   LIG    1      -20.193  78.495  32.535  0.00  0.00    +0.157 A 
ATOM      4  N   LIG    1      -18.879  78.256  32.319  0.00  0.00    -0.236 NA
ATOM      5  C   LIG    1      -18.556  77.299  31.428  0.00  0.00    +0.114 A 
ATOM      6  C   LIG    1      -19.489  76.603  30.685  0.00  0.00    +0.031 A 
ENDROOT
BRANCH   1   7
ATOM      7  C   LIG    1      -21.884  76.383  29.944  0.00  0.00    +0.195 C 
ATOM      8  O   LIG    1      -21.720  76.444  28.720  0.00  0.00    -0.287 OA
BRANCH   7  16
ATOM      9  N   LIG    1      -24.396  74.114  31.303  0.00  0.00    -0.343 N 
ATOM     10  C   LIG    1      -25.161  75.265  31.356  0.00  0.00    +0.053 A 
ATOM     11  C   LIG    1      -26.475  75.478  31.791  0.00  0.00    +0.046 A 
ATOM     12  C   LIG    1      -26.930  76.784  31.721  0.00  0.00    +0.113 A 
ATOM     13  N   LIG    1      -26.203  77.825  31.274  0.00  0.00    -0.263 NA
ATOM     14  C   LIG    1      -24.928  77.610  30.875  0.00  0.00    +0.121 A 
ATOM     15  C   LIG    1      -24.367  76.321  30.882  0.00  0.00    +0.029 A 
ATOM     16  C   LIG    1      -23.088  75.770  30.519  0.00  0.00    +0.049 A 
ATOM     17  C   LIG    1      -23.133  74.434  30.884  0.00  0.00    +0.099 A 
BRANCH   9  19
ATOM     18  C   LIG    1      -24.473  71.707  30.593  0.00  0.00    +0.030 C 
ATOM     19  C   LIG    1      -24.874  72.766  31.628  0.00  0.00    +0.081 C 
ATOM     20  C   LIG    1      -24.440  72.329  33.027  0.00  0.00    +0.030 C 
ENDBRANCH   9  19
ENDBRANCH   7  16
ENDBRANCH   1   7
BRANCH   3  21
ATOM     21  N   LIG    1      -20.510  79.346  33.595  0.00  0.00    -0.193 NA
ATOM     22  C   LIG    1      -20.614  78.908  34.807  0.00  0.00    +0.222 C 
BRANCH  22  23
ATOM     23  C   LIG    1      -21.039  79.739  35.958  0.00  0.00    +0.040 A 
ATOM     24  C   LIG    1      -20.716  81.106  35.972  0.00  0.00    +0.059 A 
ATOM     25  C   LIG    1      -21.118  81.911  37.037  0.00  0.00    +0.131 A 
ATOM     26  C   LIG    1      -21.800  81.329  38.113  0.00  0.00    +0.046 A 
ATOM     27  C   LIG    1      -22.133  79.975  38.104  0.00  0.00    +0.004 A 
ATOM     28  C   LIG    1      -21.764  79.183  37.021  0.00  0.00    +0.013 A 
BRANCH  25  29
ATOM     29  O   LIG    1      -20.848  83.235  37.195  0.00  0.00    -0.406 OA
BRANCH  29  30
ATOM     30  C   LIG    1      -19.953  83.680  38.206  0.00  0.00    +0.575 C 
ATOM     31  F   LIG    1      -19.212  84.699  37.719  0.00  0.00    -0.133 F 
ATOM     32  F   LIG    1      -19.115  82.663  38.510  0.00  0.00    -0.133 F 
ATOM     33  F   LIG    1      -20.544  84.081  39.348  0.00  0.00    -0.133 F 
ENDBRANCH  29  30
ENDBRANCH  25  29
ENDBRANCH  22  23
BRANCH  22  34
ATOM     34  O   LIG    1      -20.352  77.641  35.186  0.00  0.00    -0.492 OA
ATOM     35  H   LIG    1      -19.563  77.643  35.762  0.00  0.00    +0.294 HD
ENDBRANCH  22  34
ENDBRANCH   3  21
TORSDOF 8
ENDMDL
