MODEL 1
REMARK VINA RESULT:      -5.7      0.000      0.000
REMARK  Name = pdb/CHEMBL254895.pdb
REMARK                            x       y       z     vdW  Elec       q    Type
REMARK                         _______ _______ _______ _____ _____    ______ ____
ROOT
ATOM      1  C   LIG    1      -40.203  69.474  24.004  0.00  0.00    +0.044 C 
ATOM      2  C   LIG    1      -40.098  70.979  23.916  0.00  0.00    -0.038 A 
ATOM      3  C   LIG    1      -39.018  71.770  24.387  0.00  0.00    +0.041 A 
ATOM      4  C   LIG    1      -39.298  73.150  24.410  0.00  0.00    +0.028 A 
ATOM      5  C   LIG    1      -40.444  73.783  23.913  0.00  0.00    +0.014 A 
ATOM      6  C   LIG    1      -41.417  73.001  23.346  0.00  0.00    +0.015 A 
ATOM      7  C   LIG    1      -41.255  71.619  23.369  0.00  0.00    +0.005 A 
ENDROOT
BRANCH   3   8
ATOM      8  C   LIG    1      -37.608  71.197  24.781  0.00  0.00    +0.247 C 
ATOM      9  N   LIG    1      -37.284  70.735  26.113  0.00  0.00    -0.295 N 
ATOM     10  C   LIG    1      -35.853  70.755  26.553  0.00  0.00    +0.127 C 
ATOM     11  C   LIG    1      -35.611  70.095  27.951  0.00  0.00    +0.127 C 
ATOM     12  N   LIG    1      -36.578  70.628  28.921  0.00  0.00    -0.297 N 
ATOM     13  C   LIG    1      -36.303  71.863  29.516  0.00  0.00    +0.229 C 
ATOM     14  O   LIG    1      -35.149  72.209  29.771  0.00  0.00    -0.274 OA
ATOM     15  C   LIG    1      -37.904  70.217  28.579  0.00  0.00    +0.127 C 
ATOM     16  C   LIG    1      -38.251  70.754  27.198  0.00  0.00    +0.127 C 
ATOM     17  O   LIG    1      -36.747  71.205  23.915  0.00  0.00    -0.270 OA
BRANCH  13  18
ATOM     18  C   LIG    1      -37.499  72.840  29.770  0.00  0.00    +0.174 C 
BRANCH  18  19
ATOM     19  N   LIG    1      -37.056  74.213  29.503  0.00  0.00    -0.322 NA
ATOM     20  H   LIG    1      -37.538  74.850  30.134  0.00  0.00    +0.119 HD
ATOM     21  H   LIG    1      -36.057  74.269  29.726  0.00  0.00    +0.119 HD
ENDBRANCH  18  19
ENDBRANCH  13  18
ENDBRANCH   3   8
BRANCH   5  22
ATOM     22  S   LIG    1      -40.626  75.551  24.160  0.00  0.00    -0.081 S 
BRANCH  22  23
ATOM     23  C   LIG    1      -39.080  75.913  24.883  0.00  0.00    +0.071 A 
ATOM     24  S   LIG    1      -38.767  75.737  26.533  0.00  0.00    -0.045 S 
ATOM     25  C   LIG    1      -37.097  76.151  26.316  0.00  0.00    +0.164 A 
ATOM     26  N   LIG    1      -36.843  76.572  25.089  0.00  0.00    -0.232 NA
ATOM     27  C   LIG    1      -37.965  76.442  24.277  0.00  0.00    +0.135 A 
BRANCH  25  28
ATOM     28  N   LIG    1      -36.155  76.116  27.303  0.00  0.00    -0.279 N 
ATOM     29  H   LIG    1      -36.494  75.828  28.216  0.00  0.00    +0.155 HD
BRANCH  28  30
ATOM     30  C   LIG    1      -35.074  77.007  27.476  0.00  0.00    +0.126 A 
ATOM     31  N   LIG    1      -35.366  78.283  27.811  0.00  0.00    -0.225 NA
ATOM     32  C   LIG    1      -34.332  79.149  28.007  0.00  0.00    +0.108 A 
ATOM     33 BR   LIG    1      -34.739  80.958  28.414  0.00  0.00    -0.029 Br
ATOM     34  C   LIG    1      -32.993  78.800  27.921  0.00  0.00    +0.035 A 
ATOM     35  C   LIG    1      -32.695  77.499  27.583  0.00  0.00    +0.006 A 
ATOM     36  C   LIG    1      -33.739  76.613  27.357  0.00  0.00    +0.044 A 
ENDBRANCH  28  30
ENDBRANCH  25  28
ENDBRANCH  22  23
ENDBRANCH   5  22
TORSDOF 7
ENDMDL
MODEL 2
REMARK VINA RESULT:      -5.7      2.526      3.922
REMARK  Name = pdb/CHEMBL254895.pdb
REMARK                            x       y       z     vdW  Elec       q    Type
REMARK                         _______ _______ _______ _____ _____    ______ ____
ROOT
ATOM      1  C   LIG    1      -44.274  72.869  25.008  0.00  0.00    +0.044 C 
ATOM      2  C   LIG    1      -43.293  73.897  24.496  0.00  0.00    -0.038 A 
ATOM      3  C   LIG    1      -42.157  73.637  23.687  0.00  0.00    +0.041 A 
ATOM      4  C   LIG    1      -41.282  74.735  23.575  0.00  0.00    +0.028 A 
ATOM      5  C   LIG    1      -41.492  76.030  24.062  0.00  0.00    +0.014 A 
ATOM      6  C   LIG    1      -42.662  76.284  24.732  0.00  0.00    +0.015 A 
ATOM      7  C   LIG    1      -43.537  75.227  24.964  0.00  0.00    +0.005 A 
ENDROOT
BRANCH   3   8
ATOM      8  C   LIG    1      -41.910  72.289  22.915  0.00  0.00    +0.247 C 
ATOM      9  N   LIG    1      -41.077  71.224  23.430  0.00  0.00    -0.295 N 
ATOM     10  C   LIG    1      -40.439  70.279  22.461  0.00  0.00    +0.127 C 
ATOM     11  C   LIG    1      -39.689  69.085  23.140  0.00  0.00    +0.127 C 
ATOM     12  N   LIG    1      -38.807  69.597  24.198  0.00  0.00    -0.297 N 
ATOM     13  C   LIG    1      -37.557  70.102  23.827  0.00  0.00    +0.229 C 
ATOM     14  O   LIG    1      -36.924  69.621  22.886  0.00  0.00    -0.274 OA
ATOM     15  C   LIG    1      -39.579  70.159  25.262  0.00  0.00    +0.127 C 
ATOM     16  C   LIG    1      -40.409  71.312  24.718  0.00  0.00    +0.127 C 
ATOM     17  O   LIG    1      -42.411  72.187  21.807  0.00  0.00    -0.270 OA
BRANCH  13  18
ATOM     18  C   LIG    1      -37.016  71.359  24.587  0.00  0.00    +0.174 C 
BRANCH  18  19
ATOM     19  N   LIG    1      -35.644  71.091  25.033  0.00  0.00    -0.322 NA
ATOM     20  H   LIG    1      -35.670  70.611  25.930  0.00  0.00    +0.119 HD
ATOM     21  H   LIG    1      -35.217  70.445  24.361  0.00  0.00    +0.119 HD
ENDBRANCH  18  19
ENDBRANCH  13  18
ENDBRANCH   3   8
BRANCH   5  22
ATOM     22  S   LIG    1      -40.175  77.237  23.896  0.00  0.00    -0.081 S 
BRANCH  22  23
ATOM     23  C   LIG    1      -39.072  76.647  25.112  0.00  0.00    +0.071 A 
ATOM     24  S   LIG    1      -37.527  76.067  24.756  0.00  0.00    -0.045 S 
ATOM     25  C   LIG    1      -37.157  75.861  26.437  0.00  0.00    +0.164 A 
ATOM     26  N   LIG    1      -38.214  76.052  27.207  0.00  0.00    -0.232 NA
ATOM     27  C   LIG    1      -39.301  76.493  26.459  0.00  0.00    +0.135 A 
BRANCH  25  28
ATOM     28  N   LIG    1      -35.939  75.481  26.922  0.00  0.00    -0.279 N 
ATOM     29  H   LIG    1      -35.945  74.652  27.510  0.00  0.00    +0.155 HD
BRANCH  28  30
ATOM     30  C   LIG    1      -34.889  76.328  27.335  0.00  0.00    +0.126 A 
ATOM     31  N   LIG    1      -35.132  77.656  27.357  0.00  0.00    -0.225 NA
ATOM     32  C   LIG    1      -34.137  78.486  27.779  0.00  0.00    +0.108 A 
ATOM     33 BR   LIG    1      -34.453  80.358  27.750  0.00  0.00    -0.029 Br
ATOM     34  C   LIG    1      -32.896  78.055  28.223  0.00  0.00    +0.035 A 
ATOM     35  C   LIG    1      -32.648  76.701  28.204  0.00  0.00    +0.006 A 
ATOM     36  C   LIG    1      -33.646  75.847  27.754  0.00  0.00    +0.044 A 
ENDBRANCH  28  30
ENDBRANCH  25  28
ENDBRANCH  22  23
ENDBRANCH   5  22
TORSDOF 7
ENDMDL
MODEL 3
REMARK VINA RESULT:      -5.5     19.693     22.513
REMARK  Name = pdb/CHEMBL254895.pdb
REMARK                            x       y       z     vdW  Elec       q    Type
REMARK                         _______ _______ _______ _____ _____    ______ ____
ROOT
ATOM      1  C   LIG    1      -22.423  82.201  16.762  0.00  0.00    +0.044 C 
ATOM      2  C   LIG    1      -22.159  83.162  15.626  0.00  0.00    -0.038 A 
ATOM      3  C   LIG    1      -21.376  82.896  14.473  0.00  0.00    +0.041 A 
ATOM      4  C   LIG    1      -21.087  84.044  13.710  0.00  0.00    +0.028 A 
ATOM      5  C   LIG    1      -21.588  85.335  13.914  0.00  0.00    +0.014 A 
ATOM      6  C   LIG    1      -22.447  85.535  14.965  0.00  0.00    +0.015 A 
ATOM      7  C   LIG    1      -22.709  84.469  15.820  0.00  0.00    +0.005 A 
ENDROOT
BRANCH   3   8
ATOM      8  C   LIG    1      -20.925  81.458  14.022  0.00  0.00    +0.247 C 
ATOM      9  N   LIG    1      -21.845  80.459  13.523  0.00  0.00    -0.295 N 
ATOM     10  C   LIG    1      -21.481  79.014  13.661  0.00  0.00    +0.127 C 
ATOM     11  C   LIG    1      -22.480  78.039  12.953  0.00  0.00    +0.127 C 
ATOM     12  N   LIG    1      -23.856  78.384  13.333  0.00  0.00    -0.297 N 
ATOM     13  C   LIG    1      -24.341  77.908  14.556  0.00  0.00    +0.229 C 
ATOM     14  O   LIG    1      -23.996  76.812  15.000  0.00  0.00    -0.274 OA
ATOM     15  C   LIG    1      -24.211  79.667  12.812  0.00  0.00    +0.127 C 
ATOM     16  C   LIG    1      -23.269  80.714  13.386  0.00  0.00    +0.127 C 
ATOM     17  O   LIG    1      -19.744  81.180  14.164  0.00  0.00    -0.270 OA
BRANCH  13  18
ATOM     18  C   LIG    1      -25.273  78.847  15.393  0.00  0.00    +0.174 C 
BRANCH  18  19
ATOM     19  N   LIG    1      -26.641  78.317  15.352  0.00  0.00    -0.322 NA
ATOM     20  H   LIG    1      -26.617  77.314  15.521  0.00  0.00    +0.119 HD
ATOM     21  H   LIG    1      -27.163  78.739  16.127  0.00  0.00    +0.119 HD
ENDBRANCH  18  19
ENDBRANCH  13  18
ENDBRANCH   3   8
BRANCH   5  22
ATOM     22  S   LIG    1      -20.983  86.667  12.875  0.00  0.00    -0.081 S 
BRANCH  22  23
ATOM     23  C   LIG    1      -22.479  87.173  12.134  0.00  0.00    +0.071 A 
ATOM     24  S   LIG    1      -23.122  88.724  12.312  0.00  0.00    -0.045 S 
ATOM     25  C   LIG    1      -24.416  88.373  11.213  0.00  0.00    +0.164 A 
ATOM     26  N   LIG    1      -24.453  87.096  10.877  0.00  0.00    -0.232 NA
ATOM     27  C   LIG    1      -23.360  86.412  11.401  0.00  0.00    +0.135 A 
BRANCH  25  28
ATOM     28  N   LIG    1      -25.339  89.284  10.787  0.00  0.00    -0.279 N 
ATOM     29  H   LIG    1      -25.619  89.195   9.814  0.00  0.00    +0.155 HD
BRANCH  28  30
ATOM     30  C   LIG    1      -25.431  90.640  11.168  0.00  0.00    +0.126 A 
ATOM     31  N   LIG    1      -26.198  90.935  12.240  0.00  0.00    -0.225 NA
ATOM     32  C   LIG    1      -26.277  92.236  12.636  0.00  0.00    +0.108 A 
ATOM     33 BR   LIG    1      -27.405  92.664  14.103  0.00  0.00    -0.029 Br
ATOM     34  C   LIG    1      -25.591  93.280  12.033  0.00  0.00    +0.035 A 
ATOM     35  C   LIG    1      -24.807  92.980  10.942  0.00  0.00    +0.006 A 
ATOM     36  C   LIG    1      -24.738  91.661  10.514  0.00  0.00    +0.044 A 
ENDBRANCH  28  30
ENDBRANCH  25  28
ENDBRANCH  22  23
ENDBRANCH   5  22
TORSDOF 7
ENDMDL
MODEL 4
REMARK VINA RESULT:      -5.5     20.197     23.823
REMARK  Name = pdb/CHEMBL254895.pdb
REMARK                            x       y       z     vdW  Elec       q    Type
REMARK                         _______ _______ _______ _____ _____    ______ ____
ROOT
ATOM      1  C   LIG    1      -18.688  84.863  10.155  0.00  0.00    +0.044 C 
ATOM      2  C   LIG    1      -18.537  84.011  11.394  0.00  0.00    -0.038 A 
ATOM      3  C   LIG    1      -18.381  84.487  12.721  0.00  0.00    +0.041 A 
ATOM      4  C   LIG    1      -18.005  83.486  13.638  0.00  0.00    +0.028 A 
ATOM      5  C   LIG    1      -17.902  82.113  13.387  0.00  0.00    +0.014 A 
ATOM      6  C   LIG    1      -18.183  81.666  12.122  0.00  0.00    +0.015 A 
ATOM      7  C   LIG    1      -18.474  82.604  11.136  0.00  0.00    +0.005 A 
ENDROOT
BRANCH   3   8
ATOM      8  C   LIG    1      -18.669  85.966  13.170  0.00  0.00    +0.247 C 
ATOM      9  N   LIG    1      -19.961  86.412  13.645  0.00  0.00    -0.295 N 
ATOM     10  C   LIG    1      -20.318  87.858  13.504  0.00  0.00    +0.127 C 
ATOM     11  C   LIG    1      -21.672  88.246  14.187  0.00  0.00    +0.127 C 
ATOM     12  N   LIG    1      -22.716  87.294  13.784  0.00  0.00    -0.297 N 
ATOM     13  C   LIG    1      -23.345  87.489  12.550  0.00  0.00    +0.229 C 
ATOM     14  O   LIG    1      -23.547  88.619  12.105  0.00  0.00    -0.274 OA
ATOM     15  C   LIG    1      -22.435  85.994  14.308  0.00  0.00    +0.127 C 
ATOM     16  C   LIG    1      -21.099  85.515  13.758  0.00  0.00    +0.127 C 
ATOM     17  O   LIG    1      -17.756  86.768  13.048  0.00  0.00    -0.270 OA
BRANCH  13  18
ATOM     18  C   LIG    1      -23.707  86.224  11.702  0.00  0.00    +0.174 C 
BRANCH  18  19
ATOM     19  N   LIG    1      -25.093  85.840  11.992  0.00  0.00    -0.322 NA
ATOM     20  H   LIG    1      -25.683  86.089  11.201  0.00  0.00    +0.119 HD
ATOM     21  H   LIG    1      -25.124  84.819  12.078  0.00  0.00    +0.119 HD
ENDBRANCH  18  19
ENDBRANCH  13  18
ENDBRANCH   3   8
BRANCH   5  22
ATOM     22  S   LIG    1      -17.289  81.043  14.692  0.00  0.00    -0.081 S 
BRANCH  22  23
ATOM     23  C   LIG    1      -18.798  80.589  15.439  0.00  0.00    +0.071 A 
ATOM     24  S   LIG    1      -20.102  81.649  15.609  0.00  0.00    -0.045 S 
ATOM     25  C   LIG    1      -21.104  80.397  16.267  0.00  0.00    +0.164 A 
ATOM     26  N   LIG    1      -20.426  79.289  16.509  0.00  0.00    -0.232 NA
ATOM     27  C   LIG    1      -19.118  79.396  16.045  0.00  0.00    +0.135 A 
BRANCH  25  28
ATOM     28  N   LIG    1      -22.428  80.542  16.569  0.00  0.00    -0.279 N 
ATOM     29  H   LIG    1      -22.682  80.317  17.527  0.00  0.00    +0.155 HD
BRANCH  28  30
ATOM     30  C   LIG    1      -23.526  80.263  15.727  0.00  0.00    +0.126 A 
ATOM     31  N   LIG    1      -23.769  81.125  14.716  0.00  0.00    -0.225 NA
ATOM     32  C   LIG    1      -24.810  80.856  13.878  0.00  0.00    +0.108 A 
ATOM     33 BR   LIG    1      -25.196  82.098  12.495  0.00  0.00    -0.029 Br
ATOM     34  C   LIG    1      -25.619  79.733  13.971  0.00  0.00    +0.035 A 
ATOM     35  C   LIG    1      -25.369  78.853  15.000  0.00  0.00    +0.006 A 
ATOM     36  C   LIG    1      -24.326  79.128  15.874  0.00  0.00    +0.044 A 
ENDBRANCH  28  30
ENDBRANCH  25  28
ENDBRANCH  22  23
ENDBRANCH   5  22
TORSDOF 7
ENDMDL
MODEL 5
REMARK VINA RESULT:      -5.4     14.230     19.077
REMARK  Name = pdb/CHEMBL254895.pdb
REMARK                            x       y       z     vdW  Elec       q    Type
REMARK                         _______ _______ _______ _____ _____    ______ ____
ROOT
ATOM      1  C   LIG    1      -19.172  79.671  38.150  0.00  0.00    +0.044 C 
ATOM      2  C   LIG    1      -18.747  79.457  36.716  0.00  0.00    -0.038 A 
ATOM      3  C   LIG    1      -19.540  79.700  35.565  0.00  0.00    +0.041 A 
ATOM      4  C   LIG    1      -18.991  79.172  34.380  0.00  0.00    +0.028 A 
ATOM      5  C   LIG    1      -17.735  78.573  34.231  0.00  0.00    +0.014 A 
ATOM      6  C   LIG    1      -16.936  78.467  35.340  0.00  0.00    +0.015 A 
ATOM      7  C   LIG    1      -17.445  78.882  36.567  0.00  0.00    +0.005 A 
ENDROOT
BRANCH   3   8
ATOM      8  C   LIG    1      -20.870  80.540  35.568  0.00  0.00    +0.247 C 
ATOM      9  N   LIG    1      -22.135  80.018  36.037  0.00  0.00    -0.295 N 
ATOM     10  C   LIG    1      -23.401  80.612  35.502  0.00  0.00    +0.127 C 
ATOM     11  C   LIG    1      -24.696  80.071  36.194  0.00  0.00    +0.127 C 
ATOM     12  N   LIG    1      -24.655  78.603  36.235  0.00  0.00    -0.297 N 
ATOM     13  C   LIG    1      -25.037  77.900  35.089  0.00  0.00    +0.229 C 
ATOM     14  O   LIG    1      -25.925  78.320  34.345  0.00  0.00    -0.274 OA
ATOM     15  C   LIG    1      -23.603  78.158  37.096  0.00  0.00    +0.127 C 
ATOM     16  C   LIG    1      -22.274  78.669  36.560  0.00  0.00    +0.127 C 
ATOM     17  O   LIG    1      -20.814  81.664  35.093  0.00  0.00    -0.270 OA
BRANCH  13  18
ATOM     18  C   LIG    1      -24.243  76.601  34.723  0.00  0.00    +0.174 C 
BRANCH  18  19
ATOM     19  N   LIG    1      -23.132  76.959  33.834  0.00  0.00    -0.322 NA
ATOM     20  H   LIG    1      -22.410  76.245  33.895  0.00  0.00    +0.119 HD
ATOM     21  H   LIG    1      -23.485  76.947  32.871  0.00  0.00    +0.119 HD
ENDBRANCH  18  19
ENDBRANCH  13  18
ENDBRANCH   3   8
BRANCH   5  22
ATOM     22  S   LIG    1      -17.301  77.869  32.638  0.00  0.00    -0.081 S 
BRANCH  22  23
ATOM     23  C   LIG    1      -18.810  77.097  32.230  0.00  0.00    +0.071 A 
ATOM     24  S   LIG    1      -19.784  77.590  30.941  0.00  0.00    -0.045 S 
ATOM     25  C   LIG    1      -20.886  76.277  31.199  0.00  0.00    +0.164 A 
ATOM     26  N   LIG    1      -20.621  75.615  32.312  0.00  0.00    -0.232 NA
ATOM     27  C   LIG    1      -19.449  76.080  32.900  0.00  0.00    +0.135 A 
BRANCH  25  28
ATOM     28  N   LIG    1      -21.948  75.987  30.393  0.00  0.00    -0.279 N 
ATOM     29  H   LIG    1      -21.756  76.013  29.396  0.00  0.00    +0.155 HD
BRANCH  28  30
ATOM     30  C   LIG    1      -23.298  76.340  30.609  0.00  0.00    +0.126 A 
ATOM     31  N   LIG    1      -24.107  75.405  31.152  0.00  0.00    -0.225 NA
ATOM     32  C   LIG    1      -25.406  75.739  31.391  0.00  0.00    +0.108 A 
ATOM     33 BR   LIG    1      -26.563  74.407  32.095  0.00  0.00    -0.029 Br
ATOM     34  C   LIG    1      -25.950  76.991  31.146  0.00  0.00    +0.035 A 
ATOM     35  C   LIG    1      -25.125  77.945  30.595  0.00  0.00    +0.006 A 
ATOM     36  C   LIG    1      -23.805  77.610  30.325  0.00  0.00    +0.044 A 
ENDBRANCH  28  30
ENDBRANCH  25  28
ENDBRANCH  22  23
ENDBRANCH   5  22
TORSDOF 7
ENDMDL
MODEL 6
REMARK VINA RESULT:      -5.3      3.543      5.399
REMARK  Name = pdb/CHEMBL254895.pdb
REMARK                            x       y       z     vdW  Elec       q    Type
REMARK                         _______ _______ _______ _____ _____    ______ ____
ROOT
ATOM      1  C   LIG    1      -40.569  75.941  23.810  0.00  0.00    +0.044 C 
ATOM      2  C   LIG    1      -39.841  74.700  24.270  0.00  0.00    -0.038 A 
ATOM      3  C   LIG    1      -38.548  74.658  24.851  0.00  0.00    +0.041 A 
ATOM      4  C   LIG    1      -38.014  73.358  24.944  0.00  0.00    +0.028 A 
ATOM      5  C   LIG    1      -38.669  72.157  24.646  0.00  0.00    +0.014 A 
ATOM      6  C   LIG    1      -39.966  72.223  24.206  0.00  0.00    +0.015 A 
ATOM      7  C   LIG    1      -40.534  73.477  24.000  0.00  0.00    +0.005 A 
ENDROOT
BRANCH   3   8
ATOM      8  C   LIG    1      -37.790  75.915  25.416  0.00  0.00    +0.247 C 
ATOM      9  N   LIG    1      -37.910  76.361  26.787  0.00  0.00    -0.295 N 
ATOM     10  C   LIG    1      -37.658  77.803  27.099  0.00  0.00    +0.127 C 
ATOM     11  C   LIG    1      -37.670  78.132  28.628  0.00  0.00    +0.127 C 
ATOM     12  N   LIG    1      -38.869  77.552  29.247  0.00  0.00    -0.297 N 
ATOM     13  C   LIG    1      -40.072  78.257  29.141  0.00  0.00    +0.229 C 
ATOM     14  O   LIG    1      -40.097  79.488  29.142  0.00  0.00    -0.274 OA
ATOM     15  C   LIG    1      -38.808  76.124  29.210  0.00  0.00    +0.127 C 
ATOM     16  C   LIG    1      -38.737  75.667  27.761  0.00  0.00    +0.127 C 
ATOM     17  O   LIG    1      -37.121  76.559  24.624  0.00  0.00    -0.270 OA
BRANCH  13  18
ATOM     18  C   LIG    1      -41.389  77.437  28.929  0.00  0.00    +0.174 C 
BRANCH  18  19
ATOM     19  N   LIG    1      -42.134  77.400  30.193  0.00  0.00    -0.322 NA
ATOM     20  H   LIG    1      -43.023  76.928  30.045  0.00  0.00    +0.119 HD
ATOM     21  H   LIG    1      -41.599  76.830  30.856  0.00  0.00    +0.119 HD
ENDBRANCH  18  19
ENDBRANCH  13  18
ENDBRANCH   3   8
BRANCH   5  22
ATOM     22  S   LIG    1      -37.740  70.625  24.734  0.00  0.00    -0.081 S 
BRANCH  22  23
ATOM     23  C   LIG    1      -36.738  70.961  26.122  0.00  0.00    +0.071 A 
ATOM     24  S   LIG    1      -35.053  70.848  26.096  0.00  0.00    -0.045 S 
ATOM     25  C   LIG    1      -34.934  71.447  27.719  0.00  0.00    +0.164 A 
ATOM     26  N   LIG    1      -36.116  71.552  28.300  0.00  0.00    -0.232 NA
ATOM     27  C   LIG    1      -37.139  71.273  27.400  0.00  0.00    +0.135 A 
BRANCH  25  28
ATOM     28  N   LIG    1      -33.760  71.720  28.359  0.00  0.00    -0.279 N 
ATOM     29  H   LIG    1      -33.523  71.089  29.120  0.00  0.00    +0.155 HD
BRANCH  28  30
ATOM     30  C   LIG    1      -33.223  72.995  28.639  0.00  0.00    +0.126 A 
ATOM     31  N   LIG    1      -33.789  74.057  28.026  0.00  0.00    -0.225 NA
ATOM     32  C   LIG    1      -33.299  75.298  28.305  0.00  0.00    +0.108 A 
ATOM     33 BR   LIG    1      -34.049  76.787  27.397  0.00  0.00    -0.029 Br
ATOM     34  C   LIG    1      -32.276  75.550  29.207  0.00  0.00    +0.035 A 
ATOM     35  C   LIG    1      -31.701  74.468  29.835  0.00  0.00    +0.006 A 
ATOM     36  C   LIG    1      -32.175  73.197  29.541  0.00  0.00    +0.044 A 
ENDBRANCH  28  30
ENDBRANCH  25  28
ENDBRANCH  22  23
ENDBRANCH   5  22
TORSDOF 7
ENDMDL
MODEL 7
REMARK VINA RESULT:      -5.2     13.073     17.953
REMARK  Name = pdb/CHEMBL254895.pdb
REMARK                            x       y       z     vdW  Elec       q    Type
REMARK                         _______ _______ _______ _____ _____    ______ ____
ROOT
ATOM      1  C   LIG    1      -19.419  79.380  35.543  0.00  0.00    +0.044 C 
ATOM      2  C   LIG    1      -20.155  78.922  34.305  0.00  0.00    -0.038 A 
ATOM      3  C   LIG    1      -21.470  78.391  34.264  0.00  0.00    +0.041 A 
ATOM      4  C   LIG    1      -21.806  77.811  33.026  0.00  0.00    +0.028 A 
ATOM      5  C   LIG    1      -21.038  77.828  31.855  0.00  0.00    +0.014 A 
ATOM      6  C   LIG    1      -19.822  78.462  31.891  0.00  0.00    +0.015 A 
ATOM      7  C   LIG    1      -19.380  78.980  33.104  0.00  0.00    +0.005 A 
ENDROOT
BRANCH   3   8
ATOM      8  C   LIG    1      -22.503  78.494  35.446  0.00  0.00    +0.247 C 
ATOM      9  N   LIG    1      -23.036  79.751  35.924  0.00  0.00    -0.295 N 
ATOM     10  C   LIG    1      -23.521  79.835  37.337  0.00  0.00    +0.127 C 
ATOM     11  C   LIG    1      -24.211  81.195  37.691  0.00  0.00    +0.127 C 
ATOM     12  N   LIG    1      -23.360  82.308  37.248  0.00  0.00    -0.297 N 
ATOM     13  C   LIG    1      -22.297  82.693  38.071  0.00  0.00    +0.229 C 
ATOM     14  O   LIG    1      -22.381  82.632  39.298  0.00  0.00    -0.274 OA
ATOM     15  C   LIG    1      -23.276  82.333  35.821  0.00  0.00    +0.127 C 
ATOM     16  C   LIG    1      -22.665  81.027  35.335  0.00  0.00    +0.127 C 
ATOM     17  O   LIG    1      -22.809  77.453  36.005  0.00  0.00    -0.270 OA
BRANCH  13  18
ATOM     18  C   LIG    1      -20.957  83.125  37.387  0.00  0.00    +0.174 C 
BRANCH  18  19
ATOM     19  N   LIG    1      -19.916  82.146  37.723  0.00  0.00    -0.322 NA
ATOM     20  H   LIG    1      -19.896  81.421  37.010  0.00  0.00    +0.119 HD
ATOM     21  H   LIG    1      -19.011  82.626  37.688  0.00  0.00    +0.119 HD
ENDBRANCH  18  19
ENDBRANCH  13  18
ENDBRANCH   3   8
BRANCH   5  22
ATOM     22  S   LIG    1      -21.628  76.916  30.426  0.00  0.00    -0.081 S 
BRANCH  22  23
ATOM     23  C   LIG    1      -23.346  77.158  30.605  0.00  0.00    +0.071 A 
ATOM     24  S   LIG    1      -24.387  75.979  31.221  0.00  0.00    -0.045 S 
ATOM     25  C   LIG    1      -25.737  77.065  31.164  0.00  0.00    +0.164 A 
ATOM     26  N   LIG    1      -25.445  78.194  30.544  0.00  0.00    -0.232 NA
ATOM     27  C   LIG    1      -24.092  78.248  30.222  0.00  0.00    +0.135 A 
BRANCH  25  28
ATOM     28  N   LIG    1      -26.984  76.776  31.640  0.00  0.00    -0.279 N 
ATOM     29  H   LIG    1      -27.748  77.258  31.176  0.00  0.00    +0.155 HD
BRANCH  28  30
ATOM     30  C   LIG    1      -27.344  76.533  32.984  0.00  0.00    +0.126 A 
ATOM     31  N   LIG    1      -27.082  77.506  33.884  0.00  0.00    -0.225 NA
ATOM     32  C   LIG    1      -27.447  77.297  35.180  0.00  0.00    +0.108 A 
ATOM     33 BR   LIG    1      -27.024  78.634  36.460  0.00  0.00    -0.029 Br
ATOM     34  C   LIG    1      -28.104  76.164  35.635  0.00  0.00    +0.035 A 
ATOM     35  C   LIG    1      -28.374  75.174  34.717  0.00  0.00    +0.006 A 
ATOM     36  C   LIG    1      -27.985  75.364  33.398  0.00  0.00    +0.044 A 
ENDBRANCH  28  30
ENDBRANCH  25  28
ENDBRANCH  22  23
ENDBRANCH   5  22
TORSDOF 7
ENDMDL
MODEL 8
REMARK VINA RESULT:      -5.2     14.422     17.656
REMARK  Name = pdb/CHEMBL254895.pdb
REMARK                            x       y       z     vdW  Elec       q    Type
REMARK                         _______ _______ _______ _____ _____    ______ ____
ROOT
ATOM      1  C   LIG    1      -25.149  76.872  37.982  0.00  0.00    +0.044 C 
ATOM      2  C   LIG    1      -25.327  76.871  36.482  0.00  0.00    -0.038 A 
ATOM      3  C   LIG    1      -25.790  77.958  35.696  0.00  0.00    +0.041 A 
ATOM      4  C   LIG    1      -26.103  77.601  34.370  0.00  0.00    +0.028 A 
ATOM      5  C   LIG    1      -25.885  76.360  33.761  0.00  0.00    +0.014 A 
ATOM      6  C   LIG    1      -25.316  75.364  34.512  0.00  0.00    +0.015 A 
ATOM      7  C   LIG    1      -25.062  75.611  35.858  0.00  0.00    +0.005 A 
ENDROOT
BRANCH   3   8
ATOM      8  C   LIG    1      -25.883  79.443  36.206  0.00  0.00    +0.247 C 
ATOM      9  N   LIG    1      -24.824  80.411  36.020  0.00  0.00    -0.295 N 
ATOM     10  C   LIG    1      -24.722  81.557  36.978  0.00  0.00    +0.127 C 
ATOM     11  C   LIG    1      -23.636  82.614  36.588  0.00  0.00    +0.127 C 
ATOM     12  N   LIG    1      -22.372  81.930  36.282  0.00  0.00    -0.297 N 
ATOM     13  C   LIG    1      -21.549  81.558  37.350  0.00  0.00    +0.229 C 
ATOM     14  O   LIG    1      -21.473  82.243  38.370  0.00  0.00    -0.274 OA
ATOM     15  C   LIG    1      -22.508  81.136  35.102  0.00  0.00    +0.127 C 
ATOM     16  C   LIG    1      -23.587  80.087  35.330  0.00  0.00    +0.127 C 
ATOM     17  O   LIG    1      -26.884  79.749  36.835  0.00  0.00    -0.270 OA
BRANCH  13  18
ATOM     18  C   LIG    1      -20.789  80.193  37.250  0.00  0.00    +0.174 C 
BRANCH  18  19
ATOM     19  N   LIG    1      -19.373  80.458  36.967  0.00  0.00    -0.322 NA
ATOM     20  H   LIG    1      -19.001  79.706  36.391  0.00  0.00    +0.119 HD
ATOM     21  H   LIG    1      -19.321  81.316  36.409  0.00  0.00    +0.119 HD
ENDBRANCH  18  19
ENDBRANCH  13  18
ENDBRANCH   3   8
BRANCH   5  22
ATOM     22  S   LIG    1      -26.475  76.109  32.084  0.00  0.00    -0.081 S 
BRANCH  22  23
ATOM     23  C   LIG    1      -25.143  76.796  31.192  0.00  0.00    +0.071 A 
ATOM     24  S   LIG    1      -23.612  76.086  31.124  0.00  0.00    -0.045 S 
ATOM     25  C   LIG    1      -23.048  77.283  30.003  0.00  0.00    +0.164 A 
ATOM     26  N   LIG    1      -23.920  78.261  29.836  0.00  0.00    -0.232 NA
ATOM     27  C   LIG    1      -25.106  77.991  30.512  0.00  0.00    +0.135 A 
BRANCH  25  28
ATOM     28  N   LIG    1      -21.822  77.266  29.404  0.00  0.00    -0.279 N 
ATOM     29  H   LIG    1      -21.755  76.693  28.568  0.00  0.00    +0.155 HD
BRANCH  28  30
ATOM     30  C   LIG    1      -20.564  77.290  30.044  0.00  0.00    +0.126 A 
ATOM     31  N   LIG    1      -20.468  77.980  31.202  0.00  0.00    -0.225 NA
ATOM     32  C   LIG    1      -19.267  77.991  31.846  0.00  0.00    +0.108 A 
ATOM     33 BR   LIG    1      -19.110  79.012  33.439  0.00  0.00    -0.029 Br
ATOM     34  C   LIG    1      -18.140  77.309  31.412  0.00  0.00    +0.035 A 
ATOM     35  C   LIG    1      -18.239  76.603  30.234  0.00  0.00    +0.006 A 
ATOM     36  C   LIG    1      -19.450  76.604  29.556  0.00  0.00    +0.044 A 
ENDBRANCH  28  30
ENDBRANCH  25  28
ENDBRANCH  22  23
ENDBRANCH   5  22
TORSDOF 7
ENDMDL
MODEL 9
REMARK VINA RESULT:      -5.2     20.813     23.986
REMARK  Name = pdb/CHEMBL254895.pdb
REMARK                            x       y       z     vdW  Elec       q    Type
REMARK                         _______ _______ _______ _____ _____    ______ ____
ROOT
ATOM      1  C   LIG    1      -19.558  87.265  13.974  0.00  0.00    +0.044 C 
ATOM      2  C   LIG    1      -20.944  87.528  13.434  0.00  0.00    -0.038 A 
ATOM      3  C   LIG    1      -22.123  86.819  13.778  0.00  0.00    +0.041 A 
ATOM      4  C   LIG    1      -23.217  87.103  12.939  0.00  0.00    +0.028 A 
ATOM      5  C   LIG    1      -23.271  88.069  11.927  0.00  0.00    +0.014 A 
ATOM      6  C   LIG    1      -22.152  88.829  11.702  0.00  0.00    +0.015 A 
ATOM      7  C   LIG    1      -21.000  88.546  12.429  0.00  0.00    +0.005 A 
ENDROOT
BRANCH   3   8
ATOM      8  C   LIG    1      -22.248  85.861  15.019  0.00  0.00    +0.247 C 
ATOM      9  N   LIG    1      -22.201  84.418  14.914  0.00  0.00    -0.295 N 
ATOM     10  C   LIG    1      -22.874  83.598  15.968  0.00  0.00    +0.127 C 
ATOM     11  C   LIG    1      -22.627  82.059  15.828  0.00  0.00    +0.127 C 
ATOM     12  N   LIG    1      -22.885  81.643  14.443  0.00  0.00    -0.297 N 
ATOM     13  C   LIG    1      -24.210  81.411  14.060  0.00  0.00    +0.229 C 
ATOM     14  O   LIG    1      -25.032  80.942  14.848  0.00  0.00    -0.274 OA
ATOM     15  C   LIG    1      -21.920  82.222  13.561  0.00  0.00    +0.127 C 
ATOM     16  C   LIG    1      -22.018  83.738  13.642  0.00  0.00    +0.127 C 
ATOM     17  O   LIG    1      -22.452  86.384  16.103  0.00  0.00    -0.270 OA
BRANCH  13  18
ATOM     18  C   LIG    1      -24.648  81.848  12.622  0.00  0.00    +0.174 C 
BRANCH  18  19
ATOM     19  N   LIG    1      -25.740  82.821  12.734  0.00  0.00    -0.322 NA
ATOM     20  H   LIG    1      -26.539  82.378  13.184  0.00  0.00    +0.119 HD
ATOM     21  H   LIG    1      -25.427  83.574  13.354  0.00  0.00    +0.119 HD
ENDBRANCH  18  19
ENDBRANCH  13  18
ENDBRANCH   3   8
BRANCH   5  22
ATOM     22  S   LIG    1      -24.746  88.167  10.908  0.00  0.00    -0.081 S 
BRANCH  22  23
ATOM     23  C   LIG    1      -24.963  89.898  10.863  0.00  0.00    +0.071 A 
ATOM     24  S   LIG    1      -25.518  90.795  12.182  0.00  0.00    -0.045 S 
ATOM     25  C   LIG    1      -25.295  92.288  11.329  0.00  0.00    +0.164 A 
ATOM     26  N   LIG    1      -24.989  92.096  10.058  0.00  0.00    -0.232 NA
ATOM     27  C   LIG    1      -24.805  90.743   9.790  0.00  0.00    +0.135 A 
BRANCH  25  28
ATOM     28  N   LIG    1      -25.476  93.526  11.874  0.00  0.00    -0.279 N 
ATOM     29  H   LIG    1      -24.633  93.976  12.219  0.00  0.00    +0.155 HD
BRANCH  28  30
ATOM     30  C   LIG    1      -26.575  93.961  12.646  0.00  0.00    +0.126 A 
ATOM     31  N   LIG    1      -27.812  93.665  12.190  0.00  0.00    -0.225 NA
ATOM     32  C   LIG    1      -28.883  94.056  12.936  0.00  0.00    +0.108 A 
ATOM     33 BR   LIG    1      -30.624  93.698  12.267  0.00  0.00    -0.029 Br
ATOM     34  C   LIG    1      -28.790  94.708  14.156  0.00  0.00    +0.035 A 
ATOM     35  C   LIG    1      -27.530  95.007  14.623  0.00  0.00    +0.006 A 
ATOM     36  C   LIG    1      -26.431  94.636  13.860  0.00  0.00    +0.044 A 
ENDBRANCH  28  30
ENDBRANCH  25  28
ENDBRANCH  22  23
ENDBRANCH   5  22
TORSDOF 7
ENDMDL
