MODEL 1
REMARK VINA RESULT:      -5.8      0.000      0.000
REMARK  Name = pdb/CHEMBL2007421.pdb
REMARK                            x       y       z     vdW  Elec       q    Type
REMARK                         _______ _______ _______ _____ _____    ______ ____
ROOT
ATOM      1  C   LIG    1      -34.874  82.503  29.253  0.00  0.00    +0.148 A 
ATOM      2  C   LIG    1      -35.827  82.598  28.249  0.00  0.00    +0.099 A 
ATOM      3 CL   LIG    1      -36.717  84.027  27.909  0.00  0.00    -0.078 Cl
ATOM      4  C   LIG    1      -36.058  81.447  27.535  0.00  0.00    +0.137 A 
ATOM      5  N   LIG    1      -35.388  80.295  27.726  0.00  0.00    -0.221 NA
ATOM      6  C   LIG    1      -34.431  80.300  28.661  0.00  0.00    +0.217 A 
ATOM      7  N   LIG    1      -34.175  81.354  29.436  0.00  0.00    -0.198 NA
ENDROOT
BRANCH   1   8
ATOM      8  N   LIG    1      -34.718  83.557  30.178  0.00  0.00    -0.282 N 
ATOM      9  H   LIG    1      -35.587  83.908  30.561  0.00  0.00    +0.155 HD
BRANCH   8  14
ATOM     10  C   LIG    1      -31.744  85.452  30.399  0.00  0.00    +0.213 A 
ATOM     11  N   LIG    1      -31.841  84.778  31.582  0.00  0.00    -0.245 N 
ATOM     12  H   LIG    1      -31.180  84.811  32.353  0.00  0.00    +0.192 HD
ATOM     13  N   LIG    1      -32.955  84.024  31.698  0.00  0.00    -0.156 NA
ATOM     14  C   LIG    1      -33.580  84.198  30.535  0.00  0.00    +0.149 A 
ATOM     15  C   LIG    1      -32.868  85.085  29.696  0.00  0.00    +0.112 A 
BRANCH  10  16
ATOM     16  O   LIG    1      -30.701  86.237  30.143  0.00  0.00    -0.474 OA
BRANCH  16  18
ATOM     17  C   LIG    1      -29.186  87.869  31.041  0.00  0.00    +0.051 C 
ATOM     18  C   LIG    1      -30.649  87.481  30.859  0.00  0.00    +0.169 C 
ATOM     19  C   LIG    1      -31.387  88.532  30.039  0.00  0.00    +0.051 C 
ENDBRANCH  16  18
ENDBRANCH  10  16
ENDBRANCH   8  14
ENDBRANCH   1   8
BRANCH   6  20
ATOM     20  N   LIG    1      -33.638  79.189  28.844  0.00  0.00    -0.305 N 
ATOM     21  H   LIG    1      -33.799  78.777  29.755  0.00  0.00    +0.150 HD
BRANCH  20  22
ATOM     22  C   LIG    1      -33.501  78.259  27.733  0.00  0.00    +0.119 C 
ATOM     23  C   LIG    1      -32.343  78.727  26.841  0.00  0.00    +0.034 C 
BRANCH  22  24
ATOM     24  C   LIG    1      -33.274  76.825  28.212  0.00  0.00    +0.061 A 
ATOM     25  N   LIG    1      -32.335  76.607  29.175  0.00  0.00    -0.255 NA
ATOM     26  C   LIG    1      -32.076  75.322  29.516  0.00  0.00    +0.149 A 
ATOM     27  C   LIG    1      -32.736  74.239  28.969  0.00  0.00    +0.141 A 
ATOM     28  F   LIG    1      -32.424  72.991  29.339  0.00  0.00    -0.204 F 
ATOM     29  C   LIG    1      -33.723  74.465  28.025  0.00  0.00    +0.042 A 
ATOM     30  C   LIG    1      -34.001  75.776  27.640  0.00  0.00    +0.028 A 
ENDBRANCH  22  24
ENDBRANCH  20  22
ENDBRANCH   6  20
TORSDOF 7
ENDMDL
MODEL 2
REMARK VINA RESULT:      -5.6      5.527      7.995
REMARK  Name = pdb/CHEMBL2007421.pdb
REMARK                            x       y       z     vdW  Elec       q    Type
REMARK                         _______ _______ _______ _____ _____    ______ ____
ROOT
ATOM      1  C   LIG    1      -39.300  77.411  24.638  0.00  0.00    +0.148 A 
ATOM      2  C   LIG    1      -39.840  76.200  24.230  0.00  0.00    +0.099 A 
ATOM      3 CL   LIG    1      -41.327  76.054  23.384  0.00  0.00    -0.078 Cl
ATOM      4  C   LIG    1      -39.122  75.080  24.574  0.00  0.00    +0.137 A 
ATOM      5  N   LIG    1      -37.939  75.112  25.217  0.00  0.00    -0.221 NA
ATOM      6  C   LIG    1      -37.443  76.319  25.512  0.00  0.00    +0.217 A 
ATOM      7  N   LIG    1      -38.095  77.455  25.263  0.00  0.00    -0.198 NA
ENDROOT
BRANCH   1   8
ATOM      8  N   LIG    1      -40.059  78.594  24.525  0.00  0.00    -0.282 N 
ATOM      9  H   LIG    1      -41.061  78.453  24.569  0.00  0.00    +0.155 HD
BRANCH   8  14
ATOM     10  C   LIG    1      -39.069  81.986  24.609  0.00  0.00    +0.213 A 
ATOM     11  N   LIG    1      -39.049  81.628  23.292  0.00  0.00    -0.245 N 
ATOM     12  H   LIG    1      -38.812  82.227  22.506  0.00  0.00    +0.192 HD
ATOM     13  N   LIG    1      -39.362  80.334  23.066  0.00  0.00    -0.156 NA
ATOM     14  C   LIG    1      -39.621  79.852  24.281  0.00  0.00    +0.149 A 
ATOM     15  C   LIG    1      -39.446  80.841  25.274  0.00  0.00    +0.112 A 
BRANCH  10  16
ATOM     16  O   LIG    1      -38.781  83.228  24.985  0.00  0.00    -0.474 OA
BRANCH  16  18
ATOM     17  C   LIG    1      -37.513  85.217  24.538  0.00  0.00    +0.051 C 
ATOM     18  C   LIG    1      -37.462  83.700  24.666  0.00  0.00    +0.169 C 
ATOM     19  C   LIG    1      -36.524  83.286  25.793  0.00  0.00    +0.051 C 
ENDBRANCH  16  18
ENDBRANCH  10  16
ENDBRANCH   8  14
ENDBRANCH   1   8
BRANCH   6  20
ATOM     20  N   LIG    1      -36.194  76.434  26.080  0.00  0.00    -0.305 N 
ATOM     21  H   LIG    1      -35.570  76.955  25.476  0.00  0.00    +0.150 HD
BRANCH  20  22
ATOM     22  C   LIG    1      -36.117  76.739  27.501  0.00  0.00    +0.119 C 
ATOM     23  C   LIG    1      -35.118  75.779  28.157  0.00  0.00    +0.034 C 
BRANCH  22  24
ATOM     24  C   LIG    1      -35.719  78.195  27.752  0.00  0.00    +0.061 A 
ATOM     25  N   LIG    1      -34.418  78.550  27.560  0.00  0.00    -0.255 NA
ATOM     26  C   LIG    1      -34.061  79.816  27.883  0.00  0.00    +0.149 A 
ATOM     27  C   LIG    1      -34.949  80.762  28.355  0.00  0.00    +0.141 A 
ATOM     28  F   LIG    1      -34.531  81.995  28.669  0.00  0.00    -0.204 F 
ATOM     29  C   LIG    1      -36.280  80.413  28.505  0.00  0.00    +0.042 A 
ATOM     30  C   LIG    1      -36.676  79.112  28.198  0.00  0.00    +0.028 A 
ENDBRANCH  22  24
ENDBRANCH  20  22
ENDBRANCH   6  20
TORSDOF 7
ENDMDL
MODEL 3
REMARK VINA RESULT:      -5.6     18.497     19.542
REMARK  Name = pdb/CHEMBL2007421.pdb
REMARK                            x       y       z     vdW  Elec       q    Type
REMARK                         _______ _______ _______ _____ _____    ______ ____
ROOT
ATOM      1  C   LIG    1      -21.139  86.225  14.217  0.00  0.00    +0.148 A 
ATOM      2  C   LIG    1      -19.988  85.722  13.629  0.00  0.00    +0.099 A 
ATOM      3 CL   LIG    1      -18.652  86.694  13.159  0.00  0.00    -0.078 Cl
ATOM      4  C   LIG    1      -19.977  84.367  13.402  0.00  0.00    +0.137 A 
ATOM      5  N   LIG    1      -20.974  83.535  13.761  0.00  0.00    -0.221 NA
ATOM      6  C   LIG    1      -22.020  84.081  14.391  0.00  0.00    +0.217 A 
ATOM      7  N   LIG    1      -22.138  85.392  14.606  0.00  0.00    -0.198 NA
ENDROOT
BRANCH   1   8
ATOM      8  N   LIG    1      -21.338  87.620  14.295  0.00  0.00    -0.282 N 
ATOM      9  H   LIG    1      -21.244  88.004  15.227  0.00  0.00    +0.155 HD
BRANCH   8  14
ATOM     10  C   LIG    1      -22.978  89.469  11.769  0.00  0.00    +0.213 A 
ATOM     11  N   LIG    1      -21.671  89.863  11.726  0.00  0.00    -0.245 N 
ATOM     12  H   LIG    1      -21.264  90.538  11.085  0.00  0.00    +0.192 HD
ATOM     13  N   LIG    1      -20.889  89.286  12.663  0.00  0.00    -0.156 NA
ATOM     14  C   LIG    1      -21.718  88.469  13.311  0.00  0.00    +0.149 A 
ATOM     15  C   LIG    1      -23.031  88.554  12.795  0.00  0.00    +0.112 A 
BRANCH  10  16
ATOM     16  O   LIG    1      -23.867  89.955  10.908  0.00  0.00    -0.474 OA
BRANCH  16  18
ATOM     17  C   LIG    1      -25.196  91.909  11.333  0.00  0.00    +0.051 C 
ATOM     18  C   LIG    1      -25.118  90.393  11.465  0.00  0.00    +0.169 C 
ATOM     19  C   LIG    1      -26.244  89.726  10.685  0.00  0.00    +0.051 C 
ENDBRANCH  16  18
ENDBRANCH  10  16
ENDBRANCH   8  14
ENDBRANCH   1   8
BRANCH   6  20
ATOM     20  N   LIG    1      -23.031  83.281  14.875  0.00  0.00    -0.305 N 
ATOM     21  H   LIG    1      -23.807  83.247  14.225  0.00  0.00    +0.150 HD
BRANCH  20  22
ATOM     22  C   LIG    1      -22.660  82.020  15.500  0.00  0.00    +0.119 C 
ATOM     23  C   LIG    1      -22.505  82.246  17.009  0.00  0.00    +0.034 C 
BRANCH  22  24
ATOM     24  C   LIG    1      -23.684  80.919  15.217  0.00  0.00    +0.061 A 
ATOM     25  N   LIG    1      -24.634  81.150  14.269  0.00  0.00    -0.255 NA
ATOM     26  C   LIG    1      -25.592  80.207  14.101  0.00  0.00    +0.149 A 
ATOM     27  C   LIG    1      -25.630  79.023  14.809  0.00  0.00    +0.141 A 
ATOM     28  F   LIG    1      -26.612  78.136  14.606  0.00  0.00    -0.204 F 
ATOM     29  C   LIG    1      -24.636  78.769  15.739  0.00  0.00    +0.042 A 
ATOM     30  C   LIG    1      -23.645  79.727  15.948  0.00  0.00    +0.028 A 
ENDBRANCH  22  24
ENDBRANCH  20  22
ENDBRANCH   6  20
TORSDOF 7
ENDMDL
MODEL 4
REMARK VINA RESULT:      -5.6      5.954      8.140
REMARK  Name = pdb/CHEMBL2007421.pdb
REMARK                            x       y       z     vdW  Elec       q    Type
REMARK                         _______ _______ _______ _____ _____    ______ ____
ROOT
ATOM      1  C   LIG    1      -39.133  77.188  23.899  0.00  0.00    +0.148 A 
ATOM      2  C   LIG    1      -40.157  76.258  24.002  0.00  0.00    +0.099 A 
ATOM      3 CL   LIG    1      -41.659  76.396  23.181  0.00  0.00    -0.078 Cl
ATOM      4  C   LIG    1      -39.919  75.200  24.847  0.00  0.00    +0.137 A 
ATOM      5  N   LIG    1      -38.762  75.011  25.509  0.00  0.00    -0.221 NA
ATOM      6  C   LIG    1      -37.792  75.909  25.302  0.00  0.00    +0.217 A 
ATOM      7  N   LIG    1      -37.953  76.992  24.541  0.00  0.00    -0.198 NA
ENDROOT
BRANCH   1   8
ATOM      8  N   LIG    1      -39.358  78.411  23.232  0.00  0.00    -0.282 N 
ATOM      9  H   LIG    1      -39.282  78.357  22.224  0.00  0.00    +0.155 HD
BRANCH   8  14
ATOM     10  C   LIG    1      -39.602  81.850  24.009  0.00  0.00    +0.213 A 
ATOM     11  N   LIG    1      -39.944  81.187  25.153  0.00  0.00    -0.245 N 
ATOM     12  H   LIG    1      -40.199  81.608  26.042  0.00  0.00    +0.192 HD
ATOM     13  N   LIG    1      -39.950  79.843  25.032  0.00  0.00    -0.156 NA
ATOM     14  C   LIG    1      -39.569  79.635  23.773  0.00  0.00    +0.149 A 
ATOM     15  C   LIG    1      -39.348  80.854  23.094  0.00  0.00    +0.112 A 
BRANCH  10  16
ATOM     16  O   LIG    1      -39.555  83.178  23.976  0.00  0.00    -0.474 OA
BRANCH  16  18
ATOM     17  C   LIG    1      -38.579  85.205  23.136  0.00  0.00    +0.051 C 
ATOM     18  C   LIG    1      -38.314  83.761  23.544  0.00  0.00    +0.169 C 
ATOM     19  C   LIG    1      -37.332  83.701  24.707  0.00  0.00    +0.051 C 
ENDBRANCH  16  18
ENDBRANCH  10  16
ENDBRANCH   8  14
ENDBRANCH   1   8
BRANCH   6  20
ATOM     20  N   LIG    1      -36.549  75.727  25.866  0.00  0.00    -0.305 N 
ATOM     21  H   LIG    1      -35.817  76.000  25.221  0.00  0.00    +0.150 HD
BRANCH  20  22
ATOM     22  C   LIG    1      -36.366  76.127  27.253  0.00  0.00    +0.119 C 
ATOM     23  C   LIG    1      -36.360  74.870  28.130  0.00  0.00    +0.034 C 
BRANCH  22  24
ATOM     24  C   LIG    1      -35.082  76.936  27.450  0.00  0.00    +0.061 A 
ATOM     25  N   LIG    1      -35.191  78.276  27.669  0.00  0.00    -0.255 NA
ATOM     26  C   LIG    1      -34.044  78.993  27.742  0.00  0.00    +0.149 A 
ATOM     27  C   LIG    1      -32.786  78.432  27.642  0.00  0.00    +0.141 A 
ATOM     28  F   LIG    1      -31.690  79.197  27.709  0.00  0.00    -0.204 F 
ATOM     29  C   LIG    1      -32.677  77.063  27.467  0.00  0.00    +0.042 A 
ATOM     30  C   LIG    1      -33.840  76.299  27.371  0.00  0.00    +0.028 A 
ENDBRANCH  22  24
ENDBRANCH  20  22
ENDBRANCH   6  20
TORSDOF 7
ENDMDL
MODEL 5
REMARK VINA RESULT:      -5.5      8.187     12.248
REMARK  Name = pdb/CHEMBL2007421.pdb
REMARK                            x       y       z     vdW  Elec       q    Type
REMARK                         _______ _______ _______ _____ _____    ______ ____
ROOT
ATOM      1  C   LIG    1      -25.131  75.264  31.335  0.00  0.00    +0.148 A 
ATOM      2  C   LIG    1      -24.205  76.122  30.759  0.00  0.00    +0.099 A 
ATOM      3 CL   LIG    1      -22.614  75.651  30.315  0.00  0.00    -0.078 Cl
ATOM      4  C   LIG    1      -24.622  77.419  30.584  0.00  0.00    +0.137 A 
ATOM      5  N   LIG    1      -25.858  77.860  30.886  0.00  0.00    -0.221 NA
ATOM      6  C   LIG    1      -26.721  76.958  31.368  0.00  0.00    +0.217 A 
ATOM      7  N   LIG    1      -26.388  75.692  31.619  0.00  0.00    -0.198 NA
ENDROOT
BRANCH   1   8
ATOM      8  N   LIG    1      -24.733  73.976  31.753  0.00  0.00    -0.282 N 
ATOM      9  H   LIG    1      -24.085  73.972  32.531  0.00  0.00    +0.155 HD
BRANCH   8  14
ATOM     10  C   LIG    1      -24.837  70.900  30.018  0.00  0.00    +0.213 A 
ATOM     11  N   LIG    1      -26.111  71.120  30.456  0.00  0.00    -0.245 N 
ATOM     12  H   LIG    1      -26.917  70.523  30.296  0.00  0.00    +0.192 HD
ATOM     13  N   LIG    1      -26.257  72.245  31.188  0.00  0.00    -0.156 NA
ATOM     14  C   LIG    1      -25.038  72.781  31.194  0.00  0.00    +0.149 A 
ATOM     15  C   LIG    1      -24.118  71.976  30.485  0.00  0.00    +0.112 A 
BRANCH  10  16
ATOM     16  O   LIG    1      -24.540  69.830  29.286  0.00  0.00    -0.474 OA
BRANCH  16  18
ATOM     17  C   LIG    1      -22.611  69.103  28.056  0.00  0.00    +0.051 C 
ATOM     18  C   LIG    1      -23.789  70.069  28.085  0.00  0.00    +0.169 C 
ATOM     19  C   LIG    1      -24.709  69.830  26.894  0.00  0.00    +0.051 C 
ENDBRANCH  16  18
ENDBRANCH  10  16
ENDBRANCH   8  14
ENDBRANCH   1   8
BRANCH   6  20
ATOM     20  N   LIG    1      -28.031  77.313  31.606  0.00  0.00    -0.305 N 
ATOM     21  H   LIG    1      -28.427  77.791  30.806  0.00  0.00    +0.150 HD
BRANCH  20  22
ATOM     22  C   LIG    1      -28.890  76.339  32.263  0.00  0.00    +0.119 C 
ATOM     23  C   LIG    1      -29.662  77.043  33.386  0.00  0.00    +0.034 C 
BRANCH  22  24
ATOM     24  C   LIG    1      -29.851  75.669  31.279  0.00  0.00    +0.061 A 
ATOM     25  N   LIG    1      -30.309  76.401  30.225  0.00  0.00    -0.255 NA
ATOM     26  C   LIG    1      -31.236  75.827  29.421  0.00  0.00    +0.149 A 
ATOM     27  C   LIG    1      -31.704  74.540  29.593  0.00  0.00    +0.141 A 
ATOM     28  F   LIG    1      -32.631  74.034  28.771  0.00  0.00    -0.204 F 
ATOM     29  C   LIG    1      -31.202  73.781  30.637  0.00  0.00    +0.042 A 
ATOM     30  C   LIG    1      -30.260  74.349  31.494  0.00  0.00    +0.028 A 
ENDBRANCH  22  24
ENDBRANCH  20  22
ENDBRANCH   6  20
TORSDOF 7
ENDMDL
MODEL 6
REMARK VINA RESULT:      -5.5      5.456      7.254
REMARK  Name = pdb/CHEMBL2007421.pdb
REMARK                            x       y       z     vdW  Elec       q    Type
REMARK                         _______ _______ _______ _____ _____    ______ ____
ROOT
ATOM      1  C   LIG    1      -35.397  76.899  27.712  0.00  0.00    +0.148 A 
ATOM      2  C   LIG    1      -35.830  76.128  28.780  0.00  0.00    +0.099 A 
ATOM      3 CL   LIG    1      -35.249  76.309  30.386  0.00  0.00    -0.078 Cl
ATOM      4  C   LIG    1      -36.754  75.156  28.479  0.00  0.00    +0.137 A 
ATOM      5  N   LIG    1      -37.273  74.965  27.251  0.00  0.00    -0.221 NA
ATOM      6  C   LIG    1      -36.864  75.796  26.286  0.00  0.00    +0.217 A 
ATOM      7  N   LIG    1      -35.934  76.732  26.476  0.00  0.00    -0.198 NA
ENDROOT
BRANCH   1   8
ATOM      8  N   LIG    1      -34.301  77.772  27.872  0.00  0.00    -0.282 N 
ATOM      9  H   LIG    1      -33.396  77.322  27.811  0.00  0.00    +0.155 HD
BRANCH   8  14
ATOM     10  C   LIG    1      -34.462  80.969  29.369  0.00  0.00    +0.213 A 
ATOM     11  N   LIG    1      -34.436  81.193  28.022  0.00  0.00    -0.245 N 
ATOM     12  H   LIG    1      -34.471  82.096  27.559  0.00  0.00    +0.192 HD
ATOM     13  N   LIG    1      -34.329  80.072  27.279  0.00  0.00    -0.156 NA
ATOM     14  C   LIG    1      -34.316  79.091  28.180  0.00  0.00    +0.149 A 
ATOM     15  C   LIG    1      -34.390  79.601  29.495  0.00  0.00    +0.112 A 
BRANCH  10  16
ATOM     16  O   LIG    1      -34.563  81.979  30.228  0.00  0.00    -0.474 OA
BRANCH  16  18
ATOM     17  C   LIG    1      -36.062  83.837  29.974  0.00  0.00    +0.051 C 
ATOM     18  C   LIG    1      -34.675  83.293  29.657  0.00  0.00    +0.169 C 
ATOM     19  C   LIG    1      -33.597  84.173  30.275  0.00  0.00    +0.051 C 
ENDBRANCH  16  18
ENDBRANCH  10  16
ENDBRANCH   8  14
ENDBRANCH   1   8
BRANCH   6  20
ATOM     20  N   LIG    1      -37.424  75.726  25.029  0.00  0.00    -0.305 N 
ATOM     21  H   LIG    1      -37.205  74.842  24.585  0.00  0.00    +0.150 HD
BRANCH  20  22
ATOM     22  C   LIG    1      -38.788  76.207  24.865  0.00  0.00    +0.119 C 
ATOM     23  C   LIG    1      -38.767  77.441  23.954  0.00  0.00    +0.034 C 
BRANCH  22  24
ATOM     24  C   LIG    1      -39.711  75.127  24.298  0.00  0.00    +0.061 A 
ATOM     25  N   LIG    1      -40.892  75.515  23.741  0.00  0.00    -0.255 NA
ATOM     26  C   LIG    1      -41.742  74.541  23.335  0.00  0.00    +0.149 A 
ATOM     27  C   LIG    1      -41.456  73.193  23.423  0.00  0.00    +0.141 A 
ATOM     28  F   LIG    1      -42.343  72.278  23.016  0.00  0.00    -0.204 F 
ATOM     29  C   LIG    1      -40.235  72.802  23.946  0.00  0.00    +0.042 A 
ATOM     30  C   LIG    1      -39.345  73.780  24.388  0.00  0.00    +0.028 A 
ENDBRANCH  22  24
ENDBRANCH  20  22
ENDBRANCH   6  20
TORSDOF 7
ENDMDL
MODEL 7
REMARK VINA RESULT:      -5.4      5.745     10.635
REMARK  Name = pdb/CHEMBL2007421.pdb
REMARK                            x       y       z     vdW  Elec       q    Type
REMARK                         _______ _______ _______ _____ _____    ______ ____
ROOT
ATOM      1  C   LIG    1      -35.058  77.205  27.637  0.00  0.00    +0.148 A 
ATOM      2  C   LIG    1      -33.842  76.569  27.839  0.00  0.00    +0.099 A 
ATOM      3 CL   LIG    1      -33.645  74.863  27.839  0.00  0.00    -0.078 Cl
ATOM      4  C   LIG    1      -32.770  77.395  28.080  0.00  0.00    +0.137 A 
ATOM      5  N   LIG    1      -32.839  78.739  28.076  0.00  0.00    -0.221 NA
ATOM      6  C   LIG    1      -34.030  79.283  27.799  0.00  0.00    +0.217 A 
ATOM      7  N   LIG    1      -35.133  78.560  27.605  0.00  0.00    -0.198 NA
ENDROOT
BRANCH   1   8
ATOM      8  N   LIG    1      -36.250  76.450  27.597  0.00  0.00    -0.282 N 
ATOM      9  H   LIG    1      -36.593  76.163  28.505  0.00  0.00    +0.155 HD
BRANCH   8  14
ATOM     10  C   LIG    1      -38.008  74.627  25.133  0.00  0.00    +0.213 A 
ATOM     11  N   LIG    1      -37.707  75.828  24.559  0.00  0.00    -0.245 N 
ATOM     12  H   LIG    1      -37.934  76.120  23.612  0.00  0.00    +0.192 HD
ATOM     13  N   LIG    1      -37.064  76.686  25.378  0.00  0.00    -0.156 NA
ATOM     14  C   LIG    1      -36.920  75.999  26.510  0.00  0.00    +0.149 A 
ATOM     15  C   LIG    1      -37.498  74.714  26.408  0.00  0.00    +0.112 A 
BRANCH  10  16
ATOM     16  O   LIG    1      -38.643  73.681  24.447  0.00  0.00    -0.474 OA
BRANCH  16  18
ATOM     17  C   LIG    1      -40.851  74.361  23.795  0.00  0.00    +0.051 C 
ATOM     18  C   LIG    1      -40.036  73.500  24.752  0.00  0.00    +0.169 C 
ATOM     19  C   LIG    1      -40.374  72.026  24.570  0.00  0.00    +0.051 C 
ENDBRANCH  16  18
ENDBRANCH  10  16
ENDBRANCH   8  14
ENDBRANCH   1   8
BRANCH   6  20
ATOM     20  N   LIG    1      -34.155  80.649  27.680  0.00  0.00    -0.305 N 
ATOM     21  H   LIG    1      -33.969  80.947  26.729  0.00  0.00    +0.150 HD
BRANCH  20  22
ATOM     22  C   LIG    1      -35.279  81.291  28.346  0.00  0.00    +0.119 C 
ATOM     23  C   LIG    1      -34.906  81.535  29.813  0.00  0.00    +0.034 C 
BRANCH  22  24
ATOM     24  C   LIG    1      -35.680  82.598  27.661  0.00  0.00    +0.061 A 
ATOM     25  N   LIG    1      -35.953  82.570  26.326  0.00  0.00    -0.255 NA
ATOM     26  C   LIG    1      -36.208  83.752  25.715  0.00  0.00    +0.149 A 
ATOM     27  C   LIG    1      -36.240  84.962  26.378  0.00  0.00    +0.141 A 
ATOM     28  F   LIG    1      -36.485  86.099  25.715  0.00  0.00    -0.204 F 
ATOM     29  C   LIG    1      -36.009  84.983  27.743  0.00  0.00    +0.042 A 
ATOM     30  C   LIG    1      -35.726  83.785  28.398  0.00  0.00    +0.028 A 
ENDBRANCH  22  24
ENDBRANCH  20  22
ENDBRANCH   6  20
TORSDOF 7
ENDMDL
MODEL 8
REMARK VINA RESULT:      -5.3     17.191     18.329
REMARK  Name = pdb/CHEMBL2007421.pdb
REMARK                            x       y       z     vdW  Elec       q    Type
REMARK                         _______ _______ _______ _____ _____    ______ ____
ROOT
ATOM      1  C   LIG    1      -23.906  80.407  15.523  0.00  0.00    +0.148 A 
ATOM      2  C   LIG    1      -22.885  79.475  15.635  0.00  0.00    +0.099 A 
ATOM      3 CL   LIG    1      -21.291  79.862  16.144  0.00  0.00    -0.078 Cl
ATOM      4  C   LIG    1      -23.208  78.189  15.276  0.00  0.00    +0.137 A 
ATOM      5  N   LIG    1      -24.438  77.802  14.887  0.00  0.00    -0.221 NA
ATOM      6  C   LIG    1      -25.392  78.741  14.876  0.00  0.00    +0.217 A 
ATOM      7  N   LIG    1      -25.156  80.022  15.158  0.00  0.00    -0.198 NA
ENDROOT
BRANCH   1   8
ATOM      8  N   LIG    1      -23.623  81.782  15.660  0.00  0.00    -0.282 N 
ATOM      9  H   LIG    1      -23.879  82.174  16.557  0.00  0.00    +0.155 HD
BRANCH   8  14
ATOM     10  C   LIG    1      -22.162  84.416  13.810  0.00  0.00    +0.213 A 
ATOM     11  N   LIG    1      -22.798  83.629  12.893  0.00  0.00    -0.245 N 
ATOM     12  H   LIG    1      -22.846  83.787  11.891  0.00  0.00    +0.192 HD
ATOM     13  N   LIG    1      -23.385  82.533  13.419  0.00  0.00    -0.156 NA
ATOM     14  C   LIG    1      -23.143  82.636  14.725  0.00  0.00    +0.149 A 
ATOM     15  C   LIG    1      -22.379  83.789  15.016  0.00  0.00    +0.112 A 
BRANCH  10  16
ATOM     16  O   LIG    1      -21.536  85.529  13.440  0.00  0.00    -0.474 OA
BRANCH  16  18
ATOM     17  C   LIG    1      -20.034  87.225  14.235  0.00  0.00    +0.051 C 
ATOM     18  C   LIG    1      -21.376  86.536  14.452  0.00  0.00    +0.169 C 
ATOM     19  C   LIG    1      -22.521  87.532  14.316  0.00  0.00    +0.051 C 
ENDBRANCH  16  18
ENDBRANCH  10  16
ENDBRANCH   8  14
ENDBRANCH   1   8
BRANCH   6  20
ATOM     20  N   LIG    1      -26.694  78.400  14.585  0.00  0.00    -0.305 N 
ATOM     21  H   LIG    1      -27.297  79.213  14.622  0.00  0.00    +0.150 HD
BRANCH  20  22
ATOM     22  C   LIG    1      -26.927  77.476  13.485  0.00  0.00    +0.119 C 
ATOM     23  C   LIG    1      -27.778  76.307  13.996  0.00  0.00    +0.034 C 
BRANCH  22  24
ATOM     24  C   LIG    1      -27.602  78.162  12.296  0.00  0.00    +0.061 A 
ATOM     25  N   LIG    1      -26.827  78.900  11.452  0.00  0.00    -0.255 NA
ATOM     26  C   LIG    1      -27.454  79.582  10.463  0.00  0.00    +0.149 A 
ATOM     27  C   LIG    1      -28.817  79.536  10.250  0.00  0.00    +0.141 A 
ATOM     28  F   LIG    1      -29.379  80.244   9.263  0.00  0.00    -0.204 F 
ATOM     29  C   LIG    1      -29.597  78.749  11.080  0.00  0.00    +0.042 A 
ATOM     30  C   LIG    1      -28.984  78.048  12.118  0.00  0.00    +0.028 A 
ENDBRANCH  22  24
ENDBRANCH  20  22
ENDBRANCH   6  20
TORSDOF 7
ENDMDL
MODEL 9
REMARK VINA RESULT:      -5.3      7.014     11.341
REMARK  Name = pdb/CHEMBL2007421.pdb
REMARK                            x       y       z     vdW  Elec       q    Type
REMARK                         _______ _______ _______ _____ _____    ______ ____
ROOT
ATOM      1  C   LIG    1      -38.980  73.632  24.521  0.00  0.00    +0.148 A 
ATOM      2  C   LIG    1      -40.140  74.291  24.143  0.00  0.00    +0.099 A 
ATOM      3 CL   LIG    1      -41.588  73.489  23.682  0.00  0.00    -0.078 Cl
ATOM      4  C   LIG    1      -40.068  75.663  24.122  0.00  0.00    +0.137 A 
ATOM      5  N   LIG    1      -38.979  76.365  24.488  0.00  0.00    -0.221 NA
ATOM      6  C   LIG    1      -37.921  75.664  24.913  0.00  0.00    +0.217 A 
ATOM      7  N   LIG    1      -37.886  74.331  24.917  0.00  0.00    -0.198 NA
ENDROOT
BRANCH   1   8
ATOM      8  N   LIG    1      -38.884  72.232  24.369  0.00  0.00    -0.282 N 
ATOM      9  H   LIG    1      -39.709  71.797  23.975  0.00  0.00    +0.155 HD
BRANCH   8  14
ATOM     10  C   LIG    1      -36.437  70.337  26.075  0.00  0.00    +0.213 A 
ATOM     11  N   LIG    1      -36.162  70.185  24.746  0.00  0.00    -0.245 N 
ATOM     12  H   LIG    1      -35.399  69.648  24.344  0.00  0.00    +0.192 HD
ATOM     13  N   LIG    1      -37.032  70.812  23.927  0.00  0.00    -0.156 NA
ATOM     14  C   LIG    1      -37.879  71.413  24.761  0.00  0.00    +0.149 A 
ATOM     15  C   LIG    1      -37.553  71.141  26.108  0.00  0.00    +0.112 A 
BRANCH  10  16
ATOM     16  O   LIG    1      -35.667  69.775  27.001  0.00  0.00    -0.474 OA
BRANCH  16  18
ATOM     17  C   LIG    1      -34.403  71.562  27.988  0.00  0.00    +0.051 C 
ATOM     18  C   LIG    1      -34.337  70.304  27.131  0.00  0.00    +0.169 C 
ATOM     19  C   LIG    1      -33.467  69.244  27.796  0.00  0.00    +0.051 C 
ENDBRANCH  16  18
ENDBRANCH  10  16
ENDBRANCH   8  14
ENDBRANCH   1   8
BRANCH   6  20
ATOM     20  N   LIG    1      -36.809  76.315  25.397  0.00  0.00    -0.305 N 
ATOM     21  H   LIG    1      -36.512  77.045  24.760  0.00  0.00    +0.150 HD
BRANCH  20  22
ATOM     22  C   LIG    1      -36.776  76.646  26.814  0.00  0.00    +0.119 C 
ATOM     23  C   LIG    1      -37.664  75.650  27.571  0.00  0.00    +0.034 C 
BRANCH  22  24
ATOM     24  C   LIG    1      -35.352  76.639  27.370  0.00  0.00    +0.061 A 
ATOM     25  N   LIG    1      -34.647  77.804  27.354  0.00  0.00    -0.255 NA
ATOM     26  C   LIG    1      -33.354  77.759  27.757  0.00  0.00    +0.149 A 
ATOM     27  C   LIG    1      -32.736  76.612  28.212  0.00  0.00    +0.141 A 
ATOM     28  F   LIG    1      -31.451  76.629  28.584  0.00  0.00    -0.204 F 
ATOM     29  C   LIG    1      -33.468  75.438  28.272  0.00  0.00    +0.042 A 
ATOM     30  C   LIG    1      -34.796  75.447  27.848  0.00  0.00    +0.028 A 
ENDBRANCH  22  24
ENDBRANCH  20  22
ENDBRANCH   6  20
TORSDOF 7
ENDMDL
