MODEL 1
REMARK VINA RESULT:      -5.7      0.000      0.000
REMARK  Name = pdb/CHEMBL3671423.pdb
REMARK                            x       y       z     vdW  Elec       q    Type
REMARK                         _______ _______ _______ _____ _____    ______ ____
ROOT
ATOM      1  C   LIG    1      -21.458  76.450  29.934  0.00  0.00    +0.197 C 
ATOM      2  O   LIG    1      -21.448  76.488  28.712  0.00  0.00    -0.287 OA
ENDROOT
BRANCH   1  10
ATOM      3  N   LIG    1      -23.785  74.597  32.102  0.00  0.00    -0.323 N 
ATOM      4  C   LIG    1      -24.637  75.584  31.650  0.00  0.00    +0.147 A 
ATOM      5  N   LIG    1      -25.939  75.713  31.953  0.00  0.00    -0.197 NA
ATOM      6  C   LIG    1      -26.501  76.822  31.464  0.00  0.00    +0.214 A 
ATOM      7  N   LIG    1      -25.881  77.781  30.769  0.00  0.00    -0.222 NA
ATOM      8  C   LIG    1      -24.579  77.622  30.471  0.00  0.00    +0.126 A 
ATOM      9  C   LIG    1      -23.906  76.465  30.869  0.00  0.00    +0.048 A 
ATOM     10  C   LIG    1      -22.605  75.924  30.690  0.00  0.00    +0.051 A 
ATOM     11  C   LIG    1      -22.579  74.745  31.432  0.00  0.00    +0.100 A 
BRANCH   3  12
ATOM     12  C   LIG    1      -24.067  73.589  33.158  0.00  0.00    +0.065 C 
ATOM     13  C   LIG    1      -25.422  72.884  32.886  0.00  0.00    +0.036 C 
ATOM     14  C   LIG    1      -23.018  72.447  33.187  0.00  0.00    +0.036 C 
BRANCH  12  15
ATOM     15  C   LIG    1      -24.108  74.286  34.543  0.00  0.00    +0.187 C 
BRANCH  15  17
ATOM     16  C   LIG    1      -22.852  75.664  36.004  0.00  0.00    +0.194 C 
ATOM     17  O   LIG    1      -22.802  74.739  34.925  0.00  0.00    -0.381 OA
ENDBRANCH  15  17
ENDBRANCH  12  15
ENDBRANCH   3  12
BRANCH   6  18
ATOM     18  N   LIG    1      -27.829  77.041  31.762  0.00  0.00    -0.327 N 
ATOM     19  H   LIG    1      -27.970  76.929  32.756  0.00  0.00    +0.145 HD
ATOM     20  H   LIG    1      -28.116  77.920  31.351  0.00  0.00    +0.145 HD
ENDBRANCH   6  18
ENDBRANCH   1  10
BRANCH   1  21
ATOM     21  C   LIG    1      -20.272  76.967  30.679  0.00  0.00    +0.042 A 
ATOM     22  C   LIG    1      -20.381  77.826  31.773  0.00  0.00    +0.038 A 
ATOM     23  C   LIG    1      -19.242  78.274  32.449  0.00  0.00    +0.052 A 
ATOM     24  C   LIG    1      -18.009  77.901  31.925  0.00  0.00    +0.134 A 
ATOM     25  N   LIG    1      -17.865  77.076  30.851  0.00  0.00    -0.261 NA
ATOM     26  C   LIG    1      -18.998  76.618  30.257  0.00  0.00    +0.122 A 
BRANCH  23  27
ATOM     27  N   LIG    1      -19.454  79.046  33.614  0.00  0.00    -0.283 N 
ATOM     28  H   LIG    1      -19.973  79.911  33.489  0.00  0.00    +0.155 HD
ATOM     29  C   LIG    1      -19.150  78.710  34.917  0.00  0.00    +0.239 C 
ATOM     30  O   LIG    1      -18.653  77.639  35.273  0.00  0.00    -0.273 OA
BRANCH  29  31
ATOM     31  C   LIG    1      -19.475  79.784  35.928  0.00  0.00    +0.239 C 
BRANCH  31  32
ATOM     32  N   LIG    1      -20.821  80.289  35.757  0.00  0.00    -0.262 N 
ATOM     33  N   LIG    1      -21.851  79.425  35.662  0.00  0.00    -0.167 NA
ATOM     34  C   LIG    1      -22.942  80.218  35.541  0.00  0.00    +0.165 A 
ATOM     35  C   LIG    1      -22.562  81.589  35.518  0.00  0.00    +0.053 A 
ATOM     36  C   LIG    1      -21.194  81.594  35.638  0.00  0.00    +0.109 A 
BRANCH  34  37
ATOM     37  C   LIG    1      -24.351  79.683  35.462  0.00  0.00    +0.436 C 
ATOM     38  F   LIG    1      -24.696  79.315  34.201  0.00  0.00    -0.164 F 
ATOM     39  F   LIG    1      -25.278  80.581  35.887  0.00  0.00    -0.164 F 
ATOM     40  F   LIG    1      -24.513  78.573  36.239  0.00  0.00    -0.164 F 
ENDBRANCH  34  37
ENDBRANCH  31  32
ENDBRANCH  29  31
ENDBRANCH  23  27
ENDBRANCH   1  21
TORSDOF 10
ENDMDL
MODEL 2
REMARK VINA RESULT:      -5.5     12.551     16.652
REMARK  Name = pdb/CHEMBL3671423.pdb
REMARK                            x       y       z     vdW  Elec       q    Type
REMARK                         _______ _______ _______ _____ _____    ______ ____
ROOT
ATOM      1  C   LIG    1      -34.249  73.339  29.828  0.00  0.00    +0.197 C 
ATOM      2  O   LIG    1      -34.352  73.491  31.037  0.00  0.00    -0.287 OA
ENDROOT
BRANCH   1  10
ATOM      3  N   LIG    1      -35.921  75.680  27.532  0.00  0.00    -0.323 N 
ATOM      4  C   LIG    1      -34.639  76.188  27.477  0.00  0.00    +0.147 A 
ATOM      5  N   LIG    1      -34.224  77.226  26.733  0.00  0.00    -0.197 NA
ATOM      6  C   LIG    1      -32.954  77.575  26.951  0.00  0.00    +0.214 A 
ATOM      7  N   LIG    1      -32.125  77.023  27.843  0.00  0.00    -0.222 NA
ATOM      8  C   LIG    1      -32.562  75.979  28.568  0.00  0.00    +0.126 A 
ATOM      9  C   LIG    1      -33.852  75.480  28.371  0.00  0.00    +0.048 A 
ATOM     10  C   LIG    1      -34.618  74.395  28.873  0.00  0.00    +0.051 A 
ATOM     11  C   LIG    1      -35.881  74.524  28.299  0.00  0.00    +0.100 A 
BRANCH   3  12
ATOM     12  C   LIG    1      -37.145  76.279  26.938  0.00  0.00    +0.065 C 
ATOM     13  C   LIG    1      -37.070  76.244  25.389  0.00  0.00    +0.036 C 
ATOM     14  C   LIG    1      -38.430  75.488  27.297  0.00  0.00    +0.036 C 
BRANCH  12  15
ATOM     15  C   LIG    1      -37.291  77.746  27.422  0.00  0.00    +0.187 C 
BRANCH  15  17
ATOM     16  C   LIG    1      -39.120  79.238  27.219  0.00  0.00    +0.194 C 
ATOM     17  O   LIG    1      -38.121  78.498  26.527  0.00  0.00    -0.381 OA
ENDBRANCH  15  17
ENDBRANCH  12  15
ENDBRANCH   3  12
BRANCH   6  18
ATOM     18  N   LIG    1      -32.466  78.656  26.247  0.00  0.00    -0.327 N 
ATOM     19  H   LIG    1      -33.239  79.175  25.855  0.00  0.00    +0.145 HD
ATOM     20  H   LIG    1      -31.819  79.165  26.836  0.00  0.00    +0.145 HD
ENDBRANCH   6  18
ENDBRANCH   1  10
BRANCH   1  21
ATOM     21  C   LIG    1      -33.743  72.033  29.308  0.00  0.00    +0.042 A 
ATOM     22  C   LIG    1      -34.497  71.208  28.474  0.00  0.00    +0.038 A 
ATOM     23  C   LIG    1      -33.978  70.000  28.000  0.00  0.00    +0.052 A 
ATOM     24  C   LIG    1      -32.724  69.623  28.472  0.00  0.00    +0.134 A 
ATOM     25  N   LIG    1      -31.966  70.397  29.297  0.00  0.00    -0.261 NA
ATOM     26  C   LIG    1      -32.486  71.590  29.690  0.00  0.00    +0.122 A 
BRANCH  23  27
ATOM     27  N   LIG    1      -34.767  69.287  27.069  0.00  0.00    -0.283 N 
ATOM     28  H   LIG    1      -35.592  68.826  27.442  0.00  0.00    +0.155 HD
ATOM     29  C   LIG    1      -34.622  69.242  25.698  0.00  0.00    +0.239 C 
ATOM     30  O   LIG    1      -33.767  69.860  25.057  0.00  0.00    -0.273 OA
BRANCH  29  31
ATOM     31  C   LIG    1      -35.618  68.350  24.995  0.00  0.00    +0.239 C 
BRANCH  31  32
ATOM     32  N   LIG    1      -36.697  69.114  24.407  0.00  0.00    -0.262 N 
ATOM     33  N   LIG    1      -37.166  70.207  25.042  0.00  0.00    -0.167 NA
ATOM     34  C   LIG    1      -38.128  70.685  24.220  0.00  0.00    +0.165 A 
ATOM     35  C   LIG    1      -38.278  69.841  23.084  0.00  0.00    +0.053 A 
ATOM     36  C   LIG    1      -37.359  68.834  23.249  0.00  0.00    +0.109 A 
BRANCH  34  37
ATOM     37  C   LIG    1      -38.901  71.952  24.496  0.00  0.00    +0.436 C 
ATOM     38  F   LIG    1      -39.871  72.180  23.571  0.00  0.00    -0.164 F 
ATOM     39  F   LIG    1      -38.108  73.054  24.528  0.00  0.00    -0.164 F 
ATOM     40  F   LIG    1      -39.533  71.903  25.704  0.00  0.00    -0.164 F 
ENDBRANCH  34  37
ENDBRANCH  31  32
ENDBRANCH  29  31
ENDBRANCH  23  27
ENDBRANCH   1  21
TORSDOF 10
ENDMDL
MODEL 3
REMARK VINA RESULT:      -5.4     15.261     17.376
REMARK  Name = pdb/CHEMBL3671423.pdb
REMARK                            x       y       z     vdW  Elec       q    Type
REMARK                         _______ _______ _______ _____ _____    ______ ____
ROOT
ATOM      1  C   LIG    1      -18.934  75.448  15.344  0.00  0.00    +0.197 C 
ATOM      2  O   LIG    1      -18.702  75.019  14.222  0.00  0.00    -0.287 OA
ENDROOT
BRANCH   1  10
ATOM      3  N   LIG    1      -21.051  73.355  17.509  0.00  0.00    -0.323 N 
ATOM      4  C   LIG    1      -19.874  73.304  18.228  0.00  0.00    +0.147 A 
ATOM      5  N   LIG    1      -19.680  72.669  19.395  0.00  0.00    -0.197 NA
ATOM      6  C   LIG    1      -18.414  72.690  19.819  0.00  0.00    +0.214 A 
ATOM      7  N   LIG    1      -17.374  73.232  19.176  0.00  0.00    -0.222 NA
ATOM      8  C   LIG    1      -17.598  73.871  18.014  0.00  0.00    +0.126 A 
ATOM      9  C   LIG    1      -18.896  73.975  17.510  0.00  0.00    +0.048 A 
ATOM     10  C   LIG    1      -19.516  74.604  16.399  0.00  0.00    +0.051 A 
ATOM     11  C   LIG    1      -20.858  74.235  16.453  0.00  0.00    +0.100 A 
BRANCH   3  12
ATOM     12  C   LIG    1      -22.289  72.572  17.765  0.00  0.00    +0.065 C 
ATOM     13  C   LIG    1      -22.068  71.078  17.409  0.00  0.00    +0.036 C 
ATOM     14  C   LIG    1      -22.696  72.574  19.261  0.00  0.00    +0.036 C 
BRANCH  12  15
ATOM     15  C   LIG    1      -23.451  73.147  16.914  0.00  0.00    +0.187 C 
BRANCH  15  17
ATOM     16  C   LIG    1      -25.403  72.548  15.713  0.00  0.00    +0.194 C 
ATOM     17  O   LIG    1      -24.479  72.165  16.724  0.00  0.00    -0.381 OA
ENDBRANCH  15  17
ENDBRANCH  12  15
ENDBRANCH   3  12
BRANCH   6  18
ATOM     18  N   LIG    1      -18.130  72.028  20.996  0.00  0.00    -0.327 N 
ATOM     19  H   LIG    1      -18.360  72.625  21.777  0.00  0.00    +0.145 HD
ATOM     20  H   LIG    1      -18.564  71.114  20.969  0.00  0.00    +0.145 HD
ENDBRANCH   6  18
ENDBRANCH   1  10
BRANCH   1  21
ATOM     21  C   LIG    1      -18.625  76.878  15.645  0.00  0.00    +0.042 A 
ATOM     22  C   LIG    1      -19.614  77.848  15.801  0.00  0.00    +0.038 A 
ATOM     23  C   LIG    1      -19.279  79.174  16.097  0.00  0.00    +0.052 A 
ATOM     24  C   LIG    1      -17.925  79.489  16.132  0.00  0.00    +0.134 A 
ATOM     25  N   LIG    1      -16.932  78.570  15.971  0.00  0.00    -0.261 NA
ATOM     26  C   LIG    1      -17.302  77.283  15.742  0.00  0.00    +0.122 A 
BRANCH  23  27
ATOM     27  N   LIG    1      -20.349  80.061  16.351  0.00  0.00    -0.283 N 
ATOM     28  H   LIG    1      -21.010  79.771  17.067  0.00  0.00    +0.155 HD
ATOM     29  C   LIG    1      -20.539  81.326  15.834  0.00  0.00    +0.239 C 
ATOM     30  O   LIG    1      -19.762  81.899  15.066  0.00  0.00    -0.273 OA
BRANCH  29  31
ATOM     31  C   LIG    1      -21.814  81.997  16.285  0.00  0.00    +0.239 C 
BRANCH  31  32
ATOM     32  N   LIG    1      -22.961  81.523  15.540  0.00  0.00    -0.262 N 
ATOM     33  N   LIG    1      -23.511  80.331  15.848  0.00  0.00    -0.167 NA
ATOM     34  C   LIG    1      -24.555  80.214  14.995  0.00  0.00    +0.165 A 
ATOM     35  C   LIG    1      -24.614  81.337  14.123  0.00  0.00    +0.053 A 
ATOM     36  C   LIG    1      -23.565  82.143  14.487  0.00  0.00    +0.109 A 
BRANCH  34  37
ATOM     37  C   LIG    1      -25.512  79.047  15.011  0.00  0.00    +0.436 C 
ATOM     38  F   LIG    1      -24.878  77.854  14.867  0.00  0.00    -0.164 F 
ATOM     39  F   LIG    1      -26.451  79.125  14.032  0.00  0.00    -0.164 F 
ATOM     40  F   LIG    1      -26.196  78.973  16.189  0.00  0.00    -0.164 F 
ENDBRANCH  34  37
ENDBRANCH  31  32
ENDBRANCH  29  31
ENDBRANCH  23  27
ENDBRANCH   1  21
TORSDOF 10
ENDMDL
MODEL 4
REMARK VINA RESULT:      -5.4     11.514     16.074
REMARK  Name = pdb/CHEMBL3671423.pdb
REMARK                            x       y       z     vdW  Elec       q    Type
REMARK                         _______ _______ _______ _____ _____    ______ ____
ROOT
ATOM      1  C   LIG    1      -33.968  72.268  29.666  0.00  0.00    +0.197 C 
ATOM      2  O   LIG    1      -34.439  71.975  30.756  0.00  0.00    -0.287 OA
ENDROOT
BRANCH   1  10
ATOM      3  N   LIG    1      -33.291  75.686  28.482  0.00  0.00    -0.323 N 
ATOM      4  C   LIG    1      -32.230  75.535  29.351  0.00  0.00    +0.147 A 
ATOM      5  N   LIG    1      -31.262  76.435  29.592  0.00  0.00    -0.197 NA
ATOM      6  C   LIG    1      -30.416  76.075  30.560  0.00  0.00    +0.214 A 
ATOM      7  N   LIG    1      -30.488  74.961  31.297  0.00  0.00    -0.222 NA
ATOM      8  C   LIG    1      -31.461  74.073  31.029  0.00  0.00    +0.126 A 
ATOM      9  C   LIG    1      -32.360  74.311  29.987  0.00  0.00    +0.048 A 
ATOM     10  C   LIG    1      -33.433  73.608  29.380  0.00  0.00    +0.051 A 
ATOM     11  C   LIG    1      -33.959  74.472  28.422  0.00  0.00    +0.100 A 
BRANCH   3  12
ATOM     12  C   LIG    1      -33.698  76.931  27.777  0.00  0.00    +0.065 C 
ATOM     13  C   LIG    1      -33.795  78.114  28.778  0.00  0.00    +0.036 C 
ATOM     14  C   LIG    1      -32.659  77.384  26.718  0.00  0.00    +0.036 C 
BRANCH  12  15
ATOM     15  C   LIG    1      -35.072  76.713  27.091  0.00  0.00    +0.187 C 
BRANCH  15  17
ATOM     16  C   LIG    1      -37.134  77.868  27.250  0.00  0.00    +0.194 C 
ATOM     17  O   LIG    1      -36.143  77.124  27.950  0.00  0.00    -0.381 OA
ENDBRANCH  15  17
ENDBRANCH  12  15
ENDBRANCH   3  12
BRANCH   6  18
ATOM     18  N   LIG    1      -29.415  76.964  30.888  0.00  0.00    -0.327 N 
ATOM     19  H   LIG    1      -28.978  76.672  31.750  0.00  0.00    +0.145 HD
ATOM     20  H   LIG    1      -28.813  77.089  30.084  0.00  0.00    +0.145 HD
ENDBRANCH   6  18
ENDBRANCH   1  10
BRANCH   1  21
ATOM     21  C   LIG    1      -33.948  71.232  28.590  0.00  0.00    +0.042 A 
ATOM     22  C   LIG    1      -34.852  71.229  27.527  0.00  0.00    +0.038 A 
ATOM     23  C   LIG    1      -34.787  70.246  26.534  0.00  0.00    +0.052 A 
ATOM     24  C   LIG    1      -33.849  69.234  26.708  0.00  0.00    +0.134 A 
ATOM     25  N   LIG    1      -32.961  69.198  27.740  0.00  0.00    -0.261 NA
ATOM     26  C   LIG    1      -33.021  70.203  28.653  0.00  0.00    +0.122 A 
BRANCH  23  27
ATOM     27  N   LIG    1      -35.667  70.389  25.437  0.00  0.00    -0.283 N 
ATOM     28  H   LIG    1      -35.307  70.903  24.638  0.00  0.00    +0.155 HD
ATOM     29  C   LIG    1      -36.909  69.813  25.271  0.00  0.00    +0.239 C 
ATOM     30  O   LIG    1      -37.443  69.040  26.071  0.00  0.00    -0.273 OA
BRANCH  29  31
ATOM     31  C   LIG    1      -37.610  70.203  23.991  0.00  0.00    +0.239 C 
BRANCH  31  32
ATOM     32  N   LIG    1      -38.404  71.401  24.160  0.00  0.00    -0.262 N 
ATOM     33  N   LIG    1      -37.822  72.530  24.612  0.00  0.00    -0.167 NA
ATOM     34  C   LIG    1      -38.823  73.441  24.623  0.00  0.00    +0.165 A 
ATOM     35  C   LIG    1      -40.047  72.842  24.212  0.00  0.00    +0.053 A 
ATOM     36  C   LIG    1      -39.744  71.530  23.944  0.00  0.00    +0.109 A 
BRANCH  34  37
ATOM     37  C   LIG    1      -38.624  74.887  25.007  0.00  0.00    +0.436 C 
ATOM     38  F   LIG    1      -38.755  75.091  26.344  0.00  0.00    -0.164 F 
ATOM     39  F   LIG    1      -39.498  75.720  24.385  0.00  0.00    -0.164 F 
ATOM     40  F   LIG    1      -37.376  75.329  24.677  0.00  0.00    -0.164 F 
ENDBRANCH  34  37
ENDBRANCH  31  32
ENDBRANCH  29  31
ENDBRANCH  23  27
ENDBRANCH   1  21
TORSDOF 10
ENDMDL
MODEL 5
REMARK VINA RESULT:      -5.3     13.269     16.938
REMARK  Name = pdb/CHEMBL3671423.pdb
REMARK                            x       y       z     vdW  Elec       q    Type
REMARK                         _______ _______ _______ _____ _____    ______ ____
ROOT
ATOM      1  C   LIG    1      -39.353  76.160  24.703  0.00  0.00    +0.197 C 
ATOM      2  O   LIG    1      -39.685  76.949  23.829  0.00  0.00    -0.287 OA
ENDROOT
BRANCH   1  10
ATOM      3  N   LIG    1      -38.774  72.526  24.642  0.00  0.00    -0.323 N 
ATOM      4  C   LIG    1      -39.957  72.577  23.933  0.00  0.00    +0.147 A 
ATOM      5  N   LIG    1      -40.606  71.535  23.389  0.00  0.00    -0.197 NA
ATOM      6  C   LIG    1      -41.785  71.853  22.849  0.00  0.00    +0.214 A 
ATOM      7  N   LIG    1      -42.354  73.063  22.851  0.00  0.00    -0.222 NA
ATOM      8  C   LIG    1      -41.678  74.091  23.394  0.00  0.00    +0.126 A 
ATOM      9  C   LIG    1      -40.402  73.889  23.924  0.00  0.00    +0.048 A 
ATOM     10  C   LIG    1      -39.390  74.704  24.496  0.00  0.00    +0.051 A 
ATOM     11  C   LIG    1      -38.378  73.832  24.890  0.00  0.00    +0.100 A 
BRANCH   3  12
ATOM     12  C   LIG    1      -38.071  71.305  25.119  0.00  0.00    +0.065 C 
ATOM     13  C   LIG    1      -39.044  70.394  25.914  0.00  0.00    +0.036 C 
ATOM     14  C   LIG    1      -37.555  70.422  23.953  0.00  0.00    +0.036 C 
BRANCH  12  15
ATOM     15  C   LIG    1      -36.878  71.713  26.023  0.00  0.00    +0.187 C 
BRANCH  15  17
ATOM     16  C   LIG    1      -35.232  70.319  27.000  0.00  0.00    +0.194 C 
ATOM     17  O   LIG    1      -35.747  70.863  25.791  0.00  0.00    -0.381 OA
ENDBRANCH  15  17
ENDBRANCH  12  15
ENDBRANCH   3  12
BRANCH   6  18
ATOM     18  N   LIG    1      -42.526  70.828  22.300  0.00  0.00    -0.327 N 
ATOM     19  H   LIG    1      -41.952  70.314  21.647  0.00  0.00    +0.145 HD
ATOM     20  H   LIG    1      -42.960  70.301  23.047  0.00  0.00    +0.145 HD
ENDBRANCH   6  18
ENDBRANCH   1  10
BRANCH   1  21
ATOM     21  C   LIG    1      -38.908  76.696  26.024  0.00  0.00    +0.042 A 
ATOM     22  C   LIG    1      -37.685  77.342  26.205  0.00  0.00    +0.038 A 
ATOM     23  C   LIG    1      -37.316  77.841  27.458  0.00  0.00    +0.052 A 
ATOM     24  C   LIG    1      -38.176  77.579  28.519  0.00  0.00    +0.134 A 
ATOM     25  N   LIG    1      -39.370  76.940  28.382  0.00  0.00    -0.261 NA
ATOM     26  C   LIG    1      -39.717  76.521  27.137  0.00  0.00    +0.122 A 
BRANCH  23  27
ATOM     27  N   LIG    1      -36.114  78.581  27.521  0.00  0.00    -0.283 N 
ATOM     28  H   LIG    1      -35.280  78.112  27.179  0.00  0.00    +0.155 HD
ATOM     29  C   LIG    1      -35.955  79.905  27.875  0.00  0.00    +0.239 C 
ATOM     30  O   LIG    1      -36.874  80.671  28.176  0.00  0.00    -0.273 OA
BRANCH  29  31
ATOM     31  C   LIG    1      -34.522  80.382  27.874  0.00  0.00    +0.239 C 
BRANCH  31  32
ATOM     32  N   LIG    1      -33.593  79.282  27.726  0.00  0.00    -0.262 N 
ATOM     33  N   LIG    1      -33.483  78.364  28.708  0.00  0.00    -0.167 NA
ATOM     34  C   LIG    1      -32.569  77.483  28.240  0.00  0.00    +0.165 A 
ATOM     35  C   LIG    1      -32.082  77.897  26.969  0.00  0.00    +0.053 A 
ATOM     36  C   LIG    1      -32.745  79.064  26.682  0.00  0.00    +0.109 A 
BRANCH  34  37
ATOM     37  C   LIG    1      -32.163  76.235  28.987  0.00  0.00    +0.436 C 
ATOM     38  F   LIG    1      -30.820  76.028  28.959  0.00  0.00    -0.164 F 
ATOM     39  F   LIG    1      -32.753  75.114  28.495  0.00  0.00    -0.164 F 
ATOM     40  F   LIG    1      -32.509  76.301  30.304  0.00  0.00    -0.164 F 
ENDBRANCH  34  37
ENDBRANCH  31  32
ENDBRANCH  29  31
ENDBRANCH  23  27
ENDBRANCH   1  21
TORSDOF 10
ENDMDL
MODEL 6
REMARK VINA RESULT:      -5.3     13.240     17.199
REMARK  Name = pdb/CHEMBL3671423.pdb
REMARK                            x       y       z     vdW  Elec       q    Type
REMARK                         _______ _______ _______ _____ _____    ______ ____
ROOT
ATOM      1  C   LIG    1      -34.635  73.155  29.845  0.00  0.00    +0.197 C 
ATOM      2  O   LIG    1      -34.965  73.203  31.023  0.00  0.00    -0.287 OA
ENDROOT
BRANCH   1  10
ATOM      3  N   LIG    1      -36.206  75.575  27.561  0.00  0.00    -0.323 N 
ATOM      4  C   LIG    1      -34.906  76.035  27.517  0.00  0.00    +0.147 A 
ATOM      5  N   LIG    1      -34.449  77.064  26.784  0.00  0.00    -0.197 NA
ATOM      6  C   LIG    1      -33.168  77.365  27.012  0.00  0.00    +0.214 A 
ATOM      7  N   LIG    1      -32.365  76.775  27.904  0.00  0.00    -0.222 NA
ATOM      8  C   LIG    1      -32.845  75.741  28.618  0.00  0.00    +0.126 A 
ATOM      9  C   LIG    1      -34.151  75.292  28.409  0.00  0.00    +0.048 A 
ATOM     10  C   LIG    1      -34.959  74.232  28.898  0.00  0.00    +0.051 A 
ATOM     11  C   LIG    1      -36.213  74.412  28.318  0.00  0.00    +0.100 A 
BRANCH   3  12
ATOM     12  C   LIG    1      -37.404  76.224  26.965  0.00  0.00    +0.065 C 
ATOM     13  C   LIG    1      -38.693  75.746  27.685  0.00  0.00    +0.036 C 
ATOM     14  C   LIG    1      -37.395  77.765  27.138  0.00  0.00    +0.036 C 
BRANCH  12  15
ATOM     15  C   LIG    1      -37.487  75.875  25.456  0.00  0.00    +0.187 C 
BRANCH  15  17
ATOM     16  C   LIG    1      -39.120  74.439  24.516  0.00  0.00    +0.194 C 
ATOM     17  O   LIG    1      -37.915  74.519  25.269  0.00  0.00    -0.381 OA
ENDBRANCH  15  17
ENDBRANCH  12  15
ENDBRANCH   3  12
BRANCH   6  18
ATOM     18  N   LIG    1      -32.637  78.433  26.320  0.00  0.00    -0.327 N 
ATOM     19  H   LIG    1      -31.854  78.808  26.836  0.00  0.00    +0.145 HD
ATOM     20  H   LIG    1      -32.468  78.151  25.363  0.00  0.00    +0.145 HD
ENDBRANCH   6  18
ENDBRANCH   1  10
BRANCH   1  21
ATOM     21  C   LIG    1      -33.890  71.956  29.357  0.00  0.00    +0.042 A 
ATOM     22  C   LIG    1      -34.451  71.020  28.488  0.00  0.00    +0.038 A 
ATOM     23  C   LIG    1      -33.711  69.919  28.045  0.00  0.00    +0.052 A 
ATOM     24  C   LIG    1      -32.438  69.757  28.582  0.00  0.00    +0.134 A 
ATOM     25  N   LIG    1      -31.864  70.643  29.443  0.00  0.00    -0.261 NA
ATOM     26  C   LIG    1      -32.597  71.729  29.804  0.00  0.00    +0.122 A 
BRANCH  23  27
ATOM     27  N   LIG    1      -34.320  69.088  27.077  0.00  0.00    -0.283 N 
ATOM     28  H   LIG    1      -34.911  68.343  27.435  0.00  0.00    +0.155 HD
ATOM     29  C   LIG    1      -34.309  69.241  25.706  0.00  0.00    +0.239 C 
ATOM     30  O   LIG    1      -33.768  70.171  25.103  0.00  0.00    -0.273 OA
BRANCH  29  31
ATOM     31  C   LIG    1      -35.032  68.149  24.953  0.00  0.00    +0.239 C 
BRANCH  31  32
ATOM     32  N   LIG    1      -36.150  68.672  24.197  0.00  0.00    -0.262 N 
ATOM     33  N   LIG    1      -36.293  68.336  22.899  0.00  0.00    -0.167 NA
ATOM     34  C   LIG    1      -37.431  68.961  22.516  0.00  0.00    +0.165 A 
ATOM     35  C   LIG    1      -37.965  69.726  23.590  0.00  0.00    +0.053 A 
ATOM     36  C   LIG    1      -37.106  69.533  24.644  0.00  0.00    +0.109 A 
BRANCH  34  37
ATOM     37  C   LIG    1      -38.028  68.825  21.136  0.00  0.00    +0.436 C 
ATOM     38  F   LIG    1      -39.250  69.412  21.039  0.00  0.00    -0.164 F 
ATOM     39  F   LIG    1      -38.172  67.529  20.753  0.00  0.00    -0.164 F 
ATOM     40  F   LIG    1      -37.246  69.417  20.188  0.00  0.00    -0.164 F 
ENDBRANCH  34  37
ENDBRANCH  31  32
ENDBRANCH  29  31
ENDBRANCH  23  27
ENDBRANCH   1  21
TORSDOF 10
ENDMDL
MODEL 7
REMARK VINA RESULT:      -5.2      1.548      2.315
REMARK  Name = pdb/CHEMBL3671423.pdb
REMARK                            x       y       z     vdW  Elec       q    Type
REMARK                         _______ _______ _______ _____ _____    ______ ____
ROOT
ATOM      1  C   LIG    1      -21.660  76.430  29.911  0.00  0.00    +0.197 C 
ATOM      2  O   LIG    1      -21.626  76.474  28.689  0.00  0.00    -0.287 OA
ENDROOT
BRANCH   1  10
ATOM      3  N   LIG    1      -23.979  74.447  31.969  0.00  0.00    -0.323 N 
ATOM      4  C   LIG    1      -24.828  75.469  31.595  0.00  0.00    +0.147 A 
ATOM      5  N   LIG    1      -26.125  75.587  31.920  0.00  0.00    -0.197 NA
ATOM      6  C   LIG    1      -26.684  76.731  31.515  0.00  0.00    +0.214 A 
ATOM      7  N   LIG    1      -26.063  77.732  30.883  0.00  0.00    -0.222 NA
ATOM      8  C   LIG    1      -24.766  77.584  30.561  0.00  0.00    +0.126 A 
ATOM      9  C   LIG    1      -24.098  76.397  30.870  0.00  0.00    +0.048 A 
ATOM     10  C   LIG    1      -22.803  75.861  30.641  0.00  0.00    +0.051 A 
ATOM     11  C   LIG    1      -22.779  74.633  31.298  0.00  0.00    +0.100 A 
BRANCH   3  12
ATOM     12  C   LIG    1      -24.259  73.370  32.956  0.00  0.00    +0.065 C 
ATOM     13  C   LIG    1      -22.947  72.634  33.340  0.00  0.00    +0.036 C 
ATOM     14  C   LIG    1      -24.819  73.918  34.294  0.00  0.00    +0.036 C 
BRANCH  12  15
ATOM     15  C   LIG    1      -25.268  72.360  32.349  0.00  0.00    +0.187 C 
BRANCH  15  17
ATOM     16  C   LIG    1      -24.746  71.091  30.418  0.00  0.00    +0.194 C 
ATOM     17  O   LIG    1      -24.588  71.211  31.827  0.00  0.00    -0.381 OA
ENDBRANCH  15  17
ENDBRANCH  12  15
ENDBRANCH   3  12
BRANCH   6  18
ATOM     18  N   LIG    1      -28.007  76.938  31.843  0.00  0.00    -0.327 N 
ATOM     19  H   LIG    1      -28.585  76.305  31.309  0.00  0.00    +0.145 HD
ATOM     20  H   LIG    1      -28.103  76.915  32.850  0.00  0.00    +0.145 HD
ENDBRANCH   6  18
ENDBRANCH   1  10
BRANCH   1  21
ATOM     21  C   LIG    1      -20.507  76.983  30.682  0.00  0.00    +0.042 A 
ATOM     22  C   LIG    1      -20.656  77.962  31.665  0.00  0.00    +0.038 A 
ATOM     23  C   LIG    1      -19.549  78.441  32.373  0.00  0.00    +0.052 A 
ATOM     24  C   LIG    1      -18.299  77.967  31.986  0.00  0.00    +0.134 A 
ATOM     25  N   LIG    1      -18.116  77.023  31.023  0.00  0.00    -0.261 NA
ATOM     26  C   LIG    1      -19.224  76.543  30.398  0.00  0.00    +0.122 A 
BRANCH  23  27
ATOM     27  N   LIG    1      -19.809  79.345  33.427  0.00  0.00    -0.283 N 
ATOM     28  H   LIG    1      -19.886  80.325  33.168  0.00  0.00    +0.155 HD
ATOM     29  C   LIG    1      -20.091  79.048  34.745  0.00  0.00    +0.239 C 
ATOM     30  O   LIG    1      -20.186  77.908  35.207  0.00  0.00    -0.273 OA
BRANCH  29  31
ATOM     31  C   LIG    1      -20.284  80.258  35.628  0.00  0.00    +0.239 C 
BRANCH  31  32
ATOM     32  N   LIG    1      -21.686  80.576  35.800  0.00  0.00    -0.262 N 
ATOM     33  N   LIG    1      -22.049  81.550  36.658  0.00  0.00    -0.167 NA
ATOM     34  C   LIG    1      -23.397  81.603  36.552  0.00  0.00    +0.165 A 
ATOM     35  C   LIG    1      -23.865  80.611  35.645  0.00  0.00    +0.053 A 
ATOM     36  C   LIG    1      -22.742  79.959  35.199  0.00  0.00    +0.109 A 
BRANCH  34  37
ATOM     37  C   LIG    1      -24.249  82.602  37.297  0.00  0.00    +0.436 C 
ATOM     38  F   LIG    1      -25.164  82.004  38.103  0.00  0.00    -0.164 F 
ATOM     39  F   LIG    1      -24.928  83.435  36.465  0.00  0.00    -0.164 F 
ATOM     40  F   LIG    1      -23.496  83.402  38.105  0.00  0.00    -0.164 F 
ENDBRANCH  34  37
ENDBRANCH  31  32
ENDBRANCH  29  31
ENDBRANCH  23  27
ENDBRANCH   1  21
TORSDOF 10
ENDMDL
MODEL 8
REMARK VINA RESULT:      -5.2     16.204     20.077
REMARK  Name = pdb/CHEMBL3671423.pdb
REMARK                            x       y       z     vdW  Elec       q    Type
REMARK                         _______ _______ _______ _____ _____    ______ ____
ROOT
ATOM      1  C   LIG    1      -40.974  71.076  23.882  0.00  0.00    +0.197 C 
ATOM      2  O   LIG    1      -41.867  70.550  24.533  0.00  0.00    -0.287 OA
ENDROOT
BRANCH   1  10
ATOM      3  N   LIG    1      -40.962  74.756  23.857  0.00  0.00    -0.323 N 
ATOM      4  C   LIG    1      -39.723  74.531  24.422  0.00  0.00    +0.147 A 
ATOM      5  N   LIG    1      -38.832  75.467  24.787  0.00  0.00    -0.197 NA
ATOM      6  C   LIG    1      -37.756  74.977  25.408  0.00  0.00    +0.214 A 
ATOM      7  N   LIG    1      -37.537  73.694  25.715  0.00  0.00    -0.222 NA
ATOM      8  C   LIG    1      -38.441  72.776  25.329  0.00  0.00    +0.126 A 
ATOM      9  C   LIG    1      -39.571  73.166  24.607  0.00  0.00    +0.048 A 
ATOM     10  C   LIG    1      -40.669  72.510  23.990  0.00  0.00    +0.051 A 
ATOM     11  C   LIG    1      -41.489  73.523  23.498  0.00  0.00    +0.100 A 
BRANCH   3  12
ATOM     12  C   LIG    1      -41.652  76.065  23.709  0.00  0.00    +0.065 C 
ATOM     13  C   LIG    1      -40.677  77.130  23.141  0.00  0.00    +0.036 C 
ATOM     14  C   LIG    1      -42.824  76.010  22.695  0.00  0.00    +0.036 C 
BRANCH  12  15
ATOM     15  C   LIG    1      -42.187  76.528  25.090  0.00  0.00    +0.187 C 
BRANCH  15  17
ATOM     16  C   LIG    1      -40.998  77.583  26.846  0.00  0.00    +0.194 C 
ATOM     17  O   LIG    1      -41.512  77.716  25.526  0.00  0.00    -0.381 OA
ENDBRANCH  15  17
ENDBRANCH  12  15
ENDBRANCH   3  12
BRANCH   6  18
ATOM     18  N   LIG    1      -36.811  75.882  25.844  0.00  0.00    -0.327 N 
ATOM     19  H   LIG    1      -36.308  76.246  25.049  0.00  0.00    +0.145 HD
ATOM     20  H   LIG    1      -37.259  76.553  26.455  0.00  0.00    +0.145 HD
ENDBRANCH   6  18
ENDBRANCH   1  10
BRANCH   1  21
ATOM     21  C   LIG    1      -40.180  70.232  22.940  0.00  0.00    +0.042 A 
ATOM     22  C   LIG    1      -38.847  69.891  23.171  0.00  0.00    +0.038 A 
ATOM     23  C   LIG    1      -38.146  69.085  22.268  0.00  0.00    +0.052 A 
ATOM     24  C   LIG    1      -38.808  68.726  21.098  0.00  0.00    +0.134 A 
ATOM     25  N   LIG    1      -40.103  69.052  20.834  0.00  0.00    -0.261 NA
ATOM     26  C   LIG    1      -40.765  69.788  21.764  0.00  0.00    +0.122 A 
BRANCH  23  27
ATOM     27  N   LIG    1      -36.839  68.697  22.641  0.00  0.00    -0.283 N 
ATOM     28  H   LIG    1      -36.223  69.442  22.952  0.00  0.00    +0.155 HD
ATOM     29  C   LIG    1      -36.338  67.416  22.750  0.00  0.00    +0.239 C 
ATOM     30  O   LIG    1      -36.986  66.385  22.556  0.00  0.00    -0.273 OA
BRANCH  29  31
ATOM     31  C   LIG    1      -34.879  67.350  23.138  0.00  0.00    +0.239 C 
BRANCH  31  32
ATOM     32  N   LIG    1      -34.680  67.702  24.528  0.00  0.00    -0.262 N 
ATOM     33  N   LIG    1      -34.599  69.000  24.883  0.00  0.00    -0.167 NA
ATOM     34  C   LIG    1      -34.445  68.969  26.227  0.00  0.00    +0.165 A 
ATOM     35  C   LIG    1      -34.388  67.625  26.692  0.00  0.00    +0.053 A 
ATOM     36  C   LIG    1      -34.521  66.842  25.573  0.00  0.00    +0.109 A 
BRANCH  34  37
ATOM     37  C   LIG    1      -34.367  70.211  27.082  0.00  0.00    +0.436 C 
ATOM     38  F   LIG    1      -34.281  71.346  26.339  0.00  0.00    -0.164 F 
ATOM     39  F   LIG    1      -33.302  70.201  27.926  0.00  0.00    -0.164 F 
ATOM     40  F   LIG    1      -35.473  70.354  27.866  0.00  0.00    -0.164 F 
ENDBRANCH  34  37
ENDBRANCH  31  32
ENDBRANCH  29  31
ENDBRANCH  23  27
ENDBRANCH   1  21
TORSDOF 10
ENDMDL
MODEL 9
REMARK VINA RESULT:      -5.2     12.613     16.511
REMARK  Name = pdb/CHEMBL3671423.pdb
REMARK                            x       y       z     vdW  Elec       q    Type
REMARK                         _______ _______ _______ _____ _____    ______ ____
ROOT
ATOM      1  C   LIG    1      -34.711  74.197  29.972  0.00  0.00    +0.197 C 
ATOM      2  O   LIG    1      -34.531  74.051  31.173  0.00  0.00    -0.287 OA
ENDROOT
BRANCH   1  10
ATOM      3  N   LIG    1      -35.907  77.509  28.900  0.00  0.00    -0.323 N 
ATOM      4  C   LIG    1      -34.697  77.480  28.235  0.00  0.00    +0.147 A 
ATOM      5  N   LIG    1      -34.211  78.433  27.423  0.00  0.00    -0.197 NA
ATOM      6  C   LIG    1      -32.968  78.198  26.996  0.00  0.00    +0.214 A 
ATOM      7  N   LIG    1      -32.199  77.159  27.337  0.00  0.00    -0.222 NA
ATOM      8  C   LIG    1      -32.714  76.214  28.143  0.00  0.00    +0.126 A 
ATOM      9  C   LIG    1      -34.032  76.319  28.593  0.00  0.00    +0.048 A 
ATOM     10  C   LIG    1      -34.916  75.522  29.367  0.00  0.00    +0.051 A 
ATOM     11  C   LIG    1      -36.083  76.271  29.501  0.00  0.00    +0.100 A 
BRANCH   3  12
ATOM     12  C   LIG    1      -36.835  78.664  29.015  0.00  0.00    +0.065 C 
ATOM     13  C   LIG    1      -37.259  79.162  27.608  0.00  0.00    +0.036 C 
ATOM     14  C   LIG    1      -38.162  78.294  29.728  0.00  0.00    +0.036 C 
BRANCH  12  15
ATOM     15  C   LIG    1      -36.138  79.814  29.789  0.00  0.00    +0.187 C 
BRANCH  15  17
ATOM     16  C   LIG    1      -34.726  81.577  29.076  0.00  0.00    +0.194 C 
ATOM     17  O   LIG    1      -36.013  80.981  28.965  0.00  0.00    -0.381 OA
ENDBRANCH  15  17
ENDBRANCH  12  15
ENDBRANCH   3  12
BRANCH   6  18
ATOM     18  N   LIG    1      -32.388  79.151  26.184  0.00  0.00    -0.327 N 
ATOM     19  H   LIG    1      -33.019  79.932  26.085  0.00  0.00    +0.145 HD
ATOM     20  H   LIG    1      -31.457  79.349  26.527  0.00  0.00    +0.145 HD
ENDBRANCH   6  18
ENDBRANCH   1  10
BRANCH   1  21
ATOM     21  C   LIG    1      -34.735  72.987  29.097  0.00  0.00    +0.042 A 
ATOM     22  C   LIG    1      -35.599  72.856  28.010  0.00  0.00    +0.038 A 
ATOM     23  C   LIG    1      -35.576  71.710  27.209  0.00  0.00    +0.052 A 
ATOM     24  C   LIG    1      -34.726  70.682  27.603  0.00  0.00    +0.134 A 
ATOM     25  N   LIG    1      -33.879  70.769  28.666  0.00  0.00    -0.261 NA
ATOM     26  C   LIG    1      -33.893  71.923  29.384  0.00  0.00    +0.122 A 
BRANCH  23  27
ATOM     27  N   LIG    1      -36.404  71.716  26.064  0.00  0.00    -0.283 N 
ATOM     28  H   LIG    1      -36.011  72.142  25.230  0.00  0.00    +0.155 HD
ATOM     29  C   LIG    1      -37.631  71.105  25.906  0.00  0.00    +0.239 C 
ATOM     30  O   LIG    1      -38.195  70.420  26.763  0.00  0.00    -0.273 OA
BRANCH  29  31
ATOM     31  C   LIG    1      -38.274  71.339  24.559  0.00  0.00    +0.239 C 
BRANCH  31  32
ATOM     32  N   LIG    1      -38.838  72.668  24.460  0.00  0.00    -0.262 N 
ATOM     33  N   LIG    1      -38.141  73.726  24.921  0.00  0.00    -0.167 NA
ATOM     34  C   LIG    1      -38.931  74.791  24.650  0.00  0.00    +0.165 A 
ATOM     35  C   LIG    1      -40.150  74.367  24.052  0.00  0.00    +0.053 A 
ATOM     36  C   LIG    1      -40.064  73.000  23.965  0.00  0.00    +0.109 A 
BRANCH  34  37
ATOM     37  C   LIG    1      -38.529  76.216  24.941  0.00  0.00    +0.436 C 
ATOM     38  F   LIG    1      -37.714  76.731  23.983  0.00  0.00    -0.164 F 
ATOM     39  F   LIG    1      -37.885  76.348  26.130  0.00  0.00    -0.164 F 
ATOM     40  F   LIG    1      -39.612  77.043  25.002  0.00  0.00    -0.164 F 
ENDBRANCH  34  37
ENDBRANCH  31  32
ENDBRANCH  29  31
ENDBRANCH  23  27
ENDBRANCH   1  21
TORSDOF 10
ENDMDL
