MODEL 1
REMARK VINA RESULT:      -6.0      0.000      0.000
REMARK  Name = pdb/CHEMBL175321.pdb
REMARK                            x       y       z     vdW  Elec       q    Type
REMARK                         _______ _______ _______ _____ _____    ______ ____
ROOT
ATOM      1  C   LIG    1      -40.987  80.803  24.243  0.00  0.00    +0.117 A 
ATOM      2  C   LIG    1      -41.929  79.885  23.813  0.00  0.00    +0.049 A 
ATOM      3  C   LIG    1      -41.596  78.534  23.842  0.00  0.00    -0.036 A 
ATOM      4  C   LIG    1      -42.513  77.452  23.401  0.00  0.00    +0.040 C 
ATOM      5  C   LIG    1      -41.690  76.198  23.648  0.00  0.00    +0.041 C 
ATOM      6  C   LIG    1      -40.320  76.582  24.194  0.00  0.00    -0.027 C 
ATOM      7  C   LIG    1      -39.378  75.652  24.485  0.00  0.00    +0.050 C 
ATOM      8  C   LIG    1      -39.514  74.172  24.330  0.00  0.00    +0.009 A 
ATOM      9  C   LIG    1      -40.518  73.316  23.893  0.00  0.00    +0.010 A 
ATOM     10  C   LIG    1      -40.289  71.935  23.880  0.00  0.00    +0.001 A 
ATOM     11  C   LIG    1      -39.064  71.405  24.302  0.00  0.00    +0.002 A 
ATOM     12  C   LIG    1      -38.050  72.252  24.745  0.00  0.00    +0.024 A 
ATOM     13  C   LIG    1      -38.304  73.612  24.746  0.00  0.00    +0.042 A 
ATOM     14  N   LIG    1      -37.421  74.600  25.150  0.00  0.00    -0.281 N 
ATOM     15  H   LIG    1      -36.485  74.452  25.493  0.00  0.00    +0.155 HD
ATOM     16  C   LIG    1      -37.974  75.863  25.030  0.00  0.00    +0.249 C 
ATOM     17  O   LIG    1      -37.391  76.888  25.322  0.00  0.00    -0.270 OA
ATOM     18  C   LIG    1      -40.351  78.064  24.287  0.00  0.00    -0.018 A 
ATOM     19  C   LIG    1      -39.422  79.007  24.712  0.00  0.00    +0.012 A 
ATOM     20  C   LIG    1      -39.739  80.377  24.690  0.00  0.00    +0.046 A 
ENDROOT
BRANCH   1  21
ATOM     21  O   LIG    1      -41.326  82.122  24.209  0.00  0.00    -0.507 OA
ATOM     22  H   LIG    1      -41.532  82.362  23.291  0.00  0.00    +0.292 HD
ENDBRANCH   1  21
TORSDOF 1
ENDMDL
MODEL 2
REMARK VINA RESULT:      -6.0      2.042      6.443
REMARK  Name = pdb/CHEMBL175321.pdb
REMARK                            x       y       z     vdW  Elec       q    Type
REMARK                         _______ _______ _______ _____ _____    ______ ____
ROOT
ATOM      1  C   LIG    1      -38.547  70.573  24.294  0.00  0.00    +0.117 A 
ATOM      2  C   LIG    1      -39.795  70.951  23.832  0.00  0.00    +0.049 A 
ATOM      3  C   LIG    1      -40.124  72.304  23.847  0.00  0.00    -0.036 A 
ATOM      4  C   LIG    1      -41.431  72.837  23.387  0.00  0.00    +0.040 C 
ATOM      5  C   LIG    1      -41.270  74.335  23.592  0.00  0.00    +0.041 C 
ATOM      6  C   LIG    1      -39.897  74.626  24.188  0.00  0.00    -0.027 C 
ATOM      7  C   LIG    1      -39.500  75.886  24.489  0.00  0.00    +0.050 C 
ATOM      8  C   LIG    1      -40.294  77.137  24.298  0.00  0.00    +0.009 A 
ATOM      9  C   LIG    1      -41.560  77.434  23.808  0.00  0.00    +0.010 A 
ATOM     10  C   LIG    1      -41.994  78.766  23.778  0.00  0.00    +0.001 A 
ATOM     11  C   LIG    1      -41.168  79.801  24.234  0.00  0.00    +0.002 A 
ATOM     12  C   LIG    1      -39.896  79.517  24.726  0.00  0.00    +0.024 A 
ATOM     13  C   LIG    1      -39.495  78.193  24.744  0.00  0.00    +0.042 A 
ATOM     14  N   LIG    1      -38.273  77.724  25.195  0.00  0.00    -0.281 N 
ATOM     15  H   LIG    1      -37.523  78.287  25.565  0.00  0.00    +0.155 HD
ATOM     16  C   LIG    1      -38.177  76.347  25.083  0.00  0.00    +0.249 C 
ATOM     17  O   LIG    1      -37.200  75.707  25.415  0.00  0.00    -0.270 OA
ATOM     18  C   LIG    1      -39.247  73.297  24.310  0.00  0.00    -0.018 A 
ATOM     19  C   LIG    1      -37.999  72.890  24.769  0.00  0.00    +0.012 A 
ATOM     20  C   LIG    1      -37.649  71.528  24.763  0.00  0.00    +0.046 A 
ENDROOT
BRANCH   1  21
ATOM     21  O   LIG    1      -38.239  69.245  24.274  0.00  0.00    -0.507 OA
ATOM     22  H   LIG    1      -37.345  69.144  23.911  0.00  0.00    +0.292 HD
ENDBRANCH   1  21
TORSDOF 1
ENDMDL
MODEL 3
REMARK VINA RESULT:      -6.0      1.802      2.855
REMARK  Name = pdb/CHEMBL175321.pdb
REMARK                            x       y       z     vdW  Elec       q    Type
REMARK                         _______ _______ _______ _____ _____    ______ ____
ROOT
ATOM      1  C   LIG    1      -42.374  77.626  23.564  0.00  0.00    +0.117 A 
ATOM      2  C   LIG    1      -42.942  76.448  23.112  0.00  0.00    +0.049 A 
ATOM      3  C   LIG    1      -42.221  75.266  23.259  0.00  0.00    -0.036 A 
ATOM      4  C   LIG    1      -42.715  73.940  22.809  0.00  0.00    +0.040 C 
ATOM      5  C   LIG    1      -41.582  73.010  23.211  0.00  0.00    +0.041 C 
ATOM      6  C   LIG    1      -40.459  73.816  23.851  0.00  0.00    -0.027 C 
ATOM      7  C   LIG    1      -39.316  73.232  24.286  0.00  0.00    +0.050 C 
ATOM      8  C   LIG    1      -38.980  71.777  24.217  0.00  0.00    +0.009 A 
ATOM      9  C   LIG    1      -39.625  70.639  23.748  0.00  0.00    +0.010 A 
ATOM     10  C   LIG    1      -38.989  69.396  23.846  0.00  0.00    +0.001 A 
ATOM     11  C   LIG    1      -37.713  69.284  24.411  0.00  0.00    +0.002 A 
ATOM     12  C   LIG    1      -37.055  70.416  24.887  0.00  0.00    +0.024 A 
ATOM     13  C   LIG    1      -37.708  71.631  24.776  0.00  0.00    +0.042 A 
ATOM     14  N   LIG    1      -37.214  72.856  25.192  0.00  0.00    -0.281 N 
ATOM     15  H   LIG    1      -36.319  73.016  25.627  0.00  0.00    +0.155 HD
ATOM     16  C   LIG    1      -38.107  73.883  24.941  0.00  0.00    +0.249 C 
ATOM     17  O   LIG    1      -37.896  75.047  25.217  0.00  0.00    -0.270 OA
ATOM     18  C   LIG    1      -40.946  75.218  23.844  0.00  0.00    -0.018 A 
ATOM     19  C   LIG    1      -40.398  76.415  24.289  0.00  0.00    +0.012 A 
ATOM     20  C   LIG    1      -41.110  77.620  24.148  0.00  0.00    +0.046 A 
ENDROOT
BRANCH   1  21
ATOM     21  O   LIG    1      -43.091  78.774  23.413  0.00  0.00    -0.507 OA
ATOM     22  H   LIG    1      -43.854  78.740  24.013  0.00  0.00    +0.292 HD
ENDBRANCH   1  21
TORSDOF 1
ENDMDL
MODEL 4
REMARK VINA RESULT:      -5.8      3.252      6.856
REMARK  Name = pdb/CHEMBL175321.pdb
REMARK                            x       y       z     vdW  Elec       q    Type
REMARK                         _______ _______ _______ _____ _____    ______ ____
ROOT
ATOM      1  C   LIG    1      -41.835  69.021  22.388  0.00  0.00    +0.117 A 
ATOM      2  C   LIG    1      -42.573  70.179  22.216  0.00  0.00    +0.049 A 
ATOM      3  C   LIG    1      -42.034  71.381  22.667  0.00  0.00    -0.036 A 
ATOM      4  C   LIG    1      -42.728  72.688  22.549  0.00  0.00    +0.040 C 
ATOM      5  C   LIG    1      -41.726  73.652  23.164  0.00  0.00    +0.041 C 
ATOM      6  C   LIG    1      -40.501  72.883  23.644  0.00  0.00    -0.027 C 
ATOM      7  C   LIG    1      -39.458  73.501  24.250  0.00  0.00    +0.050 C 
ATOM      8  C   LIG    1      -39.337  74.963  24.534  0.00  0.00    +0.009 A 
ATOM      9  C   LIG    1      -40.135  76.079  24.313  0.00  0.00    +0.010 A 
ATOM     10  C   LIG    1      -39.690  77.339  24.729  0.00  0.00    +0.001 A 
ATOM     11  C   LIG    1      -38.450  77.490  25.363  0.00  0.00    +0.002 A 
ATOM     12  C   LIG    1      -37.639  76.381  25.589  0.00  0.00    +0.024 A 
ATOM     13  C   LIG    1      -38.106  75.148  25.168  0.00  0.00    +0.042 A 
ATOM     14  N   LIG    1      -37.441  73.941  25.306  0.00  0.00    -0.281 N 
ATOM     15  H   LIG    1      -36.536  73.810  25.730  0.00  0.00    +0.155 HD
ATOM     16  C   LIG    1      -38.173  72.888  24.784  0.00  0.00    +0.249 C 
ATOM     17  O   LIG    1      -37.797  71.734  24.791  0.00  0.00    -0.270 OA
ATOM     18  C   LIG    1      -40.779  71.468  23.289  0.00  0.00    -0.018 A 
ATOM     19  C   LIG    1      -40.058  70.291  23.450  0.00  0.00    +0.012 A 
ATOM     20  C   LIG    1      -40.586  69.067  23.002  0.00  0.00    +0.046 A 
ENDROOT
BRANCH   1  21
ATOM     21  O   LIG    1      -42.375  67.853  21.941  0.00  0.00    -0.507 OA
ATOM     22  H   LIG    1      -43.331  67.980  21.831  0.00  0.00    +0.292 HD
ENDBRANCH   1  21
TORSDOF 1
ENDMDL
MODEL 5
REMARK VINA RESULT:      -5.7     19.200     21.175
REMARK  Name = pdb/CHEMBL175321.pdb
REMARK                            x       y       z     vdW  Elec       q    Type
REMARK                         _______ _______ _______ _____ _____    ______ ____
ROOT
ATOM      1  C   LIG    1      -21.462  81.243  37.632  0.00  0.00    +0.117 A 
ATOM      2  C   LIG    1      -22.670  80.897  37.053  0.00  0.00    +0.049 A 
ATOM      3  C   LIG    1      -22.650  80.190  35.854  0.00  0.00    -0.036 A 
ATOM      4  C   LIG    1      -23.875  79.767  35.129  0.00  0.00    +0.040 C 
ATOM      5  C   LIG    1      -23.310  79.033  33.923  0.00  0.00    +0.041 C 
ATOM      6  C   LIG    1      -21.787  79.074  33.964  0.00  0.00    -0.027 C 
ATOM      7  C   LIG    1      -21.029  78.508  32.994  0.00  0.00    +0.050 C 
ATOM      8  C   LIG    1      -21.528  77.785  31.785  0.00  0.00    +0.009 A 
ATOM      9  C   LIG    1      -22.781  77.468  31.276  0.00  0.00    +0.010 A 
ATOM     10  C   LIG    1      -22.878  76.758  30.073  0.00  0.00    +0.001 A 
ATOM     11  C   LIG    1      -21.728  76.363  29.378  0.00  0.00    +0.002 A 
ATOM     12  C   LIG    1      -20.466  76.673  29.878  0.00  0.00    +0.024 A 
ATOM     13  C   LIG    1      -20.401  77.376  31.068  0.00  0.00    +0.042 A 
ATOM     14  N   LIG    1      -19.242  77.770  31.713  0.00  0.00    -0.281 N 
ATOM     15  H   LIG    1      -18.300  77.594  31.398  0.00  0.00    +0.155 HD
ATOM     16  C   LIG    1      -19.513  78.459  32.883  0.00  0.00    +0.249 C 
ATOM     17  O   LIG    1      -18.657  78.905  33.620  0.00  0.00    -0.270 OA
ATOM     18  C   LIG    1      -21.461  79.814  35.209  0.00  0.00    -0.018 A 
ATOM     19  C   LIG    1      -20.262  80.175  35.812  0.00  0.00    +0.012 A 
ATOM     20  C   LIG    1      -20.261  80.890  37.022  0.00  0.00    +0.046 A 
ENDROOT
BRANCH   1  21
ATOM     21  O   LIG    1      -21.497  81.935  38.805  0.00  0.00    -0.507 OA
ATOM     22  H   LIG    1      -22.238  82.561  38.770  0.00  0.00    +0.292 HD
ENDBRANCH   1  21
TORSDOF 1
ENDMDL
MODEL 6
REMARK VINA RESULT:      -5.7      3.155      5.107
REMARK  Name = pdb/CHEMBL175321.pdb
REMARK                            x       y       z     vdW  Elec       q    Type
REMARK                         _______ _______ _______ _____ _____    ______ ____
ROOT
ATOM      1  C   LIG    1      -37.562  76.043  25.382  0.00  0.00    +0.117 A 
ATOM      2  C   LIG    1      -38.538  76.846  24.817  0.00  0.00    +0.049 A 
ATOM      3  C   LIG    1      -39.644  76.233  24.235  0.00  0.00    -0.036 A 
ATOM      4  C   LIG    1      -40.753  76.980  23.590  0.00  0.00    +0.040 C 
ATOM      5  C   LIG    1      -41.689  75.867  23.146  0.00  0.00    +0.041 C 
ATOM      6  C   LIG    1      -41.090  74.515  23.515  0.00  0.00    -0.027 C 
ATOM      7  C   LIG    1      -41.714  73.350  23.216  0.00  0.00    +0.050 C 
ATOM      8  C   LIG    1      -43.024  73.199  22.513  0.00  0.00    +0.009 A 
ATOM      9  C   LIG    1      -43.961  74.074  21.978  0.00  0.00    +0.010 A 
ATOM     10  C   LIG    1      -45.113  73.564  21.368  0.00  0.00    +0.001 A 
ATOM     11  C   LIG    1      -45.334  72.183  21.290  0.00  0.00    +0.002 A 
ATOM     12  C   LIG    1      -44.403  71.294  21.824  0.00  0.00    +0.024 A 
ATOM     13  C   LIG    1      -43.274  71.827  22.420  0.00  0.00    +0.042 A 
ATOM     14  N   LIG    1      -42.247  71.103  23.001  0.00  0.00    -0.281 N 
ATOM     15  H   LIG    1      -42.194  70.098  23.063  0.00  0.00    +0.155 HD
ATOM     16  C   LIG    1      -41.259  71.928  23.510  0.00  0.00    +0.249 C 
ATOM     17  O   LIG    1      -40.258  71.523  24.065  0.00  0.00    -0.270 OA
ATOM     18  C   LIG    1      -39.812  74.840  24.197  0.00  0.00    -0.018 A 
ATOM     19  C   LIG    1      -38.818  74.056  24.772  0.00  0.00    +0.012 A 
ATOM     20  C   LIG    1      -37.692  74.657  25.362  0.00  0.00    +0.046 A 
ENDROOT
BRANCH   1  21
ATOM     21  O   LIG    1      -36.485  76.657  25.947  0.00  0.00    -0.507 OA
ATOM     22  H   LIG    1      -36.768  77.066  26.781  0.00  0.00    +0.292 HD
ENDBRANCH   1  21
TORSDOF 1
ENDMDL
MODEL 7
REMARK VINA RESULT:      -5.7      3.711      7.245
REMARK  Name = pdb/CHEMBL175321.pdb
REMARK                            x       y       z     vdW  Elec       q    Type
REMARK                         _______ _______ _______ _____ _____    ______ ____
ROOT
ATOM      1  C   LIG    1      -37.488  70.366  24.808  0.00  0.00    +0.117 A 
ATOM      2  C   LIG    1      -37.209  71.681  25.138  0.00  0.00    +0.049 A 
ATOM      3  C   LIG    1      -38.148  72.657  24.818  0.00  0.00    -0.036 A 
ATOM      4  C   LIG    1      -37.966  74.101  25.111  0.00  0.00    +0.040 C 
ATOM      5  C   LIG    1      -39.255  74.712  24.587  0.00  0.00    +0.041 C 
ATOM      6  C   LIG    1      -40.132  73.621  23.983  0.00  0.00    -0.027 C 
ATOM      7  C   LIG    1      -41.336  73.896  23.425  0.00  0.00    +0.050 C 
ATOM      8  C   LIG    1      -41.976  75.242  23.313  0.00  0.00    +0.009 A 
ATOM      9  C   LIG    1      -41.625  76.533  23.689  0.00  0.00    +0.010 A 
ATOM     10  C   LIG    1      -42.498  77.593  23.413  0.00  0.00    +0.001 A 
ATOM     11  C   LIG    1      -43.719  77.368  22.766  0.00  0.00    +0.002 A 
ATOM     12  C   LIG    1      -44.084  76.079  22.386  0.00  0.00    +0.024 A 
ATOM     13  C   LIG    1      -43.202  75.052  22.670  0.00  0.00    +0.042 A 
ATOM     14  N   LIG    1      -43.393  73.714  22.370  0.00  0.00    -0.281 N 
ATOM     15  H   LIG    1      -44.198  73.321  21.908  0.00  0.00    +0.155 HD
ATOM     16  C   LIG    1      -42.326  72.935  22.784  0.00  0.00    +0.249 C 
ATOM     17  O   LIG    1      -42.264  71.733  22.629  0.00  0.00    -0.270 OA
ATOM     18  C   LIG    1      -39.362  72.366  24.175  0.00  0.00    -0.018 A 
ATOM     19  C   LIG    1      -39.617  71.038  23.853  0.00  0.00    +0.012 A 
ATOM     20  C   LIG    1      -38.680  70.038  24.168  0.00  0.00    +0.046 A 
ENDROOT
BRANCH   1  21
ATOM     21  O   LIG    1      -36.559  69.422  25.127  0.00  0.00    -0.507 OA
ATOM     22  H   LIG    1      -36.416  68.858  24.351  0.00  0.00    +0.292 HD
ENDBRANCH   1  21
TORSDOF 1
ENDMDL
MODEL 8
REMARK VINA RESULT:      -5.6      2.228      3.710
REMARK  Name = pdb/CHEMBL175321.pdb
REMARK                            x       y       z     vdW  Elec       q    Type
REMARK                         _______ _______ _______ _____ _____    ______ ____
ROOT
ATOM      1  C   LIG    1      -41.304  78.154  23.903  0.00  0.00    +0.117 A 
ATOM      2  C   LIG    1      -40.036  77.957  24.421  0.00  0.00    +0.049 A 
ATOM      3  C   LIG    1      -39.549  76.655  24.498  0.00  0.00    -0.036 A 
ATOM      4  C   LIG    1      -38.210  76.309  25.039  0.00  0.00    +0.040 C 
ATOM      5  C   LIG    1      -38.169  74.797  24.884  0.00  0.00    +0.041 C 
ATOM      6  C   LIG    1      -39.484  74.307  24.289  0.00  0.00    -0.027 C 
ATOM      7  C   LIG    1      -39.721  72.992  24.062  0.00  0.00    +0.050 C 
ATOM      8  C   LIG    1      -38.786  71.860  24.339  0.00  0.00    +0.009 A 
ATOM      9  C   LIG    1      -37.502  71.749  24.859  0.00  0.00    +0.010 A 
ATOM     10  C   LIG    1      -36.915  70.484  24.983  0.00  0.00    +0.001 A 
ATOM     11  C   LIG    1      -37.603  69.330  24.587  0.00  0.00    +0.002 A 
ATOM     12  C   LIG    1      -38.890  69.427  24.063  0.00  0.00    +0.024 A 
ATOM     13  C   LIG    1      -39.445  70.690  23.954  0.00  0.00    +0.042 A 
ATOM     14  N   LIG    1      -40.705  70.980  23.458  0.00  0.00    -0.281 N 
ATOM     15  H   LIG    1      -41.375  70.309  23.115  0.00  0.00    +0.155 HD
ATOM     16  C   LIG    1      -40.967  72.340  23.481  0.00  0.00    +0.249 C 
ATOM     17  O   LIG    1      -42.007  72.836  23.098  0.00  0.00    -0.270 OA
ATOM     18  C   LIG    1      -40.286  75.538  24.076  0.00  0.00    -0.018 A 
ATOM     19  C   LIG    1      -41.558  75.764  23.561  0.00  0.00    +0.012 A 
ATOM     20  C   LIG    1      -42.068  77.071  23.476  0.00  0.00    +0.046 A 
ENDROOT
BRANCH   1  21
ATOM     21  O   LIG    1      -41.768  79.433  23.834  0.00  0.00    -0.507 OA
ATOM     22  H   LIG    1      -41.174  79.944  23.260  0.00  0.00    +0.292 HD
ENDBRANCH   1  21
TORSDOF 1
ENDMDL
MODEL 9
REMARK VINA RESULT:      -5.6     17.838     19.930
REMARK  Name = pdb/CHEMBL175321.pdb
REMARK                            x       y       z     vdW  Elec       q    Type
REMARK                         _______ _______ _______ _____ _____    ______ ____
ROOT
ATOM      1  C   LIG    1      -24.155  81.073  37.419  0.00  0.00    +0.117 A 
ATOM      2  C   LIG    1      -22.814  81.055  37.079  0.00  0.00    +0.049 A 
ATOM      3  C   LIG    1      -22.432  80.368  35.930  0.00  0.00    -0.036 A 
ATOM      4  C   LIG    1      -21.027  80.266  35.461  0.00  0.00    +0.040 C 
ATOM      5  C   LIG    1      -21.159  79.445  34.189  0.00  0.00    +0.041 C 
ATOM      6  C   LIG    1      -22.620  79.070  33.970  0.00  0.00    -0.027 C 
ATOM      7  C   LIG    1      -23.016  78.320  32.913  0.00  0.00    +0.050 C 
ATOM      8  C   LIG    1      -22.137  77.764  31.840  0.00  0.00    +0.009 A 
ATOM      9  C   LIG    1      -20.776  77.803  31.563  0.00  0.00    +0.010 A 
ATOM     10  C   LIG    1      -20.283  77.143  30.431  0.00  0.00    +0.001 A 
ATOM     11  C   LIG    1      -21.143  76.445  29.574  0.00  0.00    +0.002 A 
ATOM     12  C   LIG    1      -22.510  76.399  29.839  0.00  0.00    +0.024 A 
ATOM     13  C   LIG    1      -22.969  77.060  30.965  0.00  0.00    +0.042 A 
ATOM     14  N   LIG    1      -24.286  77.123  31.385  0.00  0.00    -0.281 N 
ATOM     15  H   LIG    1      -25.075  76.698  30.924  0.00  0.00    +0.155 HD
ATOM     16  C   LIG    1      -24.420  77.860  32.550  0.00  0.00    +0.249 C 
ATOM     17  O   LIG    1      -25.479  78.055  33.110  0.00  0.00    -0.270 OA
ATOM     18  C   LIG    1      -23.346  79.693  35.105  0.00  0.00    -0.018 A 
ATOM     19  C   LIG    1      -24.687  79.726  35.470  0.00  0.00    +0.012 A 
ATOM     20  C   LIG    1      -25.092  80.415  36.627  0.00  0.00    +0.046 A 
ENDROOT
BRANCH   1  21
ATOM     21  O   LIG    1      -24.514  81.750  38.545  0.00  0.00    -0.507 OA
ATOM     22  H   LIG    1      -24.234  81.232  39.316  0.00  0.00    +0.292 HD
ENDBRANCH   1  21
TORSDOF 1
ENDMDL
