MODEL 1
REMARK VINA RESULT:      -5.5      0.000      0.000
REMARK  Name = pdb/CHEMBL3904952.pdb
REMARK                            x       y       z     vdW  Elec       q    Type
REMARK                         _______ _______ _______ _____ _____    ______ ____
ROOT
ATOM      1  C   LIG    1      -23.982  79.552  35.067  0.00  0.00    +0.126 A 
ATOM      2  N   LIG    1      -24.004  79.068  33.840  0.00  0.00    -0.212 NA
ATOM      3  C   LIG    1      -24.993  78.174  33.512  0.00  0.00    +0.170 A 
ATOM      4  C   LIG    1      -25.363  77.611  32.297  0.00  0.00    +0.100 A 
ATOM      5  C   LIG    1      -26.360  76.684  32.661  0.00  0.00    +0.150 A 
ATOM      6  N   LIG    1      -26.693  76.732  33.950  0.00  0.00    -0.173 NA
ATOM      7  N   LIG    1      -25.891  77.690  34.459  0.00  0.00    -0.221 N 
ATOM      8  C   LIG    1      -25.903  78.208  35.741  0.00  0.00    +0.118 A 
ATOM      9  C   LIG    1      -25.017  79.146  36.094  0.00  0.00    +0.063 A 
ENDROOT
BRANCH   1  11
ATOM     10  C   LIG    1      -21.823  80.108  36.252  0.00  0.00    +0.110 C 
ATOM     11  N   LIG    1      -22.996  80.466  35.423  0.00  0.00    -0.308 N 
ATOM     12  C   LIG    1      -23.175  81.917  35.395  0.00  0.00    +0.107 C 
ATOM     13  C   LIG    1      -22.279  82.445  36.507  0.00  0.00    +0.021 C 
ATOM     14  C   LIG    1      -21.131  81.456  36.518  0.00  0.00    +0.029 C 
BRANCH  10  16
ATOM     15  C   LIG    1      -20.934  77.770  35.850  0.00  0.00    +0.220 A 
ATOM     16  C   LIG    1      -20.872  79.142  35.585  0.00  0.00    +0.037 A 
ATOM     17  C   LIG    1      -19.872  79.574  34.697  0.00  0.00    +0.050 A 
ATOM     18  C   LIG    1      -19.049  78.644  34.084  0.00  0.00    +0.142 A 
ATOM     19  F   LIG    1      -18.107  79.040  33.220  0.00  0.00    -0.204 F 
ATOM     20  C   LIG    1      -19.217  77.306  34.381  0.00  0.00    +0.153 A 
ATOM     21  N   LIG    1      -20.127  76.849  35.269  0.00  0.00    -0.218 NA
BRANCH  15  23
ATOM     22  C   LIG    1      -22.654  76.252  36.327  0.00  0.00    +0.279 C 
ATOM     23  O   LIG    1      -21.855  77.343  36.787  0.00  0.00    -0.479 OA
ENDBRANCH  15  23
ENDBRANCH  10  16
ENDBRANCH   1  11
BRANCH   4  24
ATOM     24  C   LIG    1      -24.762  77.911  31.012  0.00  0.00    +0.221 C 
ATOM     25  N   LIG    1      -23.659  77.496  30.528  0.00  0.00    -0.247 NA
BRANCH  25  26
ATOM     26  C   LIG    1      -22.733  76.543  31.127  0.00  0.00    +0.109 C 
ATOM     27  C   LIG    1      -21.652  77.334  31.877  0.00  0.00    +0.029 C 
ATOM     28  C   LIG    1      -20.729  78.119  30.943  0.00  0.00    +0.033 C 
ATOM     29  C   LIG    1      -20.129  77.245  29.843  0.00  0.00    +0.115 C 
ATOM     30  C   LIG    1      -21.194  76.445  29.095  0.00  0.00    +0.033 C 
ATOM     31  C   LIG    1      -22.100  75.660  30.047  0.00  0.00    +0.029 C 
BRANCH  29  32
ATOM     32  O   LIG    1      -19.187  76.349  30.435  0.00  0.00    -0.392 OA
ATOM     33  H   LIG    1      -18.688  76.856  31.098  0.00  0.00    +0.210 HD
ENDBRANCH  29  32
ENDBRANCH  25  26
BRANCH  24  34
ATOM     34  O   LIG    1      -25.500  78.730  30.220  0.00  0.00    -0.492 OA
ATOM     35  H   LIG    1      -26.452  78.648  30.410  0.00  0.00    +0.294 HD
ENDBRANCH  24  34
ENDBRANCH   4  24
TORSDOF 7
ENDMDL
MODEL 2
REMARK VINA RESULT:      -5.4     17.563     19.429
REMARK  Name = pdb/CHEMBL3904952.pdb
REMARK                            x       y       z     vdW  Elec       q    Type
REMARK                         _______ _______ _______ _____ _____    ______ ____
ROOT
ATOM      1  C   LIG    1      -23.017  75.220  14.897  0.00  0.00    +0.126 A 
ATOM      2  N   LIG    1      -23.568  76.410  15.040  0.00  0.00    -0.212 NA
ATOM      3  C   LIG    1      -24.526  76.795  14.134  0.00  0.00    +0.170 A 
ATOM      4  C   LIG    1      -25.374  77.895  14.098  0.00  0.00    +0.100 A 
ATOM      5  C   LIG    1      -26.016  77.768  12.850  0.00  0.00    +0.150 A 
ATOM      6  N   LIG    1      -25.715  76.640  12.205  0.00  0.00    -0.173 NA
ATOM      7  N   LIG    1      -24.844  76.017  13.024  0.00  0.00    -0.221 N 
ATOM      8  C   LIG    1      -24.299  74.755  12.874  0.00  0.00    +0.118 A 
ATOM      9  C   LIG    1      -23.424  74.291  13.774  0.00  0.00    +0.063 A 
ENDROOT
BRANCH   1  11
ATOM     10  C   LIG    1      -20.619  74.662  15.455  0.00  0.00    +0.110 C 
ATOM     11  N   LIG    1      -22.050  74.802  15.806  0.00  0.00    -0.308 N 
ATOM     12  C   LIG    1      -22.345  74.077  17.041  0.00  0.00    +0.107 C 
ATOM     13  C   LIG    1      -21.128  73.195  17.279  0.00  0.00    +0.021 C 
ATOM     14  C   LIG    1      -19.993  74.019  16.705  0.00  0.00    +0.029 C 
BRANCH  10  16
ATOM     15  C   LIG    1      -19.652  76.324  13.805  0.00  0.00    +0.220 A 
ATOM     16  C   LIG    1      -19.936  75.969  15.128  0.00  0.00    +0.037 A 
ATOM     17  C   LIG    1      -19.531  76.869  16.128  0.00  0.00    +0.050 A 
ATOM     18  C   LIG    1      -18.941  78.071  15.773  0.00  0.00    +0.142 A 
ATOM     19  F   LIG    1      -18.571  78.947  16.716  0.00  0.00    -0.204 F 
ATOM     20  C   LIG    1      -18.741  78.347  14.436  0.00  0.00    +0.153 A 
ATOM     21  N   LIG    1      -19.063  77.489  13.442  0.00  0.00    -0.218 NA
BRANCH  15  23
ATOM     22  C   LIG    1      -18.814  74.843  12.195  0.00  0.00    +0.279 C 
ATOM     23  O   LIG    1      -19.967  75.408  12.819  0.00  0.00    -0.479 OA
ENDBRANCH  15  23
ENDBRANCH  10  16
ENDBRANCH   1  11
BRANCH   4  24
ATOM     24  C   LIG    1      -25.461  78.924  15.114  0.00  0.00    +0.221 C 
ATOM     25  N   LIG    1      -24.679  79.907  15.329  0.00  0.00    -0.247 NA
BRANCH  25  26
ATOM     26  C   LIG    1      -23.508  80.291  14.550  0.00  0.00    +0.109 C 
ATOM     27  C   LIG    1      -22.261  79.755  15.266  0.00  0.00    +0.029 C 
ATOM     28  C   LIG    1      -21.990  80.455  16.600  0.00  0.00    +0.033 C 
ATOM     29  C   LIG    1      -21.955  81.976  16.466  0.00  0.00    +0.115 C 
ATOM     30  C   LIG    1      -23.187  82.521  15.746  0.00  0.00    +0.033 C 
ATOM     31  C   LIG    1      -23.434  81.815  14.411  0.00  0.00    +0.029 C 
BRANCH  29  32
ATOM     32  O   LIG    1      -20.779  82.344  15.744  0.00  0.00    -0.392 OA
ATOM     33  H   LIG    1      -20.830  83.302  15.584  0.00  0.00    +0.210 HD
ENDBRANCH  29  32
ENDBRANCH  25  26
BRANCH  24  34
ATOM     34  O   LIG    1      -26.544  78.826  15.927  0.00  0.00    -0.492 OA
ATOM     35  H   LIG    1      -27.007  77.978  15.804  0.00  0.00    +0.294 HD
ENDBRANCH  24  34
ENDBRANCH   4  24
TORSDOF 7
ENDMDL
MODEL 3
REMARK VINA RESULT:      -5.3     18.287     21.409
REMARK  Name = pdb/CHEMBL3904952.pdb
REMARK                            x       y       z     vdW  Elec       q    Type
REMARK                         _______ _______ _______ _____ _____    ______ ____
ROOT
ATOM      1  C   LIG    1      -24.247  80.814  12.299  0.00  0.00    +0.126 A 
ATOM      2  N   LIG    1      -24.250  82.132  12.359  0.00  0.00    -0.212 NA
ATOM      3  C   LIG    1      -23.913  82.835  11.228  0.00  0.00    +0.170 A 
ATOM      4  C   LIG    1      -23.961  84.192  10.936  0.00  0.00    +0.100 A 
ATOM      5  C   LIG    1      -23.360  84.270   9.663  0.00  0.00    +0.150 A 
ATOM      6  N   LIG    1      -23.074  83.082   9.132  0.00  0.00    -0.173 NA
ATOM      7  N   LIG    1      -23.469  82.199  10.072  0.00  0.00    -0.221 N 
ATOM      8  C   LIG    1      -23.487  80.819   9.980  0.00  0.00    +0.118 A 
ATOM      9  C   LIG    1      -23.890  80.083  11.022  0.00  0.00    +0.063 A 
ENDROOT
BRANCH   1  11
ATOM     10  C   LIG    1      -23.602  79.352  14.253  0.00  0.00    +0.110 C 
ATOM     11  N   LIG    1      -24.593  80.078  13.427  0.00  0.00    -0.308 N 
ATOM     12  C   LIG    1      -25.943  79.590  13.705  0.00  0.00    +0.107 C 
ATOM     13  C   LIG    1      -25.741  78.300  14.487  0.00  0.00    +0.021 C 
ATOM     14  C   LIG    1      -24.463  78.564  15.256  0.00  0.00    +0.029 C 
BRANCH  10  16
ATOM     15  C   LIG    1      -21.249  80.121  14.791  0.00  0.00    +0.220 A 
ATOM     16  C   LIG    1      -22.629  80.253  14.977  0.00  0.00    +0.037 A 
ATOM     17  C   LIG    1      -23.057  81.237  15.884  0.00  0.00    +0.050 A 
ATOM     18  C   LIG    1      -22.126  82.061  16.494  0.00  0.00    +0.142 A 
ATOM     19  F   LIG    1      -22.522  83.017  17.343  0.00  0.00    -0.204 F 
ATOM     20  C   LIG    1      -20.787  81.878  16.213  0.00  0.00    +0.153 A 
ATOM     21  N   LIG    1      -20.324  80.909  15.391  0.00  0.00    -0.218 NA
BRANCH  15  23
ATOM     22  C   LIG    1      -19.643  79.445  13.226  0.00  0.00    +0.279 C 
ATOM     23  O   LIG    1      -20.812  79.100  13.968  0.00  0.00    -0.479 OA
ENDBRANCH  15  23
ENDBRANCH  10  16
ENDBRANCH   1  11
BRANCH   4  24
ATOM     24  C   LIG    1      -24.460  85.227  11.820  0.00  0.00    +0.221 C 
ATOM     25  N   LIG    1      -23.806  86.023  12.570  0.00  0.00    -0.247 NA
BRANCH  25  26
ATOM     26  C   LIG    1      -22.358  86.143  12.683  0.00  0.00    +0.109 C 
ATOM     27  C   LIG    1      -21.892  85.241  13.834  0.00  0.00    +0.029 C 
ATOM     28  C   LIG    1      -22.353  85.737  15.206  0.00  0.00    +0.033 C 
ATOM     29  C   LIG    1      -21.989  87.200  15.452  0.00  0.00    +0.115 C 
ATOM     30  C   LIG    1      -22.439  88.107  14.308  0.00  0.00    +0.033 C 
ATOM     31  C   LIG    1      -21.960  87.599  12.946  0.00  0.00    +0.029 C 
BRANCH  29  32
ATOM     32  O   LIG    1      -20.573  87.299  15.610  0.00  0.00    -0.392 OA
ATOM     33  H   LIG    1      -20.409  87.635  16.508  0.00  0.00    +0.210 HD
ENDBRANCH  29  32
ENDBRANCH  25  26
BRANCH  24  34
ATOM     34  O   LIG    1      -25.810  85.368  11.820  0.00  0.00    -0.492 OA
ATOM     35  H   LIG    1      -26.192  85.147  10.951  0.00  0.00    +0.294 HD
ENDBRANCH  24  34
ENDBRANCH   4  24
TORSDOF 7
ENDMDL
MODEL 4
REMARK VINA RESULT:      -5.2     18.314     21.703
REMARK  Name = pdb/CHEMBL3904952.pdb
REMARK                            x       y       z     vdW  Elec       q    Type
REMARK                         _______ _______ _______ _____ _____    ______ ____
ROOT
ATOM      1  C   LIG    1      -20.563  85.265  13.695  0.00  0.00    +0.126 A 
ATOM      2  N   LIG    1      -21.179  84.282  14.323  0.00  0.00    -0.212 NA
ATOM      3  C   LIG    1      -20.486  83.118  14.547  0.00  0.00    +0.170 A 
ATOM      4  C   LIG    1      -20.798  81.985  15.287  0.00  0.00    +0.100 A 
ATOM      5  C   LIG    1      -19.730  81.110  15.005  0.00  0.00    +0.150 A 
ATOM      6  N   LIG    1      -18.765  81.662  14.269  0.00  0.00    -0.173 NA
ATOM      7  N   LIG    1      -19.206  82.915  14.038  0.00  0.00    -0.221 N 
ATOM      8  C   LIG    1      -18.533  83.943  13.403  0.00  0.00    +0.118 A 
ATOM      9  C   LIG    1      -19.128  85.129  13.234  0.00  0.00    +0.063 A 
ENDROOT
BRANCH   1  11
ATOM     10  C   LIG    1      -21.727  86.863  12.125  0.00  0.00    +0.110 C 
ATOM     11  N   LIG    1      -21.240  86.458  13.463  0.00  0.00    -0.308 N 
ATOM     12  C   LIG    1      -21.200  87.611  14.361  0.00  0.00    +0.107 C 
ATOM     13  C   LIG    1      -21.357  88.822  13.452  0.00  0.00    +0.021 C 
ATOM     14  C   LIG    1      -22.239  88.299  12.337  0.00  0.00    +0.029 C 
BRANCH  10  16
ATOM     15  C   LIG    1      -22.548  84.986  10.635  0.00  0.00    +0.220 A 
ATOM     16  C   LIG    1      -22.825  85.980  11.579  0.00  0.00    +0.037 A 
ATOM     17  C   LIG    1      -24.167  86.133  11.966  0.00  0.00    +0.050 A 
ATOM     18  C   LIG    1      -25.130  85.274  11.462  0.00  0.00    +0.142 A 
ATOM     19  F   LIG    1      -26.408  85.395  11.840  0.00  0.00    -0.204 F 
ATOM     20  C   LIG    1      -24.749  84.296  10.566  0.00  0.00    +0.153 A 
ATOM     21  N   LIG    1      -23.481  84.147  10.122  0.00  0.00    -0.218 NA
BRANCH  15  23
ATOM     22  C   LIG    1      -20.722  83.560  10.290  0.00  0.00    +0.279 C 
ATOM     23  O   LIG    1      -21.247  84.883  10.181  0.00  0.00    -0.479 OA
ENDBRANCH  15  23
ENDBRANCH  10  16
ENDBRANCH   1  11
BRANCH   4  24
ATOM     24  C   LIG    1      -21.999  81.800  16.078  0.00  0.00    +0.221 C 
ATOM     25  N   LIG    1      -22.894  80.899  15.977  0.00  0.00    -0.247 NA
BRANCH  25  26
ATOM     26  C   LIG    1      -22.905  79.763  15.064  0.00  0.00    +0.109 C 
ATOM     27  C   LIG    1      -23.418  80.249  13.701  0.00  0.00    +0.029 C 
ATOM     28  C   LIG    1      -24.896  80.643  13.725  0.00  0.00    +0.033 C 
ATOM     29  C   LIG    1      -25.785  79.545  14.305  0.00  0.00    +0.115 C 
ATOM     30  C   LIG    1      -25.280  79.045  15.657  0.00  0.00    +0.033 C 
ATOM     31  C   LIG    1      -23.803  78.647  15.609  0.00  0.00    +0.029 C 
BRANCH  29  32
ATOM     32  O   LIG    1      -25.829  78.457  13.380  0.00  0.00    -0.392 OA
ATOM     33  H   LIG    1      -25.837  78.842  12.487  0.00  0.00    +0.210 HD
ENDBRANCH  29  32
ENDBRANCH  25  26
BRANCH  24  34
ATOM     34  O   LIG    1      -22.166  82.709  17.073  0.00  0.00    -0.492 OA
ATOM     35  H   LIG    1      -21.680  82.450  17.878  0.00  0.00    +0.294 HD
ENDBRANCH  24  34
ENDBRANCH   4  24
TORSDOF 7
ENDMDL
MODEL 5
REMARK VINA RESULT:      -5.0      4.913      7.810
REMARK  Name = pdb/CHEMBL3904952.pdb
REMARK                            x       y       z     vdW  Elec       q    Type
REMARK                         _______ _______ _______ _____ _____    ______ ____
ROOT
ATOM      1  C   LIG    1      -23.919  73.304  31.879  0.00  0.00    +0.126 A 
ATOM      2  N   LIG    1      -23.174  74.199  31.261  0.00  0.00    -0.212 NA
ATOM      3  C   LIG    1      -23.751  75.395  30.909  0.00  0.00    +0.170 A 
ATOM      4  C   LIG    1      -23.210  76.565  30.392  0.00  0.00    +0.100 A 
ATOM      5  C   LIG    1      -24.346  77.360  30.135  0.00  0.00    +0.150 A 
ATOM      6  N   LIG    1      -25.487  76.819  30.561  0.00  0.00    -0.173 NA
ATOM      7  N   LIG    1      -25.111  75.636  31.088  0.00  0.00    -0.221 N 
ATOM      8  C   LIG    1      -25.902  74.722  31.761  0.00  0.00    +0.118 A 
ATOM      9  C   LIG    1      -25.373  73.576  32.204  0.00  0.00    +0.063 A 
ENDROOT
BRANCH   1  11
ATOM     10  C   LIG    1      -24.089  70.804  32.185  0.00  0.00    +0.110 C 
ATOM     11  N   LIG    1      -23.357  72.088  32.254  0.00  0.00    -0.308 N 
ATOM     12  C   LIG    1      -22.184  71.960  33.117  0.00  0.00    +0.107 C 
ATOM     13  C   LIG    1      -22.384  70.647  33.860  0.00  0.00    +0.021 C 
ATOM     14  C   LIG    1      -23.136  69.798  32.854  0.00  0.00    +0.029 C 
BRANCH  10  16
ATOM     15  C   LIG    1      -25.750  70.124  30.396  0.00  0.00    +0.220 A 
ATOM     16  C   LIG    1      -24.426  70.365  30.779  0.00  0.00    +0.037 A 
ATOM     17  C   LIG    1      -23.435  70.151  29.807  0.00  0.00    +0.050 A 
ATOM     18  C   LIG    1      -23.800  69.784  28.522  0.00  0.00    +0.142 A 
ATOM     19  F   LIG    1      -22.866  69.599  27.580  0.00  0.00    -0.204 F 
ATOM     20  C   LIG    1      -25.138  69.611  28.232  0.00  0.00    +0.153 A 
ATOM     21  N   LIG    1      -26.122  69.750  29.148  0.00  0.00    -0.218 NA
BRANCH  15  23
ATOM     22  C   LIG    1      -27.930  70.834  30.877  0.00  0.00    +0.279 C 
ATOM     23  O   LIG    1      -26.726  70.246  31.368  0.00  0.00    -0.479 OA
ENDBRANCH  15  23
ENDBRANCH  10  16
ENDBRANCH   1  11
BRANCH   4  24
ATOM     24  C   LIG    1      -21.803  76.802  30.139  0.00  0.00    +0.221 C 
ATOM     25  N   LIG    1      -20.861  77.000  30.973  0.00  0.00    -0.247 NA
BRANCH  25  26
ATOM     26  C   LIG    1      -20.949  76.973  32.428  0.00  0.00    +0.109 C 
ATOM     27  C   LIG    1      -20.840  78.415  32.941  0.00  0.00    +0.029 C 
ATOM     28  C   LIG    1      -19.452  79.023  32.724  0.00  0.00    +0.033 C 
ATOM     29  C   LIG    1      -18.334  78.141  33.276  0.00  0.00    +0.115 C 
ATOM     30  C   LIG    1      -18.437  76.700  32.781  0.00  0.00    +0.033 C 
ATOM     31  C   LIG    1      -19.828  76.107  33.015  0.00  0.00    +0.029 C 
BRANCH  29  32
ATOM     32  O   LIG    1      -18.399  78.161  34.703  0.00  0.00    -0.392 OA
ATOM     33  H   LIG    1      -18.711  77.285  34.987  0.00  0.00    +0.210 HD
ENDBRANCH  29  32
ENDBRANCH  25  26
BRANCH  24  34
ATOM     34  O   LIG    1      -21.455  76.786  28.827  0.00  0.00    -0.492 OA
ATOM     35  H   LIG    1      -21.864  77.523  28.339  0.00  0.00    +0.294 HD
ENDBRANCH  24  34
ENDBRANCH   4  24
TORSDOF 7
ENDMDL
MODEL 6
REMARK VINA RESULT:      -5.0     14.784     18.102
REMARK  Name = pdb/CHEMBL3904952.pdb
REMARK                            x       y       z     vdW  Elec       q    Type
REMARK                         _______ _______ _______ _____ _____    ______ ____
ROOT
ATOM      1  C   LIG    1      -38.919  78.536  26.830  0.00  0.00    +0.126 A 
ATOM      2  N   LIG    1      -37.933  79.409  26.894  0.00  0.00    -0.212 NA
ATOM      3  C   LIG    1      -37.198  79.475  28.052  0.00  0.00    +0.170 A 
ATOM      4  C   LIG    1      -36.037  80.168  28.372  0.00  0.00    +0.100 A 
ATOM      5  C   LIG    1      -35.876  79.912  29.748  0.00  0.00    +0.150 A 
ATOM      6  N   LIG    1      -36.759  79.042  30.239  0.00  0.00    -0.173 NA
ATOM      7  N   LIG    1      -37.535  78.731  29.181  0.00  0.00    -0.221 N 
ATOM      8  C   LIG    1      -38.546  77.790  29.122  0.00  0.00    +0.118 A 
ATOM      9  C   LIG    1      -39.240  77.621  27.991  0.00  0.00    +0.063 A 
ENDROOT
BRANCH   1  11
ATOM     10  C   LIG    1      -39.190  77.767  24.440  0.00  0.00    +0.110 C 
ATOM     11  N   LIG    1      -39.674  78.443  25.665  0.00  0.00    -0.308 N 
ATOM     12  C   LIG    1      -40.809  79.311  25.353  0.00  0.00    +0.107 C 
ATOM     13  C   LIG    1      -40.815  79.420  23.835  0.00  0.00    +0.021 C 
ATOM     14  C   LIG    1      -40.277  78.074  23.395  0.00  0.00    +0.029 C 
BRANCH  10  16
ATOM     15  C   LIG    1      -37.817  75.748  25.115  0.00  0.00    +0.220 A 
ATOM     16  C   LIG    1      -39.004  76.276  24.595  0.00  0.00    +0.037 A 
ATOM     17  C   LIG    1      -39.991  75.357  24.203  0.00  0.00    +0.050 A 
ATOM     18  C   LIG    1      -39.785  74.001  24.401  0.00  0.00    +0.142 A 
ATOM     19  F   LIG    1      -40.727  73.116  24.052  0.00  0.00    -0.204 F 
ATOM     20  C   LIG    1      -38.595  73.581  24.959  0.00  0.00    +0.153 A 
ATOM     21  N   LIG    1      -37.594  74.424  25.300  0.00  0.00    -0.218 NA
BRANCH  15  23
ATOM     22  C   LIG    1      -36.083  76.274  26.599  0.00  0.00    +0.279 C 
ATOM     23  O   LIG    1      -36.805  76.637  25.422  0.00  0.00    -0.479 OA
ENDBRANCH  15  23
ENDBRANCH  10  16
ENDBRANCH   1  11
BRANCH   4  24
ATOM     24  C   LIG    1      -35.274  80.997  27.460  0.00  0.00    +0.221 C 
ATOM     25  N   LIG    1      -35.561  82.145  26.990  0.00  0.00    -0.247 NA
BRANCH  25  26
ATOM     26  C   LIG    1      -36.726  82.964  27.306  0.00  0.00    +0.109 C 
ATOM     27  C   LIG    1      -37.682  82.919  26.106  0.00  0.00    +0.029 C 
ATOM     28  C   LIG    1      -37.125  83.634  24.872  0.00  0.00    +0.033 C 
ATOM     29  C   LIG    1      -36.667  85.058  25.177  0.00  0.00    +0.115 C 
ATOM     30  C   LIG    1      -35.723  85.117  26.376  0.00  0.00    +0.033 C 
ATOM     31  C   LIG    1      -36.301  84.407  27.602  0.00  0.00    +0.029 C 
BRANCH  29  32
ATOM     32  O   LIG    1      -37.819  85.863  25.437  0.00  0.00    -0.392 OA
ATOM     33  H   LIG    1      -37.982  85.827  26.395  0.00  0.00    +0.210 HD
ENDBRANCH  29  32
ENDBRANCH  25  26
BRANCH  24  34
ATOM     34  O   LIG    1      -34.080  80.472  27.083  0.00  0.00    -0.492 OA
ATOM     35  H   LIG    1      -34.191  79.783  26.403  0.00  0.00    +0.294 HD
ENDBRANCH  24  34
ENDBRANCH   4  24
TORSDOF 7
ENDMDL
MODEL 7
REMARK VINA RESULT:      -5.0      6.697     10.655
REMARK  Name = pdb/CHEMBL3904952.pdb
REMARK                            x       y       z     vdW  Elec       q    Type
REMARK                         _______ _______ _______ _____ _____    ______ ____
ROOT
ATOM      1  C   LIG    1      -32.103  74.918  31.144  0.00  0.00    +0.126 A 
ATOM      2  N   LIG    1      -31.077  75.746  31.173  0.00  0.00    -0.212 NA
ATOM      3  C   LIG    1      -30.648  76.207  32.393  0.00  0.00    +0.170 A 
ATOM      4  C   LIG    1      -29.536  76.954  32.759  0.00  0.00    +0.100 A 
ATOM      5  C   LIG    1      -29.748  77.198  34.131  0.00  0.00    +0.150 A 
ATOM      6  N   LIG    1      -30.811  76.568  34.630  0.00  0.00    -0.173 NA
ATOM      7  N   LIG    1      -31.330  75.913  33.571  0.00  0.00    -0.221 N 
ATOM      8  C   LIG    1      -32.389  75.024  33.564  0.00  0.00    +0.118 A 
ATOM      9  C   LIG    1      -32.796  74.475  32.415  0.00  0.00    +0.063 A 
ENDROOT
BRANCH   1  11
ATOM     10  C   LIG    1      -33.737  74.971  29.220  0.00  0.00    +0.110 C 
ATOM     11  N   LIG    1      -32.552  74.429  29.921  0.00  0.00    -0.308 N 
ATOM     12  C   LIG    1      -32.202  73.114  29.386  0.00  0.00    +0.107 C 
ATOM     13  C   LIG    1      -33.405  72.695  28.554  0.00  0.00    +0.021 C 
ATOM     14  C   LIG    1      -33.934  74.015  28.031  0.00  0.00    +0.029 C 
BRANCH  10  16
ATOM     15  C   LIG    1      -34.102  77.467  29.459  0.00  0.00    +0.220 A 
ATOM     16  C   LIG    1      -33.568  76.394  28.739  0.00  0.00    +0.037 A 
ATOM     17  C   LIG    1      -32.898  76.701  27.542  0.00  0.00    +0.050 A 
ATOM     18  C   LIG    1      -32.738  78.024  27.165  0.00  0.00    +0.142 A 
ATOM     19  F   LIG    1      -32.083  78.331  26.039  0.00  0.00    -0.204 F 
ATOM     20  C   LIG    1      -33.268  79.015  27.966  0.00  0.00    +0.153 A 
ATOM     21  N   LIG    1      -33.968  78.765  29.095  0.00  0.00    -0.218 NA
BRANCH  15  23
ATOM     22  C   LIG    1      -34.405  77.897  31.742  0.00  0.00    +0.279 C 
ATOM     23  O   LIG    1      -34.838  77.172  30.590  0.00  0.00    -0.479 OA
ENDBRANCH  15  23
ENDBRANCH  10  16
ENDBRANCH   1  11
BRANCH   4  24
ATOM     24  C   LIG    1      -28.488  77.399  31.862  0.00  0.00    +0.221 C 
ATOM     25  N   LIG    1      -27.266  77.043  31.819  0.00  0.00    -0.247 NA
BRANCH  25  26
ATOM     26  C   LIG    1      -26.611  76.027  32.636  0.00  0.00    +0.109 C 
ATOM     27  C   LIG    1      -25.747  76.741  33.684  0.00  0.00    +0.029 C 
ATOM     28  C   LIG    1      -24.548  77.470  33.075  0.00  0.00    +0.033 C 
ATOM     29  C   LIG    1      -23.710  76.565  32.173  0.00  0.00    +0.115 C 
ATOM     30  C   LIG    1      -24.560  75.842  31.130  0.00  0.00    +0.033 C 
ATOM     31  C   LIG    1      -25.748  75.111  31.761  0.00  0.00    +0.029 C 
BRANCH  29  32
ATOM     32  O   LIG    1      -23.035  75.606  32.987  0.00  0.00    -0.392 OA
ATOM     33  H   LIG    1      -23.144  75.889  33.912  0.00  0.00    +0.210 HD
ENDBRANCH  29  32
ENDBRANCH  25  26
BRANCH  24  34
ATOM     34  O   LIG    1      -28.886  78.304  30.932  0.00  0.00    -0.492 OA
ATOM     35  H   LIG    1      -28.577  79.201  31.151  0.00  0.00    +0.294 HD
ENDBRANCH  24  34
ENDBRANCH   4  24
TORSDOF 7
ENDMDL
MODEL 8
REMARK VINA RESULT:      -5.0     16.966     20.216
REMARK  Name = pdb/CHEMBL3904952.pdb
REMARK                            x       y       z     vdW  Elec       q    Type
REMARK                         _______ _______ _______ _____ _____    ______ ____
ROOT
ATOM      1  C   LIG    1      -37.454  68.104  22.229  0.00  0.00    +0.126 A 
ATOM      2  N   LIG    1      -37.273  69.259  22.839  0.00  0.00    -0.212 NA
ATOM      3  C   LIG    1      -38.381  69.956  23.253  0.00  0.00    +0.170 A 
ATOM      4  C   LIG    1      -38.515  71.100  24.029  0.00  0.00    +0.100 A 
ATOM      5  C   LIG    1      -39.898  71.367  23.974  0.00  0.00    +0.150 A 
ATOM      6  N   LIG    1      -40.601  70.428  23.342  0.00  0.00    -0.173 NA
ATOM      7  N   LIG    1      -39.672  69.532  22.950  0.00  0.00    -0.221 N 
ATOM      8  C   LIG    1      -39.882  68.310  22.338  0.00  0.00    +0.118 A 
ATOM      9  C   LIG    1      -38.841  67.547  21.990  0.00  0.00    +0.063 A 
ENDROOT
BRANCH   1  11
ATOM     10  C   LIG    1      -35.048  67.393  22.514  0.00  0.00    +0.110 C 
ATOM     11  N   LIG    1      -36.348  67.373  21.807  0.00  0.00    -0.308 N 
ATOM     12  C   LIG    1      -36.182  66.846  20.453  0.00  0.00    +0.107 C 
ATOM     13  C   LIG    1      -34.680  66.848  20.212  0.00  0.00    +0.021 C 
ATOM     14  C   LIG    1      -34.112  66.591  21.593  0.00  0.00    +0.029 C 
BRANCH  10  16
ATOM     15  C   LIG    1      -34.798  67.541  25.031  0.00  0.00    +0.220 A 
ATOM     16  C   LIG    1      -35.092  66.780  23.895  0.00  0.00    +0.037 A 
ATOM     17  C   LIG    1      -35.397  65.424  24.099  0.00  0.00    +0.050 A 
ATOM     18  C   LIG    1      -35.459  64.921  25.388  0.00  0.00    +0.142 A 
ATOM     19  F   LIG    1      -35.771  63.636  25.597  0.00  0.00    -0.204 F 
ATOM     20  C   LIG    1      -35.193  65.764  26.448  0.00  0.00    +0.153 A 
ATOM     21  N   LIG    1      -34.840  67.060  26.297  0.00  0.00    -0.218 NA
BRANCH  15  23
ATOM     22  C   LIG    1      -33.784  69.426  25.984  0.00  0.00    +0.279 C 
ATOM     23  O   LIG    1      -34.411  68.854  24.837  0.00  0.00    -0.479 OA
ENDBRANCH  15  23
ENDBRANCH  10  16
ENDBRANCH   1  11
BRANCH   4  24
ATOM     24  C   LIG    1      -37.427  71.828  24.652  0.00  0.00    +0.221 C 
ATOM     25  N   LIG    1      -37.469  72.907  25.328  0.00  0.00    -0.247 NA
BRANCH  25  26
ATOM     26  C   LIG    1      -38.654  73.665  25.711  0.00  0.00    +0.109 C 
ATOM     27  C   LIG    1      -38.813  74.833  24.728  0.00  0.00    +0.029 C 
ATOM     28  C   LIG    1      -37.711  75.886  24.868  0.00  0.00    +0.033 C 
ATOM     29  C   LIG    1      -37.548  76.376  26.305  0.00  0.00    +0.115 C 
ATOM     30  C   LIG    1      -37.399  75.222  27.295  0.00  0.00    +0.033 C 
ATOM     31  C   LIG    1      -38.515  74.185  27.146  0.00  0.00    +0.029 C 
BRANCH  29  32
ATOM     32  O   LIG    1      -38.692  77.158  26.654  0.00  0.00    -0.392 OA
ATOM     33  H   LIG    1      -39.138  76.701  27.387  0.00  0.00    +0.210 HD
ENDBRANCH  29  32
ENDBRANCH  25  26
BRANCH  24  34
ATOM     34  O   LIG    1      -36.205  71.255  24.503  0.00  0.00    -0.492 OA
ATOM     35  H   LIG    1      -35.648  71.392  25.290  0.00  0.00    +0.294 HD
ENDBRANCH  24  34
ENDBRANCH   4  24
TORSDOF 7
ENDMDL
MODEL 9
REMARK VINA RESULT:      -5.0      2.969      4.965
REMARK  Name = pdb/CHEMBL3904952.pdb
REMARK                            x       y       z     vdW  Elec       q    Type
REMARK                         _______ _______ _______ _____ _____    ______ ____
ROOT
ATOM      1  C   LIG    1      -22.031  78.689  33.429  0.00  0.00    +0.126 A 
ATOM      2  N   LIG    1      -22.876  78.156  32.568  0.00  0.00    -0.212 NA
ATOM      3  C   LIG    1      -22.364  77.476  31.490  0.00  0.00    +0.170 A 
ATOM      4  C   LIG    1      -22.974  76.700  30.513  0.00  0.00    +0.100 A 
ATOM      5  C   LIG    1      -21.916  76.400  29.631  0.00  0.00    +0.150 A 
ATOM      6  N   LIG    1      -20.726  76.822  30.059  0.00  0.00    -0.173 NA
ATOM      7  N   LIG    1      -20.996  77.433  31.230  0.00  0.00    -0.221 N 
ATOM      8  C   LIG    1      -20.094  77.960  32.136  0.00  0.00    +0.118 A 
ATOM      9  C   LIG    1      -20.534  78.558  33.249  0.00  0.00    +0.063 A 
ENDROOT
BRANCH   1  11
ATOM     10  C   LIG    1      -23.930  79.278  34.985  0.00  0.00    +0.110 C 
ATOM     11  N   LIG    1      -22.523  79.375  34.534  0.00  0.00    -0.308 N 
ATOM     12  C   LIG    1      -21.880  80.549  35.123  0.00  0.00    +0.107 C 
ATOM     13  C   LIG    1      -23.021  81.377  35.694  0.00  0.00    +0.021 C 
ATOM     14  C   LIG    1      -24.032  80.327  36.106  0.00  0.00    +0.029 C 
BRANCH  10  16
ATOM     15  C   LIG    1      -25.463  77.261  35.025  0.00  0.00    +0.220 A 
ATOM     16  C   LIG    1      -24.317  77.910  35.496  0.00  0.00    +0.037 A 
ATOM     17  C   LIG    1      -23.569  77.243  36.481  0.00  0.00    +0.050 A 
ATOM     18  C   LIG    1      -23.947  75.975  36.889  0.00  0.00    +0.142 A 
ATOM     19  F   LIG    1      -23.230  75.320  37.811  0.00  0.00    -0.204 F 
ATOM     20  C   LIG    1      -25.072  75.402  36.333  0.00  0.00    +0.153 A 
ATOM     21  N   LIG    1      -25.854  76.028  35.425  0.00  0.00    -0.218 NA
BRANCH  15  23
ATOM     22  C   LIG    1      -27.228  77.111  33.491  0.00  0.00    +0.279 C 
ATOM     23  O   LIG    1      -26.255  77.944  34.121  0.00  0.00    -0.479 OA
ENDBRANCH  15  23
ENDBRANCH  10  16
ENDBRANCH   1  11
BRANCH   4  24
ATOM     24  C   LIG    1      -24.387  76.385  30.449  0.00  0.00    +0.221 C 
ATOM     25  N   LIG    1      -25.034  75.479  31.068  0.00  0.00    -0.247 NA
BRANCH  25  26
ATOM     26  C   LIG    1      -24.520  74.552  32.069  0.00  0.00    +0.109 C 
ATOM     27  C   LIG    1      -23.600  73.548  31.362  0.00  0.00    +0.029 C 
ATOM     28  C   LIG    1      -24.354  72.604  30.423  0.00  0.00    +0.033 C 
ATOM     29  C   LIG    1      -25.527  71.908  31.110  0.00  0.00    +0.115 C 
ATOM     30  C   LIG    1      -26.446  72.897  31.826  0.00  0.00    +0.033 C 
ATOM     31  C   LIG    1      -25.674  73.825  32.767  0.00  0.00    +0.029 C 
BRANCH  29  32
ATOM     32  O   LIG    1      -25.012  70.968  32.053  0.00  0.00    -0.392 OA
ATOM     33  H   LIG    1      -25.355  71.222  32.927  0.00  0.00    +0.210 HD
ENDBRANCH  29  32
ENDBRANCH  25  26
BRANCH  24  34
ATOM     34  O   LIG    1      -25.110  77.190  29.628  0.00  0.00    -0.492 OA
ATOM     35  H   LIG    1      -25.486  76.691  28.880  0.00  0.00    +0.294 HD
ENDBRANCH  24  34
ENDBRANCH   4  24
TORSDOF 7
ENDMDL
