MODEL 1
REMARK VINA RESULT:      -7.0      0.000      0.000
REMARK  Name = pdb/CHEMBL3894154.pdb
REMARK                            x       y       z     vdW  Elec       q    Type
REMARK                         _______ _______ _______ _____ _____    ______ ____
ROOT
ATOM      1  C   LIG    1      -23.828  82.989  37.135  0.00  0.00    +0.149 A 
ATOM      2  N   LIG    1      -22.882  83.232  38.056  0.00  0.00    -0.160 NA
ATOM      3  N   LIG    1      -21.729  82.740  37.530  0.00  0.00    -0.218 N 
ATOM      4  C   LIG    1      -21.968  82.071  36.315  0.00  0.00    +0.129 A 
ATOM      5  C   LIG    1      -23.285  82.306  36.025  0.00  0.00    +0.078 A 
ENDROOT
BRANCH   3   6
ATOM      6  C   LIG    1      -20.506  82.903  38.245  0.00  0.00    +0.067 A 
ATOM      7  C   LIG    1      -19.876  84.151  38.320  0.00  0.00    +0.028 A 
ATOM      8  C   LIG    1      -18.701  84.300  39.063  0.00  0.00    +0.002 A 
ATOM      9  C   LIG    1      -18.140  83.210  39.725  0.00  0.00    +0.000 A 
ATOM     10  C   LIG    1      -18.758  81.963  39.654  0.00  0.00    +0.002 A 
ATOM     11  C   LIG    1      -19.945  81.809  38.929  0.00  0.00    +0.028 A 
ENDBRANCH   3   6
BRANCH   4  12
ATOM     12  N   LIG    1      -21.101  81.273  35.558  0.00  0.00    -0.266 N 
ATOM     13  H   LIG    1      -20.511  81.714  34.869  0.00  0.00    +0.157 HD
ATOM     14  C   LIG    1      -20.879  79.870  35.862  0.00  0.00    +0.251 C 
ATOM     15  O   LIG    1      -21.427  79.331  36.798  0.00  0.00    -0.270 OA
BRANCH  14  16
ATOM     16  C   LIG    1      -19.988  79.102  34.954  0.00  0.00    +0.056 A 
ATOM     17  C   LIG    1      -18.630  78.915  35.182  0.00  0.00    +0.054 A 
ATOM     18 CL   LIG    1      -17.827  79.425  36.622  0.00  0.00    -0.083 Cl
ATOM     19  C   LIG    1      -17.853  78.267  34.223  0.00  0.00    +0.041 A 
ATOM     20  C   LIG    1      -18.414  77.804  33.023  0.00  0.00    +0.052 A 
ATOM     21 CL   LIG    1      -17.283  77.056  31.946  0.00  0.00    -0.083 Cl
ATOM     22  C   LIG    1      -19.796  77.928  32.768  0.00  0.00    +0.019 A 
ATOM     23  C   LIG    1      -20.564  78.557  33.785  0.00  0.00    +0.026 A 
BRANCH  22  24
ATOM     24  C   LIG    1      -20.498  77.436  31.551  0.00  0.00    +0.072 A 
ATOM     25  N   LIG    1      -21.797  77.088  31.752  0.00  0.00    -0.255 NA
ATOM     26  C   LIG    1      -22.499  76.587  30.707  0.00  0.00    +0.111 A 
ATOM     27  C   LIG    1      -21.969  76.395  29.446  0.00  0.00    +0.020 A 
ATOM     28  C   LIG    1      -20.656  76.784  29.233  0.00  0.00    +0.004 A 
ATOM     29  C   LIG    1      -19.926  77.339  30.283  0.00  0.00    +0.028 A 
ENDBRANCH  22  24
ENDBRANCH  14  16
ENDBRANCH   4  12
BRANCH   1  30
ATOM     30  C   LIG    1      -25.239  83.324  37.309  0.00  0.00    +0.236 C 
ATOM     31  N   LIG    1      -25.918  83.874  36.374  0.00  0.00    -0.243 NA
BRANCH  30  32
ATOM     32  O   LIG    1      -25.703  82.982  38.529  0.00  0.00    -0.491 OA
ATOM     33  H   LIG    1      -26.446  82.354  38.451  0.00  0.00    +0.294 HD
ENDBRANCH  30  32
BRANCH  31  34
ATOM     34  C   LIG    1      -27.300  84.324  36.545  0.00  0.00    +0.200 C 
BRANCH  34  35
ATOM     35  C   LIG    1      -27.757  85.459  35.647  0.00  0.00    +0.066 A 
ATOM     36  N   LIG    1      -26.880  86.476  35.448  0.00  0.00    -0.238 NA
ATOM     37  C   LIG    1      -27.314  87.520  34.722  0.00  0.00    +0.221 A 
ATOM     38  N   LIG    1      -28.511  87.620  34.139  0.00  0.00    -0.244 NA
ATOM     39  C   LIG    1      -29.331  86.569  34.316  0.00  0.00    +0.114 A 
ATOM     40  C   LIG    1      -29.007  85.457  35.064  0.00  0.00    +0.045 A 
ENDBRANCH  34  35
ENDBRANCH  31  34
ENDBRANCH   1  30
TORSDOF 8
ENDMDL
MODEL 2
REMARK VINA RESULT:      -6.9     13.402     17.599
REMARK  Name = pdb/CHEMBL3894154.pdb
REMARK                            x       y       z     vdW  Elec       q    Type
REMARK                         _______ _______ _______ _____ _____    ______ ____
ROOT
ATOM      1  C   LIG    1      -31.623  74.128  29.793  0.00  0.00    +0.149 A 
ATOM      2  N   LIG    1      -31.567  75.417  29.427  0.00  0.00    -0.160 NA
ATOM      3  N   LIG    1      -32.696  75.637  28.700  0.00  0.00    -0.218 N 
ATOM      4  C   LIG    1      -33.414  74.442  28.503  0.00  0.00    +0.129 A 
ATOM      5  C   LIG    1      -32.777  73.505  29.271  0.00  0.00    +0.078 A 
ENDROOT
BRANCH   3   6
ATOM      6  C   LIG    1      -32.973  76.947  28.214  0.00  0.00    +0.067 A 
ATOM      7  C   LIG    1      -33.911  77.769  28.851  0.00  0.00    +0.028 A 
ATOM      8  C   LIG    1      -34.136  79.068  28.385  0.00  0.00    +0.002 A 
ATOM      9  C   LIG    1      -33.442  79.553  27.279  0.00  0.00    +0.000 A 
ATOM     10  C   LIG    1      -32.510  78.742  26.636  0.00  0.00    +0.002 A 
ATOM     11  C   LIG    1      -32.263  77.447  27.108  0.00  0.00    +0.028 A 
ENDBRANCH   3   6
BRANCH   4  12
ATOM     12  N   LIG    1      -34.511  74.197  27.668  0.00  0.00    -0.266 N 
ATOM     13  H   LIG    1      -34.367  73.677  26.816  0.00  0.00    +0.157 HD
ATOM     14  C   LIG    1      -35.873  74.494  28.076  0.00  0.00    +0.251 C 
ATOM     15  O   LIG    1      -36.121  74.955  29.168  0.00  0.00    -0.270 OA
BRANCH  14  16
ATOM     16  C   LIG    1      -36.956  74.254  27.086  0.00  0.00    +0.056 A 
ATOM     17  C   LIG    1      -37.313  72.994  26.623  0.00  0.00    +0.054 A 
ATOM     18 CL   LIG    1      -36.648  71.527  27.243  0.00  0.00    -0.083 Cl
ATOM     19  C   LIG    1      -38.272  72.875  25.618  0.00  0.00    +0.041 A 
ATOM     20  C   LIG    1      -38.881  74.007  25.055  0.00  0.00    +0.052 A 
ATOM     21 CL   LIG    1      -40.020  73.657  23.799  0.00  0.00    -0.083 Cl
ATOM     22  C   LIG    1      -38.585  75.304  25.525  0.00  0.00    +0.019 A 
ATOM     23  C   LIG    1      -37.635  75.385  26.578  0.00  0.00    +0.026 A 
BRANCH  22  24
ATOM     24  C   LIG    1      -39.202  76.564  25.029  0.00  0.00    +0.072 A 
ATOM     25  N   LIG    1      -40.445  76.815  25.521  0.00  0.00    -0.255 NA
ATOM     26  C   LIG    1      -41.098  77.920  25.088  0.00  0.00    +0.111 A 
ATOM     27  C   LIG    1      -40.582  78.805  24.161  0.00  0.00    +0.020 A 
ATOM     28  C   LIG    1      -39.302  78.569  23.688  0.00  0.00    +0.004 A 
ATOM     29  C   LIG    1      -38.594  77.460  24.150  0.00  0.00    +0.028 A 
ENDBRANCH  22  24
ENDBRANCH  14  16
ENDBRANCH   4  12
BRANCH   1  30
ATOM     30  C   LIG    1      -30.580  73.456  30.565  0.00  0.00    +0.236 C 
ATOM     31  N   LIG    1      -30.187  73.906  31.696  0.00  0.00    -0.243 NA
BRANCH  30  32
ATOM     32  O   LIG    1      -30.119  72.346  29.951  0.00  0.00    -0.491 OA
ATOM     33  H   LIG    1      -30.814  71.661  29.911  0.00  0.00    +0.294 HD
ENDBRANCH  30  32
BRANCH  31  34
ATOM     34  C   LIG    1      -29.073  73.326  32.448  0.00  0.00    +0.200 C 
BRANCH  34  35
ATOM     35  C   LIG    1      -27.682  73.797  32.065  0.00  0.00    +0.066 A 
ATOM     36  N   LIG    1      -27.447  75.132  32.127  0.00  0.00    -0.238 NA
ATOM     37  C   LIG    1      -26.243  75.558  31.708  0.00  0.00    +0.221 A 
ATOM     38  N   LIG    1      -25.244  74.777  31.287  0.00  0.00    -0.244 NA
ATOM     39  C   LIG    1      -25.499  73.457  31.291  0.00  0.00    +0.114 A 
ATOM     40  C   LIG    1      -26.705  72.907  31.671  0.00  0.00    +0.045 A 
ENDBRANCH  34  35
ENDBRANCH  31  34
ENDBRANCH   1  30
TORSDOF 8
ENDMDL
MODEL 3
REMARK VINA RESULT:      -6.9     19.855     23.892
REMARK  Name = pdb/CHEMBL3894154.pdb
REMARK                            x       y       z     vdW  Elec       q    Type
REMARK                         _______ _______ _______ _____ _____    ______ ____
ROOT
ATOM      1  C   LIG    1      -34.914  67.077  22.535  0.00  0.00    +0.149 A 
ATOM      2  N   LIG    1      -34.536  67.376  23.788  0.00  0.00    -0.160 NA
ATOM      3  N   LIG    1      -35.427  68.306  24.224  0.00  0.00    -0.218 N 
ATOM      4  C   LIG    1      -36.307  68.689  23.194  0.00  0.00    +0.129 A 
ATOM      5  C   LIG    1      -36.034  67.845  22.152  0.00  0.00    +0.078 A 
ENDROOT
BRANCH   3   6
ATOM      6  C   LIG    1      -35.340  68.788  25.562  0.00  0.00    +0.067 A 
ATOM      7  C   LIG    1      -35.986  68.123  26.611  0.00  0.00    +0.028 A 
ATOM      8  C   LIG    1      -35.851  68.586  27.924  0.00  0.00    +0.002 A 
ATOM      9  C   LIG    1      -35.086  69.717  28.200  0.00  0.00    +0.000 A 
ATOM     10  C   LIG    1      -34.443  70.388  27.162  0.00  0.00    +0.002 A 
ATOM     11  C   LIG    1      -34.555  69.920  25.848  0.00  0.00    +0.028 A 
ENDBRANCH   3   6
BRANCH   4  12
ATOM     12  N   LIG    1      -37.236  69.737  23.168  0.00  0.00    -0.266 N 
ATOM     13  H   LIG    1      -37.093  70.498  22.523  0.00  0.00    +0.157 HD
ATOM     14  C   LIG    1      -38.492  69.673  23.895  0.00  0.00    +0.251 C 
ATOM     15  O   LIG    1      -38.799  68.699  24.546  0.00  0.00    -0.270 OA
BRANCH  14  16
ATOM     16  C   LIG    1      -39.374  70.868  23.850  0.00  0.00    +0.056 A 
ATOM     17  C   LIG    1      -40.588  70.906  23.175  0.00  0.00    +0.054 A 
ATOM     18 CL   LIG    1      -41.304  69.527  22.424  0.00  0.00    -0.083 Cl
ATOM     19  C   LIG    1      -41.300  72.103  23.103  0.00  0.00    +0.041 A 
ATOM     20  C   LIG    1      -40.809  73.279  23.692  0.00  0.00    +0.052 A 
ATOM     21 CL   LIG    1      -41.818  74.668  23.466  0.00  0.00    -0.083 Cl
ATOM     22  C   LIG    1      -39.605  73.278  24.427  0.00  0.00    +0.019 A 
ATOM     23  C   LIG    1      -38.928  72.032  24.515  0.00  0.00    +0.026 A 
BRANCH  22  24
ATOM     24  C   LIG    1      -39.018  74.455  25.124  0.00  0.00    +0.072 A 
ATOM     25  N   LIG    1      -39.690  74.841  26.241  0.00  0.00    -0.255 NA
ATOM     26  C   LIG    1      -39.250  75.932  26.914  0.00  0.00    +0.111 A 
ATOM     27  C   LIG    1      -38.162  76.688  26.524  0.00  0.00    +0.020 A 
ATOM     28  C   LIG    1      -37.455  76.273  25.407  0.00  0.00    +0.004 A 
ATOM     29  C   LIG    1      -37.866  75.130  24.722  0.00  0.00    +0.028 A 
ENDBRANCH  22  24
ENDBRANCH  14  16
ENDBRANCH   4  12
BRANCH   1  30
ATOM     30  C   LIG    1      -34.202  66.138  21.673  0.00  0.00    +0.236 C 
ATOM     31  N   LIG    1      -33.323  66.535  20.831  0.00  0.00    -0.243 NA
BRANCH  30  32
ATOM     32  O   LIG    1      -34.577  64.859  21.883  0.00  0.00    -0.491 OA
ATOM     33  H   LIG    1      -34.521  64.344  21.056  0.00  0.00    +0.294 HD
ENDBRANCH  30  32
BRANCH  31  34
ATOM     34  C   LIG    1      -32.668  65.641  19.874  0.00  0.00    +0.200 C 
BRANCH  34  35
ATOM     35  C   LIG    1      -31.383  66.148  19.246  0.00  0.00    +0.066 A 
ATOM     36  N   LIG    1      -30.363  65.261  19.130  0.00  0.00    -0.238 NA
ATOM     37  C   LIG    1      -29.199  65.731  18.651  0.00  0.00    +0.221 A 
ATOM     38  N   LIG    1      -28.976  66.980  18.233  0.00  0.00    -0.244 NA
ATOM     39  C   LIG    1      -30.028  67.815  18.315  0.00  0.00    +0.114 A 
ATOM     40  C   LIG    1      -31.261  67.453  18.815  0.00  0.00    +0.045 A 
ENDBRANCH  34  35
ENDBRANCH  31  34
ENDBRANCH   1  30
TORSDOF 8
ENDMDL
MODEL 4
REMARK VINA RESULT:      -6.8     17.941     21.987
REMARK  Name = pdb/CHEMBL3894154.pdb
REMARK                            x       y       z     vdW  Elec       q    Type
REMARK                         _______ _______ _______ _____ _____    ______ ____
ROOT
ATOM      1  C   LIG    1      -36.334  71.812  26.742  0.00  0.00    +0.149 A 
ATOM      2  N   LIG    1      -37.393  72.553  26.379  0.00  0.00    -0.160 NA
ATOM      3  N   LIG    1      -37.828  72.014  25.209  0.00  0.00    -0.218 N 
ATOM      4  C   LIG    1      -36.963  70.997  24.764  0.00  0.00    +0.129 A 
ATOM      5  C   LIG    1      -36.066  70.813  25.781  0.00  0.00    +0.078 A 
ENDROOT
BRANCH   3   6
ATOM      6  C   LIG    1      -38.998  72.539  24.587  0.00  0.00    +0.067 A 
ATOM      7  C   LIG    1      -39.991  71.690  24.085  0.00  0.00    +0.028 A 
ATOM      8  C   LIG    1      -41.153  72.225  23.518  0.00  0.00    +0.002 A 
ATOM      9  C   LIG    1      -41.328  73.604  23.438  0.00  0.00    +0.000 A 
ATOM     10  C   LIG    1      -40.344  74.458  23.932  0.00  0.00    +0.002 A 
ATOM     11  C   LIG    1      -39.188  73.931  24.518  0.00  0.00    +0.028 A 
ENDBRANCH   3   6
BRANCH   4  12
ATOM     12  N   LIG    1      -36.942  70.328  23.533  0.00  0.00    -0.266 N 
ATOM     13  H   LIG    1      -36.403  70.719  22.776  0.00  0.00    +0.157 HD
ATOM     14  C   LIG    1      -37.507  69.000  23.367  0.00  0.00    +0.251 C 
ATOM     15  O   LIG    1      -38.009  68.405  24.294  0.00  0.00    -0.270 OA
BRANCH  14  16
ATOM     16  C   LIG    1      -37.489  68.411  22.003  0.00  0.00    +0.056 A 
ATOM     17  C   LIG    1      -38.548  68.501  21.108  0.00  0.00    +0.054 A 
ATOM     18 CL   LIG    1      -39.969  69.435  21.406  0.00  0.00    -0.083 Cl
ATOM     19  C   LIG    1      -38.480  67.830  19.889  0.00  0.00    +0.041 A 
ATOM     20  C   LIG    1      -37.362  67.053  19.547  0.00  0.00    +0.052 A 
ATOM     21 CL   LIG    1      -37.479  66.270  18.006  0.00  0.00    -0.083 Cl
ATOM     22  C   LIG    1      -36.243  66.969  20.401  0.00  0.00    +0.019 A 
ATOM     23  C   LIG    1      -36.330  67.700  21.617  0.00  0.00    +0.026 A 
BRANCH  22  24
ATOM     24  C   LIG    1      -34.994  66.211  20.118  0.00  0.00    +0.072 A 
ATOM     25  N   LIG    1      -33.850  66.924  20.293  0.00  0.00    -0.255 NA
ATOM     26  C   LIG    1      -32.668  66.324  20.014  0.00  0.00    +0.111 A 
ATOM     27  C   LIG    1      -32.554  65.029  19.547  0.00  0.00    +0.020 A 
ATOM     28  C   LIG    1      -33.717  64.291  19.403  0.00  0.00    +0.004 A 
ATOM     29  C   LIG    1      -34.943  64.874  19.723  0.00  0.00    +0.028 A 
ENDBRANCH  22  24
ENDBRANCH  14  16
ENDBRANCH   4  12
BRANCH   1  30
ATOM     30  C   LIG    1      -35.531  72.070  27.934  0.00  0.00    +0.236 C 
ATOM     31  N   LIG    1      -34.502  72.829  27.898  0.00  0.00    -0.243 NA
BRANCH  30  32
ATOM     32  O   LIG    1      -36.008  71.433  29.024  0.00  0.00    -0.491 OA
ATOM     33  H   LIG    1      -35.690  70.510  29.050  0.00  0.00    +0.294 HD
ENDBRANCH  30  32
BRANCH  31  34
ATOM     34  C   LIG    1      -33.609  73.026  29.043  0.00  0.00    +0.200 C 
BRANCH  34  35
ATOM     35  C   LIG    1      -32.851  74.340  29.090  0.00  0.00    +0.066 A 
ATOM     36  N   LIG    1      -33.396  75.388  28.422  0.00  0.00    -0.238 NA
ATOM     37  C   LIG    1      -32.685  76.528  28.393  0.00  0.00    +0.221 A 
ATOM     38  N   LIG    1      -31.517  76.732  29.007  0.00  0.00    -0.244 NA
ATOM     39  C   LIG    1      -31.036  75.686  29.702  0.00  0.00    +0.114 A 
ATOM     40  C   LIG    1      -31.663  74.460  29.779  0.00  0.00    +0.045 A 
ENDBRANCH  34  35
ENDBRANCH  31  34
ENDBRANCH   1  30
TORSDOF 8
ENDMDL
MODEL 5
REMARK VINA RESULT:      -6.7     19.254     20.832
REMARK  Name = pdb/CHEMBL3894154.pdb
REMARK                            x       y       z     vdW  Elec       q    Type
REMARK                         _______ _______ _______ _____ _____    ______ ____
ROOT
ATOM      1  C   LIG    1      -21.857  82.131  15.726  0.00  0.00    +0.149 A 
ATOM      2  N   LIG    1      -20.593  81.692  15.825  0.00  0.00    -0.160 NA
ATOM      3  N   LIG    1      -20.663  80.344  15.658  0.00  0.00    -0.218 N 
ATOM      4  C   LIG    1      -21.999  79.910  15.574  0.00  0.00    +0.129 A 
ATOM      5  C   LIG    1      -22.749  81.055  15.530  0.00  0.00    +0.078 A 
ENDROOT
BRANCH   3   6
ATOM      6  C   LIG    1      -19.462  79.576  15.642  0.00  0.00    +0.067 A 
ATOM      7  C   LIG    1      -19.180  78.657  16.660  0.00  0.00    +0.028 A 
ATOM      8  C   LIG    1      -18.018  77.881  16.603  0.00  0.00    +0.002 A 
ATOM      9  C   LIG    1      -17.127  78.021  15.542  0.00  0.00    +0.000 A 
ATOM     10  C   LIG    1      -17.396  78.934  14.526  0.00  0.00    +0.002 A 
ATOM     11  C   LIG    1      -18.567  79.701  14.565  0.00  0.00    +0.028 A 
ENDBRANCH   3   6
BRANCH   4  12
ATOM     12  N   LIG    1      -22.509  78.606  15.591  0.00  0.00    -0.266 N 
ATOM     13  H   LIG    1      -23.142  78.341  16.329  0.00  0.00    +0.157 HD
ATOM     14  C   LIG    1      -22.313  77.687  14.483  0.00  0.00    +0.251 C 
ATOM     15  O   LIG    1      -21.711  78.016  13.485  0.00  0.00    -0.270 OA
BRANCH  14  16
ATOM     16  C   LIG    1      -22.842  76.306  14.633  0.00  0.00    +0.056 A 
ATOM     17  C   LIG    1      -23.839  75.770  13.828  0.00  0.00    +0.054 A 
ATOM     18 CL   LIG    1      -24.494  76.582  12.454  0.00  0.00    -0.083 Cl
ATOM     19  C   LIG    1      -24.343  74.500  14.109  0.00  0.00    +0.041 A 
ATOM     20  C   LIG    1      -23.868  73.753  15.197  0.00  0.00    +0.052 A 
ATOM     21 CL   LIG    1      -24.640  72.216  15.401  0.00  0.00    -0.083 Cl
ATOM     22  C   LIG    1      -22.824  74.236  16.014  0.00  0.00    +0.019 A 
ATOM     23  C   LIG    1      -22.306  75.514  15.674  0.00  0.00    +0.026 A 
BRANCH  22  24
ATOM     24  C   LIG    1      -22.220  73.509  17.164  0.00  0.00    +0.072 A 
ATOM     25  N   LIG    1      -20.916  73.166  16.991  0.00  0.00    -0.255 NA
ATOM     26  C   LIG    1      -20.299  72.462  17.971  0.00  0.00    +0.111 A 
ATOM     27  C   LIG    1      -20.922  72.058  19.136  0.00  0.00    +0.020 A 
ATOM     28  C   LIG    1      -22.239  72.439  19.328  0.00  0.00    +0.004 A 
ATOM     29  C   LIG    1      -22.883  73.198  18.351  0.00  0.00    +0.028 A 
ENDBRANCH  22  24
ENDBRANCH  14  16
ENDBRANCH   4  12
BRANCH   1  30
ATOM     30  C   LIG    1      -22.247  83.530  15.882  0.00  0.00    +0.236 C 
ATOM     31  N   LIG    1      -22.355  84.312  14.874  0.00  0.00    -0.243 NA
BRANCH  30  32
ATOM     32  O   LIG    1      -22.474  83.862  17.170  0.00  0.00    -0.491 OA
ATOM     33  H   LIG    1      -22.024  83.237  17.770  0.00  0.00    +0.294 HD
ENDBRANCH  30  32
BRANCH  31  34
ATOM     34  C   LIG    1      -22.636  85.743  14.996  0.00  0.00    +0.200 C 
BRANCH  34  35
ATOM     35  C   LIG    1      -21.624  86.686  14.374  0.00  0.00    +0.066 A 
ATOM     36  N   LIG    1      -20.410  86.166  14.063  0.00  0.00    -0.238 NA
ATOM     37  C   LIG    1      -19.485  87.018  13.590  0.00  0.00    +0.221 A 
ATOM     38  N   LIG    1      -19.674  88.319  13.352  0.00  0.00    -0.244 NA
ATOM     39  C   LIG    1      -20.906  88.784  13.623  0.00  0.00    +0.114 A 
ATOM     40  C   LIG    1      -21.925  88.012  14.138  0.00  0.00    +0.045 A 
ENDBRANCH  34  35
ENDBRANCH  31  34
ENDBRANCH   1  30
TORSDOF 8
ENDMDL
MODEL 6
REMARK VINA RESULT:      -6.7      7.349     11.433
REMARK  Name = pdb/CHEMBL3894154.pdb
REMARK                            x       y       z     vdW  Elec       q    Type
REMARK                         _______ _______ _______ _____ _____    ______ ____
ROOT
ATOM      1  C   LIG    1      -23.942  77.302  31.044  0.00  0.00    +0.149 A 
ATOM      2  N   LIG    1      -23.935  77.813  32.285  0.00  0.00    -0.160 NA
ATOM      3  N   LIG    1      -25.201  77.648  32.752  0.00  0.00    -0.218 N 
ATOM      4  C   LIG    1      -26.050  77.137  31.753  0.00  0.00    +0.129 A 
ATOM      5  C   LIG    1      -25.229  76.837  30.699  0.00  0.00    +0.078 A 
ENDROOT
BRANCH   3   6
ATOM      6  C   LIG    1      -25.511  78.034  34.088  0.00  0.00    +0.067 A 
ATOM      7  C   LIG    1      -24.833  79.089  34.710  0.00  0.00    +0.028 A 
ATOM      8  C   LIG    1      -25.182  79.481  36.007  0.00  0.00    +0.002 A 
ATOM      9  C   LIG    1      -26.198  78.822  36.695  0.00  0.00    +0.000 A 
ATOM     10  C   LIG    1      -26.877  77.769  36.086  0.00  0.00    +0.002 A 
ATOM     11  C   LIG    1      -26.548  77.382  34.782  0.00  0.00    +0.028 A 
ENDBRANCH   3   6
BRANCH   4  12
ATOM     12  N   LIG    1      -27.444  77.000  31.760  0.00  0.00    -0.266 N 
ATOM     13  H   LIG    1      -28.010  77.770  31.436  0.00  0.00    +0.157 HD
ATOM     14  C   LIG    1      -28.093  75.730  32.031  0.00  0.00    +0.251 C 
ATOM     15  O   LIG    1      -27.453  74.725  32.249  0.00  0.00    -0.270 OA
BRANCH  14  16
ATOM     16  C   LIG    1      -29.579  75.713  32.078  0.00  0.00    +0.056 A 
ATOM     17  C   LIG    1      -30.312  75.466  33.232  0.00  0.00    +0.054 A 
ATOM     18 CL   LIG    1      -29.600  75.292  34.794  0.00  0.00    -0.083 Cl
ATOM     19  C   LIG    1      -31.701  75.369  33.159  0.00  0.00    +0.041 A 
ATOM     20  C   LIG    1      -32.377  75.507  31.937  0.00  0.00    +0.052 A 
ATOM     21 CL   LIG    1      -34.095  75.321  32.045  0.00  0.00    -0.083 Cl
ATOM     22  C   LIG    1      -31.680  75.805  30.747  0.00  0.00    +0.019 A 
ATOM     23  C   LIG    1      -30.270  75.938  30.866  0.00  0.00    +0.026 A 
BRANCH  22  24
ATOM     24  C   LIG    1      -32.301  76.013  29.411  0.00  0.00    +0.072 A 
ATOM     25  N   LIG    1      -31.874  77.126  28.758  0.00  0.00    -0.255 NA
ATOM     26  C   LIG    1      -32.421  77.416  27.553  0.00  0.00    +0.111 A 
ATOM     27  C   LIG    1      -33.401  76.653  26.949  0.00  0.00    +0.020 A 
ATOM     28  C   LIG    1      -33.809  75.499  27.598  0.00  0.00    +0.004 A 
ATOM     29  C   LIG    1      -33.232  75.158  28.820  0.00  0.00    +0.028 A 
ENDBRANCH  22  24
ENDBRANCH  14  16
ENDBRANCH   4  12
BRANCH   1  30
ATOM     30  C   LIG    1      -22.783  77.305  30.156  0.00  0.00    +0.236 C 
ATOM     31  N   LIG    1      -21.701  76.692  30.462  0.00  0.00    -0.243 NA
BRANCH  30  32
ATOM     32  O   LIG    1      -23.003  78.003  29.022  0.00  0.00    -0.491 OA
ATOM     33  H   LIG    1      -23.928  78.314  28.984  0.00  0.00    +0.294 HD
ENDBRANCH  30  32
BRANCH  31  34
ATOM     34  C   LIG    1      -20.483  76.761  29.652  0.00  0.00    +0.200 C 
BRANCH  34  35
ATOM     35  C   LIG    1      -19.187  77.009  30.402  0.00  0.00    +0.066 A 
ATOM     36  N   LIG    1      -19.234  77.887  31.436  0.00  0.00    -0.238 NA
ATOM     37  C   LIG    1      -18.070  78.170  32.046  0.00  0.00    +0.221 A 
ATOM     38  N   LIG    1      -16.887  77.624  31.758  0.00  0.00    -0.244 NA
ATOM     39  C   LIG    1      -16.892  76.720  30.763  0.00  0.00    +0.114 A 
ATOM     40  C   LIG    1      -18.017  76.371  30.046  0.00  0.00    +0.045 A 
ENDBRANCH  34  35
ENDBRANCH  31  34
ENDBRANCH   1  30
TORSDOF 8
ENDMDL
MODEL 7
REMARK VINA RESULT:      -6.6     20.957     25.019
REMARK  Name = pdb/CHEMBL3894154.pdb
REMARK                            x       y       z     vdW  Elec       q    Type
REMARK                         _______ _______ _______ _____ _____    ______ ____
ROOT
ATOM      1  C   LIG    1      -22.112  85.378  14.582  0.00  0.00    +0.149 A 
ATOM      2  N   LIG    1      -21.094  85.298  13.711  0.00  0.00    -0.160 NA
ATOM      3  N   LIG    1      -21.030  86.520  13.116  0.00  0.00    -0.218 N 
ATOM      4  C   LIG    1      -22.094  87.343  13.526  0.00  0.00    +0.129 A 
ATOM      5  C   LIG    1      -22.728  86.647  14.521  0.00  0.00    +0.078 A 
ENDROOT
BRANCH   3   6
ATOM      6  C   LIG    1      -19.995  86.786  12.173  0.00  0.00    +0.067 A 
ATOM      7  C   LIG    1      -20.165  86.497  10.814  0.00  0.00    +0.028 A 
ATOM      8  C   LIG    1      -19.155  86.807   9.898  0.00  0.00    +0.002 A 
ATOM      9  C   LIG    1      -17.968  87.395  10.327  0.00  0.00    +0.000 A 
ATOM     10  C   LIG    1      -17.787  87.684  11.678  0.00  0.00    +0.002 A 
ATOM     11  C   LIG    1      -18.800  87.396  12.599  0.00  0.00    +0.028 A 
ENDBRANCH   3   6
BRANCH   4  12
ATOM     12  N   LIG    1      -22.499  88.585  13.021  0.00  0.00    -0.266 N 
ATOM     13  H   LIG    1      -22.025  89.417  13.337  0.00  0.00    +0.157 HD
ATOM     14  C   LIG    1      -23.439  88.700  11.920  0.00  0.00    +0.251 C 
ATOM     15  O   LIG    1      -23.904  87.722  11.378  0.00  0.00    -0.270 OA
BRANCH  14  16
ATOM     16  C   LIG    1      -23.849  90.068  11.505  0.00  0.00    +0.056 A 
ATOM     17  C   LIG    1      -23.131  90.851  10.610  0.00  0.00    +0.054 A 
ATOM     18 CL   LIG    1      -21.747  90.285   9.748  0.00  0.00    -0.083 Cl
ATOM     19  C   LIG    1      -23.538  92.160  10.359  0.00  0.00    +0.041 A 
ATOM     20  C   LIG    1      -24.658  92.710  11.002  0.00  0.00    +0.052 A 
ATOM     21 CL   LIG    1      -24.983  94.359  10.585  0.00  0.00    -0.083 Cl
ATOM     22  C   LIG    1      -25.445  91.939  11.882  0.00  0.00    +0.019 A 
ATOM     23  C   LIG    1      -25.026  90.596  12.082  0.00  0.00    +0.026 A 
BRANCH  22  24
ATOM     24  C   LIG    1      -26.672  92.410  12.580  0.00  0.00    +0.072 A 
ATOM     25  N   LIG    1      -27.701  92.738  11.754  0.00  0.00    -0.255 NA
ATOM     26  C   LIG    1      -28.842  93.219  12.304  0.00  0.00    +0.111 A 
ATOM     27  C   LIG    1      -29.021  93.409  13.660  0.00  0.00    +0.020 A 
ATOM     28  C   LIG    1      -27.987  93.039  14.505  0.00  0.00    +0.004 A 
ATOM     29  C   LIG    1      -26.818  92.505  13.964  0.00  0.00    +0.028 A 
ENDBRANCH  22  24
ENDBRANCH  14  16
ENDBRANCH   4  12
BRANCH   1  30
ATOM     30  C   LIG    1      -22.559  84.266  15.416  0.00  0.00    +0.236 C 
ATOM     31  N   LIG    1      -22.600  83.067  14.969  0.00  0.00    -0.243 NA
BRANCH  30  32
ATOM     32  O   LIG    1      -22.896  84.659  16.662  0.00  0.00    -0.491 OA
ATOM     33  H   LIG    1      -22.140  84.558  17.271  0.00  0.00    +0.294 HD
ENDBRANCH  30  32
BRANCH  31  34
ATOM     34  C   LIG    1      -23.142  81.943  15.736  0.00  0.00    +0.200 C 
BRANCH  34  35
ATOM     35  C   LIG    1      -24.079  81.009  14.993  0.00  0.00    +0.066 A 
ATOM     36  N   LIG    1      -24.639  81.481  13.850  0.00  0.00    -0.238 NA
ATOM     37  C   LIG    1      -25.533  80.687  13.237  0.00  0.00    +0.221 A 
ATOM     38  N   LIG    1      -25.878  79.457  13.627  0.00  0.00    -0.244 NA
ATOM     39  C   LIG    1      -25.262  79.005  14.734  0.00  0.00    +0.114 A 
ATOM     40  C   LIG    1      -24.351  79.741  15.462  0.00  0.00    +0.045 A 
ENDBRANCH  34  35
ENDBRANCH  31  34
ENDBRANCH   1  30
TORSDOF 8
ENDMDL
MODEL 8
REMARK VINA RESULT:      -6.6     13.728     17.567
REMARK  Name = pdb/CHEMBL3894154.pdb
REMARK                            x       y       z     vdW  Elec       q    Type
REMARK                         _______ _______ _______ _____ _____    ______ ____
ROOT
ATOM      1  C   LIG    1      -31.702  74.309  29.755  0.00  0.00    +0.149 A 
ATOM      2  N   LIG    1      -31.640  75.624  29.491  0.00  0.00    -0.160 NA
ATOM      3  N   LIG    1      -32.733  75.892  28.728  0.00  0.00    -0.218 N 
ATOM      4  C   LIG    1      -33.429  74.713  28.403  0.00  0.00    +0.129 A 
ATOM      5  C   LIG    1      -32.822  73.723  29.128  0.00  0.00    +0.078 A 
ENDROOT
BRANCH   3   6
ATOM      6  C   LIG    1      -32.998  77.235  28.330  0.00  0.00    +0.067 A 
ATOM      7  C   LIG    1      -32.313  77.817  27.257  0.00  0.00    +0.028 A 
ATOM      8  C   LIG    1      -32.619  79.121  26.854  0.00  0.00    +0.002 A 
ATOM      9  C   LIG    1      -33.597  79.856  27.520  0.00  0.00    +0.000 A 
ATOM     10  C   LIG    1      -34.283  79.286  28.590  0.00  0.00    +0.002 A 
ATOM     11  C   LIG    1      -33.997  77.975  28.988  0.00  0.00    +0.028 A 
ENDBRANCH   3   6
BRANCH   4  12
ATOM     12  N   LIG    1      -34.481  74.527  27.498  0.00  0.00    -0.266 N 
ATOM     13  H   LIG    1      -34.287  74.089  26.610  0.00  0.00    +0.157 HD
ATOM     14  C   LIG    1      -35.866  74.762  27.864  0.00  0.00    +0.251 C 
ATOM     15  O   LIG    1      -36.175  75.117  28.981  0.00  0.00    -0.270 OA
BRANCH  14  16
ATOM     16  C   LIG    1      -36.896  74.596  26.806  0.00  0.00    +0.056 A 
ATOM     17  C   LIG    1      -37.604  75.652  26.245  0.00  0.00    +0.054 A 
ATOM     18 CL   LIG    1      -37.280  77.310  26.597  0.00  0.00    -0.083 Cl
ATOM     19  C   LIG    1      -38.623  75.390  25.331  0.00  0.00    +0.041 A 
ATOM     20  C   LIG    1      -38.958  74.076  24.969  0.00  0.00    +0.052 A 
ATOM     21 CL   LIG    1      -40.271  73.954  23.847  0.00  0.00    -0.083 Cl
ATOM     22  C   LIG    1      -38.236  72.975  25.476  0.00  0.00    +0.019 A 
ATOM     23  C   LIG    1      -37.177  73.281  26.372  0.00  0.00    +0.026 A 
BRANCH  22  24
ATOM     24  C   LIG    1      -38.479  71.548  25.126  0.00  0.00    +0.072 A 
ATOM     25  N   LIG    1      -39.443  70.942  25.869  0.00  0.00    -0.255 NA
ATOM     26  C   LIG    1      -39.697  69.630  25.648  0.00  0.00    +0.111 A 
ATOM     27  C   LIG    1      -39.024  68.862  24.717  0.00  0.00    +0.020 A 
ATOM     28  C   LIG    1      -38.068  69.489  23.935  0.00  0.00    +0.004 A 
ATOM     29  C   LIG    1      -37.817  70.849  24.118  0.00  0.00    +0.028 A 
ENDBRANCH  22  24
ENDBRANCH  14  16
ENDBRANCH   4  12
BRANCH   1  30
ATOM     30  C   LIG    1      -30.693  73.585  30.524  0.00  0.00    +0.236 C 
ATOM     31  N   LIG    1      -30.281  74.012  31.658  0.00  0.00    -0.243 NA
BRANCH  30  32
ATOM     32  O   LIG    1      -30.284  72.458  29.905  0.00  0.00    -0.491 OA
ATOM     33  H   LIG    1      -29.798  72.672  29.086  0.00  0.00    +0.294 HD
ENDBRANCH  30  32
BRANCH  31  34
ATOM     34  C   LIG    1      -29.195  73.377  32.408  0.00  0.00    +0.200 C 
BRANCH  34  35
ATOM     35  C   LIG    1      -27.785  73.810  32.054  0.00  0.00    +0.066 A 
ATOM     36  N   LIG    1      -27.520  75.140  32.108  0.00  0.00    -0.238 NA
ATOM     37  C   LIG    1      -26.297  75.533  31.713  0.00  0.00    +0.221 A 
ATOM     38  N   LIG    1      -25.307  74.725  31.325  0.00  0.00    -0.244 NA
ATOM     39  C   LIG    1      -25.593  73.411  31.336  0.00  0.00    +0.114 A 
ATOM     40  C   LIG    1      -26.820  72.893  31.693  0.00  0.00    +0.045 A 
ENDBRANCH  34  35
ENDBRANCH  31  34
ENDBRANCH   1  30
TORSDOF 8
ENDMDL
MODEL 9
REMARK VINA RESULT:      -6.5      5.584      9.778
REMARK  Name = pdb/CHEMBL3894154.pdb
REMARK                            x       y       z     vdW  Elec       q    Type
REMARK                         _______ _______ _______ _____ _____    ______ ____
ROOT
ATOM      1  C   LIG    1      -27.467  75.884  32.294  0.00  0.00    +0.149 A 
ATOM      2  N   LIG    1      -26.495  75.698  31.388  0.00  0.00    -0.160 NA
ATOM      3  N   LIG    1      -25.464  76.487  31.795  0.00  0.00    -0.218 N 
ATOM      4  C   LIG    1      -25.832  77.272  32.904  0.00  0.00    +0.129 A 
ATOM      5  C   LIG    1      -27.072  76.823  33.271  0.00  0.00    +0.078 A 
ENDROOT
BRANCH   3   6
ATOM      6  C   LIG    1      -24.237  76.467  31.071  0.00  0.00    +0.067 A 
ATOM      7  C   LIG    1      -23.909  77.494  30.179  0.00  0.00    +0.028 A 
ATOM      8  C   LIG    1      -22.680  77.478  29.511  0.00  0.00    +0.002 A 
ATOM      9  C   LIG    1      -21.777  76.438  29.718  0.00  0.00    +0.000 A 
ATOM     10  C   LIG    1      -22.095  75.409  30.602  0.00  0.00    +0.002 A 
ATOM     11  C   LIG    1      -23.314  75.427  31.289  0.00  0.00    +0.028 A 
ENDBRANCH   3   6
BRANCH   4  12
ATOM     12  N   LIG    1      -25.143  78.335  33.503  0.00  0.00    -0.266 N 
ATOM     13  H   LIG    1      -25.549  79.257  33.470  0.00  0.00    +0.157 HD
ATOM     14  C   LIG    1      -23.970  78.124  34.332  0.00  0.00    +0.251 C 
ATOM     15  O   LIG    1      -23.543  77.012  34.555  0.00  0.00    -0.270 OA
BRANCH  14  16
ATOM     16  C   LIG    1      -23.279  79.327  34.866  0.00  0.00    +0.056 A 
ATOM     17  C   LIG    1      -21.934  79.602  34.653  0.00  0.00    +0.054 A 
ATOM     18 CL   LIG    1      -20.921  78.661  33.620  0.00  0.00    -0.083 Cl
ATOM     19  C   LIG    1      -21.348  80.702  35.278  0.00  0.00    +0.041 A 
ATOM     20  C   LIG    1      -22.089  81.536  36.129  0.00  0.00    +0.052 A 
ATOM     21 CL   LIG    1      -21.178  82.828  36.836  0.00  0.00    -0.083 Cl
ATOM     22  C   LIG    1      -23.468  81.324  36.338  0.00  0.00    +0.019 A 
ATOM     23  C   LIG    1      -24.041  80.219  35.652  0.00  0.00    +0.026 A 
BRANCH  22  24
ATOM     24  C   LIG    1      -24.354  82.171  37.183  0.00  0.00    +0.072 A 
ATOM     25  N   LIG    1      -25.343  82.807  36.502  0.00  0.00    -0.255 NA
ATOM     26  C   LIG    1      -26.169  83.634  37.187  0.00  0.00    +0.111 A 
ATOM     27  C   LIG    1      -26.058  83.882  38.541  0.00  0.00    +0.020 A 
ATOM     28  C   LIG    1      -25.073  83.206  39.242  0.00  0.00    +0.004 A 
ATOM     29  C   LIG    1      -24.237  82.318  38.565  0.00  0.00    +0.028 A 
ENDBRANCH  22  24
ENDBRANCH  14  16
ENDBRANCH   4  12
BRANCH   1  30
ATOM     30  C   LIG    1      -28.780  75.249  32.221  0.00  0.00    +0.236 C 
ATOM     31  N   LIG    1      -29.572  75.457  31.237  0.00  0.00    -0.243 NA
BRANCH  30  32
ATOM     32  O   LIG    1      -29.025  74.446  33.278  0.00  0.00    -0.491 OA
ATOM     33  H   LIG    1      -29.949  74.543  33.576  0.00  0.00    +0.294 HD
ENDBRANCH  30  32
BRANCH  31  34
ATOM     34  C   LIG    1      -30.936  74.928  31.178  0.00  0.00    +0.200 C 
BRANCH  34  35
ATOM     35  C   LIG    1      -31.748  75.288  29.948  0.00  0.00    +0.066 A 
ATOM     36  N   LIG    1      -31.474  76.480  29.359  0.00  0.00    -0.238 NA
ATOM     37  C   LIG    1      -32.249  76.838  28.320  0.00  0.00    +0.221 A 
ATOM     38  N   LIG    1      -33.227  76.100  27.789  0.00  0.00    -0.244 NA
ATOM     39  C   LIG    1      -33.432  74.904  28.368  0.00  0.00    +0.114 A 
ATOM     40  C   LIG    1      -32.720  74.443  29.455  0.00  0.00    +0.045 A 
ENDBRANCH  34  35
ENDBRANCH  31  34
ENDBRANCH   1  30
TORSDOF 8
ENDMDL
