MODEL 1
REMARK VINA RESULT:      -6.4      0.000      0.000
REMARK  Name = pdb/CHEMBL3671419.pdb
REMARK                            x       y       z     vdW  Elec       q    Type
REMARK                         _______ _______ _______ _____ _____    ______ ____
ROOT
ATOM      1  C   LIG    1      -33.114  73.446  29.061  0.00  0.00    +0.042 A 
ATOM      2  C   LIG    1      -34.076  73.375  28.037  0.00  0.00    +0.038 A 
ATOM      3  C   LIG    1      -34.729  72.162  27.773  0.00  0.00    +0.052 A 
ATOM      4  C   LIG    1      -34.454  71.096  28.624  0.00  0.00    +0.134 A 
ATOM      5  N   LIG    1      -33.498  71.120  29.585  0.00  0.00    -0.261 NA
ATOM      6  C   LIG    1      -32.816  72.277  29.739  0.00  0.00    +0.122 A 
ENDROOT
BRANCH   3   7
ATOM      7  N   LIG    1      -35.582  72.078  26.649  0.00  0.00    -0.284 N 
ATOM      8  H   LIG    1      -35.133  71.815  25.779  0.00  0.00    +0.155 HD
ATOM      9  C   LIG    1      -36.966  72.164  26.653  0.00  0.00    +0.222 C 
ATOM     10  O   LIG    1      -37.655  72.333  27.658  0.00  0.00    -0.275 OA
BRANCH   9  11
ATOM     11  C   LIG    1      -37.664  72.042  25.300  0.00  0.00    +0.131 C 
BRANCH  11  12
ATOM     12  C   LIG    1      -38.421  73.262  24.831  0.00  0.00    -0.039 A 
ATOM     13  C   LIG    1      -39.691  73.134  24.251  0.00  0.00    +0.005 A 
ATOM     14  C   LIG    1      -40.444  74.270  23.948  0.00  0.00    +0.020 A 
ATOM     15  C   LIG    1      -39.913  75.537  24.185  0.00  0.00    +0.041 A 
ATOM     16 CL   LIG    1      -40.839  76.937  23.807  0.00  0.00    -0.084 Cl
ATOM     17  C   LIG    1      -38.638  75.677  24.727  0.00  0.00    +0.020 A 
ATOM     18  C   LIG    1      -37.898  74.542  25.063  0.00  0.00    +0.005 A 
ENDBRANCH  11  12
ENDBRANCH   9  11
ENDBRANCH   3   7
BRANCH   1  19
ATOM     19  C   LIG    1      -32.385  74.705  29.337  0.00  0.00    +0.197 C 
ATOM     20  O   LIG    1      -31.209  74.612  29.723  0.00  0.00    -0.287 OA
BRANCH  19  28
ATOM     21  N   LIG    1      -34.387  77.807  29.356  0.00  0.00    -0.326 N 
ATOM     22  C   LIG    1      -33.643  78.005  28.206  0.00  0.00    +0.145 A 
ATOM     23  N   LIG    1      -33.723  79.062  27.374  0.00  0.00    -0.218 NA
ATOM     24  C   LIG    1      -32.856  78.967  26.346  0.00  0.00    +0.223 A 
ATOM     25  N   LIG    1      -31.976  77.982  26.089  0.00  0.00    -0.243 NA
ATOM     26  C   LIG    1      -31.941  76.937  26.943  0.00  0.00    +0.124 A 
ATOM     27  C   LIG    1      -32.787  76.915  28.054  0.00  0.00    +0.048 A 
ATOM     28  C   LIG    1      -33.008  76.015  29.139  0.00  0.00    +0.051 A 
ATOM     29  C   LIG    1      -33.964  76.621  29.935  0.00  0.00    +0.100 A 
BRANCH  21  31
ATOM     30  C   LIG    1      -36.457  79.123  28.818  0.00  0.00    +0.034 C 
ATOM     31  C   LIG    1      -35.441  78.700  29.902  0.00  0.00    +0.039 C 
ATOM     32  C   LIG    1      -36.257  77.994  31.018  0.00  0.00    +0.034 C 
ATOM     33  C   LIG    1      -34.825  79.969  30.523  0.00  0.00    +0.034 C 
ENDBRANCH  21  31
ENDBRANCH  19  28
ENDBRANCH   1  19
TORSDOF 6
ENDMDL
MODEL 2
REMARK VINA RESULT:      -6.3     12.051     15.905
REMARK  Name = pdb/CHEMBL3671419.pdb
REMARK                            x       y       z     vdW  Elec       q    Type
REMARK                         _______ _______ _______ _____ _____    ______ ____
ROOT
ATOM      1  C   LIG    1      -20.498  76.932  30.612  0.00  0.00    +0.042 A 
ATOM      2  C   LIG    1      -20.583  77.862  31.663  0.00  0.00    +0.038 A 
ATOM      3  C   LIG    1      -19.413  78.327  32.282  0.00  0.00    +0.052 A 
ATOM      4  C   LIG    1      -18.201  77.904  31.745  0.00  0.00    +0.134 A 
ATOM      5  N   LIG    1      -18.089  76.971  30.768  0.00  0.00    -0.261 NA
ATOM      6  C   LIG    1      -19.240  76.469  30.268  0.00  0.00    +0.122 A 
ENDROOT
BRANCH   3   7
ATOM      7  N   LIG    1      -19.528  79.147  33.428  0.00  0.00    -0.284 N 
ATOM      8  H   LIG    1      -19.586  80.143  33.249  0.00  0.00    +0.155 HD
ATOM      9  C   LIG    1      -19.724  78.721  34.733  0.00  0.00    +0.222 C 
ATOM     10  O   LIG    1      -19.822  77.545  35.080  0.00  0.00    -0.275 OA
BRANCH   9  11
ATOM     11  C   LIG    1      -19.816  79.808  35.802  0.00  0.00    +0.131 C 
BRANCH  11  12
ATOM     12  C   LIG    1      -21.142  80.523  35.909  0.00  0.00    -0.039 A 
ATOM     13  C   LIG    1      -22.346  79.809  35.832  0.00  0.00    +0.005 A 
ATOM     14  C   LIG    1      -23.562  80.452  36.071  0.00  0.00    +0.020 A 
ATOM     15  C   LIG    1      -23.581  81.818  36.347  0.00  0.00    +0.041 A 
ATOM     16 CL   LIG    1      -25.080  82.611  36.637  0.00  0.00    -0.084 Cl
ATOM     17  C   LIG    1      -22.394  82.545  36.391  0.00  0.00    +0.020 A 
ATOM     18  C   LIG    1      -21.175  81.897  36.187  0.00  0.00    +0.005 A 
ENDBRANCH  11  12
ENDBRANCH   9  11
ENDBRANCH   3   7
BRANCH   1  19
ATOM     19  C   LIG    1      -21.719  76.400  29.964  0.00  0.00    +0.197 C 
ATOM     20  O   LIG    1      -21.783  76.463  28.726  0.00  0.00    -0.287 OA
BRANCH  19  28
ATOM     21  N   LIG    1      -24.051  74.299  31.909  0.00  0.00    -0.326 N 
ATOM     22  C   LIG    1      -24.853  75.402  31.678  0.00  0.00    +0.145 A 
ATOM     23  N   LIG    1      -26.132  75.558  32.072  0.00  0.00    -0.218 NA
ATOM     24  C   LIG    1      -26.636  76.752  31.704  0.00  0.00    +0.223 A 
ATOM     25  N   LIG    1      -26.025  77.740  31.024  0.00  0.00    -0.243 NA
ATOM     26  C   LIG    1      -24.747  77.533  30.638  0.00  0.00    +0.124 A 
ATOM     27  C   LIG    1      -24.106  76.336  30.962  0.00  0.00    +0.048 A 
ATOM     28  C   LIG    1      -22.803  75.795  30.741  0.00  0.00    +0.051 A 
ATOM     29  C   LIG    1      -22.800  74.566  31.375  0.00  0.00    +0.100 A 
BRANCH  21  31
ATOM     30  C   LIG    1      -25.651  72.364  31.959  0.00  0.00    +0.034 C 
ATOM     31  C   LIG    1      -24.432  73.049  32.616  0.00  0.00    +0.039 C 
ATOM     32  C   LIG    1      -23.278  72.012  32.593  0.00  0.00    +0.034 C 
ATOM     33  C   LIG    1      -24.762  73.329  34.096  0.00  0.00    +0.034 C 
ENDBRANCH  21  31
ENDBRANCH  19  28
ENDBRANCH   1  19
TORSDOF 6
ENDMDL
MODEL 3
REMARK VINA RESULT:      -6.1      5.795     10.372
REMARK  Name = pdb/CHEMBL3671419.pdb
REMARK                            x       y       z     vdW  Elec       q    Type
REMARK                         _______ _______ _______ _____ _____    ______ ____
ROOT
ATOM      1  C   LIG    1      -35.605  80.853  29.655  0.00  0.00    +0.042 A 
ATOM      2  C   LIG    1      -35.078  82.142  29.459  0.00  0.00    +0.038 A 
ATOM      3  C   LIG    1      -35.813  83.097  28.742  0.00  0.00    +0.052 A 
ATOM      4  C   LIG    1      -37.096  82.737  28.339  0.00  0.00    +0.134 A 
ATOM      5  N   LIG    1      -37.609  81.490  28.470  0.00  0.00    -0.261 NA
ATOM      6  C   LIG    1      -36.828  80.567  29.074  0.00  0.00    +0.122 A 
ENDROOT
BRANCH   3   7
ATOM      7  N   LIG    1      -35.204  84.335  28.433  0.00  0.00    -0.284 N 
ATOM      8  H   LIG    1      -34.864  84.429  27.482  0.00  0.00    +0.155 HD
ATOM      9  C   LIG    1      -35.168  85.462  29.239  0.00  0.00    +0.222 C 
ATOM     10  O   LIG    1      -35.670  85.540  30.359  0.00  0.00    -0.275 OA
BRANCH   9  11
ATOM     11  C   LIG    1      -34.444  86.684  28.677  0.00  0.00    +0.131 C 
BRANCH  11  12
ATOM     12  C   LIG    1      -33.096  86.994  29.282  0.00  0.00    -0.039 A 
ATOM     13  C   LIG    1      -32.683  88.322  29.462  0.00  0.00    +0.005 A 
ATOM     14  C   LIG    1      -31.500  88.604  30.148  0.00  0.00    +0.020 A 
ATOM     15  C   LIG    1      -30.706  87.560  30.619  0.00  0.00    +0.041 A 
ATOM     16 CL   LIG    1      -29.246  87.907  31.459  0.00  0.00    -0.084 Cl
ATOM     17  C   LIG    1      -31.088  86.236  30.414  0.00  0.00    +0.020 A 
ATOM     18  C   LIG    1      -32.287  85.952  29.760  0.00  0.00    +0.005 A 
ENDBRANCH  11  12
ENDBRANCH   9  11
ENDBRANCH   3   7
BRANCH   1  19
ATOM     19  C   LIG    1      -34.834  79.815  30.379  0.00  0.00    +0.197 C 
ATOM     20  O   LIG    1      -34.695  79.957  31.604  0.00  0.00    -0.287 OA
BRANCH  19  28
ATOM     21  N   LIG    1      -33.543  76.544  29.255  0.00  0.00    -0.326 N 
ATOM     22  C   LIG    1      -33.151  77.338  28.193  0.00  0.00    +0.145 A 
ATOM     23  N   LIG    1      -32.463  76.937  27.106  0.00  0.00    -0.218 NA
ATOM     24  C   LIG    1      -32.243  77.947  26.241  0.00  0.00    +0.223 A 
ATOM     25  N   LIG    1      -32.621  79.234  26.352  0.00  0.00    -0.243 NA
ATOM     26  C   LIG    1      -33.296  79.593  27.465  0.00  0.00    +0.124 A 
ATOM     27  C   LIG    1      -33.592  78.637  28.439  0.00  0.00    +0.048 A 
ATOM     28  C   LIG    1      -34.277  78.649  29.691  0.00  0.00    +0.051 A 
ATOM     29  C   LIG    1      -34.261  77.339  30.135  0.00  0.00    +0.100 A 
BRANCH  21  31
ATOM     30  C   LIG    1      -31.763  74.804  29.584  0.00  0.00    +0.034 C 
ATOM     31  C   LIG    1      -33.273  75.094  29.435  0.00  0.00    +0.039 C 
ATOM     32  C   LIG    1      -33.956  74.547  30.716  0.00  0.00    +0.034 C 
ATOM     33  C   LIG    1      -33.818  74.278  28.246  0.00  0.00    +0.034 C 
ENDBRANCH  21  31
ENDBRANCH  19  28
ENDBRANCH   1  19
TORSDOF 6
ENDMDL
MODEL 4
REMARK VINA RESULT:      -6.1     19.441     23.393
REMARK  Name = pdb/CHEMBL3671419.pdb
REMARK                            x       y       z     vdW  Elec       q    Type
REMARK                         _______ _______ _______ _____ _____    ______ ____
ROOT
ATOM      1  C   LIG    1      -21.132  86.840  14.133  0.00  0.00    +0.042 A 
ATOM      2  C   LIG    1      -21.649  87.904  13.372  0.00  0.00    +0.038 A 
ATOM      3  C   LIG    1      -20.792  88.676  12.575  0.00  0.00    +0.052 A 
ATOM      4  C   LIG    1      -19.461  88.275  12.505  0.00  0.00    +0.134 A 
ATOM      5  N   LIG    1      -18.925  87.288  13.263  0.00  0.00    -0.261 NA
ATOM      6  C   LIG    1      -19.764  86.635  14.098  0.00  0.00    +0.122 A 
ENDROOT
BRANCH   3   7
ATOM      7  N   LIG    1      -21.307  89.826  11.935  0.00  0.00    -0.284 N 
ATOM      8  H   LIG    1      -21.095  90.709  12.386  0.00  0.00    +0.155 HD
ATOM      9  C   LIG    1      -21.927  89.874  10.696  0.00  0.00    +0.222 C 
ATOM     10  O   LIG    1      -22.120  88.900   9.970  0.00  0.00    -0.275 OA
BRANCH   9  11
ATOM     11  C   LIG    1      -22.400  91.246  10.219  0.00  0.00    +0.131 C 
BRANCH  11  12
ATOM     12  C   LIG    1      -23.727  91.717  10.765  0.00  0.00    -0.039 A 
ATOM     13  C   LIG    1      -24.620  90.810  11.353  0.00  0.00    +0.005 A 
ATOM     14  C   LIG    1      -25.780  91.270  11.979  0.00  0.00    +0.020 A 
ATOM     15  C   LIG    1      -26.071  92.633  11.985  0.00  0.00    +0.041 A 
ATOM     16 CL   LIG    1      -27.502  93.199  12.753  0.00  0.00    -0.084 Cl
ATOM     17  C   LIG    1      -25.210  93.540  11.373  0.00  0.00    +0.020 A 
ATOM     18  C   LIG    1      -24.033  93.086  10.777  0.00  0.00    +0.005 A 
ENDBRANCH  11  12
ENDBRANCH   9  11
ENDBRANCH   3   7
BRANCH   1  19
ATOM     19  C   LIG    1      -22.011  86.031  15.009  0.00  0.00    +0.197 C 
ATOM     20  O   LIG    1      -22.416  86.560  16.057  0.00  0.00    -0.287 OA
BRANCH  19  28
ATOM     21  N   LIG    1      -22.757  82.426  14.732  0.00  0.00    -0.326 N 
ATOM     22  C   LIG    1      -23.046  82.834  13.442  0.00  0.00    +0.145 A 
ATOM     23  N   LIG    1      -23.453  82.047  12.427  0.00  0.00    -0.218 NA
ATOM     24  C   LIG    1      -23.665  82.746  11.294  0.00  0.00    +0.223 A 
ATOM     25  N   LIG    1      -23.517  84.069  11.093  0.00  0.00    -0.243 NA
ATOM     26  C   LIG    1      -23.094  84.815  12.136  0.00  0.00    +0.124 A 
ATOM     27  C   LIG    1      -22.843  84.211  13.369  0.00  0.00    +0.048 A 
ATOM     28  C   LIG    1      -22.414  84.670  14.651  0.00  0.00    +0.051 A 
ATOM     29  C   LIG    1      -22.417  83.552  15.466  0.00  0.00    +0.100 A 
BRANCH  21  31
ATOM     30  C   LIG    1      -22.382  80.975  16.747  0.00  0.00    +0.034 C 
ATOM     31  C   LIG    1      -22.812  81.040  15.264  0.00  0.00    +0.039 C 
ATOM     32  C   LIG    1      -24.252  80.465  15.197  0.00  0.00    +0.034 C 
ATOM     33  C   LIG    1      -21.907  80.097  14.446  0.00  0.00    +0.034 C 
ENDBRANCH  21  31
ENDBRANCH  19  28
ENDBRANCH   1  19
TORSDOF 6
ENDMDL
MODEL 5
REMARK VINA RESULT:      -6.0      2.807      5.623
REMARK  Name = pdb/CHEMBL3671419.pdb
REMARK                            x       y       z     vdW  Elec       q    Type
REMARK                         _______ _______ _______ _____ _____    ______ ____
ROOT
ATOM      1  C   LIG    1      -36.639  80.338  29.305  0.00  0.00    +0.042 A 
ATOM      2  C   LIG    1      -37.000  79.818  28.049  0.00  0.00    +0.038 A 
ATOM      3  C   LIG    1      -38.283  80.053  27.537  0.00  0.00    +0.052 A 
ATOM      4  C   LIG    1      -39.116  80.890  28.274  0.00  0.00    +0.134 A 
ATOM      5  N   LIG    1      -38.815  81.364  29.507  0.00  0.00    -0.261 NA
ATOM      6  C   LIG    1      -37.607  81.028  30.013  0.00  0.00    +0.122 A 
ENDROOT
BRANCH   3   7
ATOM      7  N   LIG    1      -38.671  79.401  26.344  0.00  0.00    -0.284 N 
ATOM      8  H   LIG    1      -38.360  79.839  25.485  0.00  0.00    +0.155 HD
ATOM      9  C   LIG    1      -39.289  78.164  26.242  0.00  0.00    +0.222 C 
ATOM     10  O   LIG    1      -39.593  77.451  27.197  0.00  0.00    -0.275 OA
BRANCH   9  11
ATOM     11  C   LIG    1      -39.609  77.672  24.832  0.00  0.00    +0.131 C 
BRANCH  11  12
ATOM     12  C   LIG    1      -39.448  76.189  24.594  0.00  0.00    -0.039 A 
ATOM     13  C   LIG    1      -38.263  75.533  24.958  0.00  0.00    +0.005 A 
ATOM     14  C   LIG    1      -38.172  74.143  24.864  0.00  0.00    +0.020 A 
ATOM     15  C   LIG    1      -39.249  73.409  24.369  0.00  0.00    +0.041 A 
ATOM     16 CL   LIG    1      -39.134  71.697  24.249  0.00  0.00    -0.084 Cl
ATOM     17  C   LIG    1      -40.417  74.054  23.970  0.00  0.00    +0.020 A 
ATOM     18  C   LIG    1      -40.523  75.439  24.096  0.00  0.00    +0.005 A 
ENDBRANCH  11  12
ENDBRANCH   9  11
ENDBRANCH   3   7
BRANCH   1  19
ATOM     19  C   LIG    1      -35.301  80.076  29.884  0.00  0.00    +0.197 C 
ATOM     20  O   LIG    1      -34.882  80.871  30.740  0.00  0.00    -0.287 OA
BRANCH  19  28
ATOM     21  N   LIG    1      -33.426  76.913  29.545  0.00  0.00    -0.326 N 
ATOM     22  C   LIG    1      -33.042  77.549  28.379  0.00  0.00    +0.145 A 
ATOM     23  N   LIG    1      -32.189  77.072  27.451  0.00  0.00    -0.218 NA
ATOM     24  C   LIG    1      -32.028  77.925  26.420  0.00  0.00    +0.223 A 
ATOM     25  N   LIG    1      -32.602  79.130  26.240  0.00  0.00    -0.243 NA
ATOM     26  C   LIG    1      -33.440  79.572  27.202  0.00  0.00    +0.124 A 
ATOM     27  C   LIG    1      -33.695  78.779  28.323  0.00  0.00    +0.048 A 
ATOM     28  C   LIG    1      -34.506  78.910  29.490  0.00  0.00    +0.051 A 
ATOM     29  C   LIG    1      -34.345  77.727  30.189  0.00  0.00    +0.100 A 
BRANCH  21  31
ATOM     30  C   LIG    1      -33.700  75.162  31.325  0.00  0.00    +0.034 C 
ATOM     31  C   LIG    1      -32.966  75.588  30.033  0.00  0.00    +0.039 C 
ATOM     32  C   LIG    1      -33.236  74.474  28.986  0.00  0.00    +0.034 C 
ATOM     33  C   LIG    1      -31.449  75.595  30.308  0.00  0.00    +0.034 C 
ENDBRANCH  21  31
ENDBRANCH  19  28
ENDBRANCH   1  19
TORSDOF 6
ENDMDL
MODEL 6
REMARK VINA RESULT:      -6.0      3.682      8.902
REMARK  Name = pdb/CHEMBL3671419.pdb
REMARK                            x       y       z     vdW  Elec       q    Type
REMARK                         _______ _______ _______ _____ _____    ______ ____
ROOT
ATOM      1  C   LIG    1      -39.336  72.991  24.358  0.00  0.00    +0.042 A 
ATOM      2  C   LIG    1      -38.211  73.584  24.961  0.00  0.00    +0.038 A 
ATOM      3  C   LIG    1      -38.140  74.978  25.090  0.00  0.00    +0.052 A 
ATOM      4  C   LIG    1      -39.255  75.709  24.693  0.00  0.00    +0.134 A 
ATOM      5  N   LIG    1      -40.329  75.172  24.064  0.00  0.00    -0.261 NA
ATOM      6  C   LIG    1      -40.314  73.835  23.864  0.00  0.00    +0.122 A 
ENDROOT
BRANCH   3   7
ATOM      7  N   LIG    1      -36.941  75.558  25.565  0.00  0.00    -0.284 N 
ATOM      8  H   LIG    1      -36.332  75.948  24.853  0.00  0.00    +0.155 HD
ATOM      9  C   LIG    1      -36.599  75.780  26.890  0.00  0.00    +0.222 C 
ATOM     10  O   LIG    1      -37.306  75.494  27.854  0.00  0.00    -0.275 OA
BRANCH   9  11
ATOM     11  C   LIG    1      -35.239  76.425  27.147  0.00  0.00    +0.131 C 
BRANCH  11  12
ATOM     12  C   LIG    1      -34.203  75.549  27.812  0.00  0.00    -0.039 A 
ATOM     13  C   LIG    1      -33.139  76.119  28.526  0.00  0.00    +0.005 A 
ATOM     14  C   LIG    1      -32.267  75.308  29.254  0.00  0.00    +0.020 A 
ATOM     15  C   LIG    1      -32.430  73.923  29.237  0.00  0.00    +0.041 A 
ATOM     16 CL   LIG    1      -31.352  72.924  30.130  0.00  0.00    -0.084 Cl
ATOM     17  C   LIG    1      -33.462  73.344  28.502  0.00  0.00    +0.020 A 
ATOM     18  C   LIG    1      -34.356  74.155  27.802  0.00  0.00    +0.005 A 
ENDBRANCH  11  12
ENDBRANCH   9  11
ENDBRANCH   3   7
BRANCH   1  19
ATOM     19  C   LIG    1      -39.420  71.523  24.179  0.00  0.00    +0.197 C 
ATOM     20  O   LIG    1      -40.492  71.060  23.757  0.00  0.00    -0.287 OA
BRANCH  19  28
ATOM     21  N   LIG    1      -36.485  69.695  25.471  0.00  0.00    -0.326 N 
ATOM     22  C   LIG    1      -36.562  69.161  24.198  0.00  0.00    +0.145 A 
ATOM     23  N   LIG    1      -35.728  68.250  23.660  0.00  0.00    -0.218 NA
ATOM     24  C   LIG    1      -36.076  67.920  22.401  0.00  0.00    +0.223 A 
ATOM     25  N   LIG    1      -37.111  68.384  21.675  0.00  0.00    -0.243 NA
ATOM     26  C   LIG    1      -37.913  69.306  22.251  0.00  0.00    +0.124 A 
ATOM     27  C   LIG    1      -37.661  69.731  23.557  0.00  0.00    +0.048 A 
ATOM     28  C   LIG    1      -38.282  70.645  24.460  0.00  0.00    +0.051 A 
ATOM     29  C   LIG    1      -37.556  70.560  25.634  0.00  0.00    +0.100 A 
BRANCH  21  31
ATOM     30  C   LIG    1      -35.623  70.290  27.754  0.00  0.00    +0.034 C 
ATOM     31  C   LIG    1      -35.459  69.397  26.504  0.00  0.00    +0.039 C 
ATOM     32  C   LIG    1      -35.562  67.928  26.995  0.00  0.00    +0.034 C 
ATOM     33  C   LIG    1      -34.036  69.589  25.943  0.00  0.00    +0.034 C 
ENDBRANCH  21  31
ENDBRANCH  19  28
ENDBRANCH   1  19
TORSDOF 6
ENDMDL
MODEL 7
REMARK VINA RESULT:      -5.9      6.390      9.662
REMARK  Name = pdb/CHEMBL3671419.pdb
REMARK                            x       y       z     vdW  Elec       q    Type
REMARK                         _______ _______ _______ _____ _____    ______ ____
ROOT
ATOM      1  C   LIG    1      -39.582  70.507  23.316  0.00  0.00    +0.042 A 
ATOM      2  C   LIG    1      -38.257  70.040  23.260  0.00  0.00    +0.038 A 
ATOM      3  C   LIG    1      -37.864  69.170  22.233  0.00  0.00    +0.052 A 
ATOM      4  C   LIG    1      -38.805  68.887  21.248  0.00  0.00    +0.134 A 
ATOM      5  N   LIG    1      -40.101  69.281  21.302  0.00  0.00    -0.261 NA
ATOM      6  C   LIG    1      -40.467  70.032  22.364  0.00  0.00    +0.122 A 
ENDROOT
BRANCH   3   7
ATOM      7  N   LIG    1      -36.571  68.601  22.279  0.00  0.00    -0.284 N 
ATOM      8  H   LIG    1      -35.838  69.143  21.835  0.00  0.00    +0.155 HD
ATOM      9  C   LIG    1      -36.189  67.474  22.992  0.00  0.00    +0.222 C 
ATOM     10  O   LIG    1      -36.941  66.801  23.695  0.00  0.00    -0.275 OA
BRANCH   9  11
ATOM     11  C   LIG    1      -34.725  67.056  22.879  0.00  0.00    +0.131 C 
BRANCH  11  12
ATOM     12  C   LIG    1      -34.375  66.171  21.706  0.00  0.00    -0.039 A 
ATOM     13  C   LIG    1      -33.435  66.589  20.753  0.00  0.00    +0.005 A 
ATOM     14  C   LIG    1      -33.012  65.713  19.752  0.00  0.00    +0.020 A 
ATOM     15  C   LIG    1      -33.558  64.432  19.675  0.00  0.00    +0.041 A 
ATOM     16 CL   LIG    1      -33.041  63.355  18.437  0.00  0.00    -0.084 Cl
ATOM     17  C   LIG    1      -34.519  64.019  20.594  0.00  0.00    +0.020 A 
ATOM     18  C   LIG    1      -34.917  64.881  21.617  0.00  0.00    +0.005 A 
ENDBRANCH  11  12
ENDBRANCH   9  11
ENDBRANCH   3   7
BRANCH   1  19
ATOM     19  C   LIG    1      -40.031  71.399  24.409  0.00  0.00    +0.197 C 
ATOM     20  O   LIG    1      -40.329  70.871  25.493  0.00  0.00    -0.287 OA
BRANCH  19  28
ATOM     21  N   LIG    1      -39.644  75.071  24.406  0.00  0.00    -0.326 N 
ATOM     22  C   LIG    1      -40.870  74.956  23.777  0.00  0.00    +0.145 A 
ATOM     23  N   LIG    1      -41.647  75.969  23.346  0.00  0.00    -0.218 NA
ATOM     24  C   LIG    1      -42.779  75.530  22.761  0.00  0.00    +0.223 A 
ATOM     25  N   LIG    1      -43.182  74.259  22.578  0.00  0.00    -0.243 NA
ATOM     26  C   LIG    1      -42.378  73.277  23.039  0.00  0.00    +0.124 A 
ATOM     27  C   LIG    1      -41.171  73.599  23.663  0.00  0.00    +0.048 A 
ATOM     28  C   LIG    1      -40.100  72.852  24.240  0.00  0.00    +0.051 A 
ATOM     29  C   LIG    1      -39.168  73.791  24.643  0.00  0.00    +0.100 A 
BRANCH  21  31
ATOM     30  C   LIG    1      -39.465  76.938  26.076  0.00  0.00    +0.034 C 
ATOM     31  C   LIG    1      -38.936  76.328  24.759  0.00  0.00    +0.039 C 
ATOM     32  C   LIG    1      -37.417  76.082  24.967  0.00  0.00    +0.034 C 
ATOM     33  C   LIG    1      -39.077  77.376  23.638  0.00  0.00    +0.034 C 
ENDBRANCH  21  31
ENDBRANCH  19  28
ENDBRANCH   1  19
TORSDOF 6
ENDMDL
MODEL 8
REMARK VINA RESULT:      -5.9      2.726      5.413
REMARK  Name = pdb/CHEMBL3671419.pdb
REMARK                            x       y       z     vdW  Elec       q    Type
REMARK                         _______ _______ _______ _____ _____    ______ ____
ROOT
ATOM      1  C   LIG    1      -35.131  77.178  27.446  0.00  0.00    +0.042 A 
ATOM      2  C   LIG    1      -36.200  76.635  26.711  0.00  0.00    +0.038 A 
ATOM      3  C   LIG    1      -37.490  77.164  26.857  0.00  0.00    +0.052 A 
ATOM      4  C   LIG    1      -37.626  78.288  27.667  0.00  0.00    +0.134 A 
ATOM      5  N   LIG    1      -36.627  78.801  28.425  0.00  0.00    -0.261 NA
ATOM      6  C   LIG    1      -35.421  78.197  28.336  0.00  0.00    +0.122 A 
ENDROOT
BRANCH   3   7
ATOM      7  N   LIG    1      -38.571  76.511  26.221  0.00  0.00    -0.284 N 
ATOM      8  H   LIG    1      -39.269  76.116  26.841  0.00  0.00    +0.155 HD
ATOM      9  C   LIG    1      -38.843  76.496  24.861  0.00  0.00    +0.222 C 
ATOM     10  O   LIG    1      -38.164  77.059  24.004  0.00  0.00    -0.275 OA
BRANCH   9  11
ATOM     11  C   LIG    1      -40.078  75.715  24.418  0.00  0.00    +0.131 C 
BRANCH  11  12
ATOM     12  C   LIG    1      -39.886  74.232  24.208  0.00  0.00    -0.039 A 
ATOM     13  C   LIG    1      -38.732  73.588  24.678  0.00  0.00    +0.005 A 
ATOM     14  C   LIG    1      -38.623  72.198  24.606  0.00  0.00    +0.020 A 
ATOM     15  C   LIG    1      -39.649  71.452  24.028  0.00  0.00    +0.041 A 
ATOM     16 CL   LIG    1      -39.512  69.739  23.935  0.00  0.00    -0.084 Cl
ATOM     17  C   LIG    1      -40.784  72.083  23.526  0.00  0.00    +0.020 A 
ATOM     18  C   LIG    1      -40.910  73.469  23.628  0.00  0.00    +0.005 A 
ENDBRANCH  11  12
ENDBRANCH   9  11
ENDBRANCH   3   7
BRANCH   1  19
ATOM     19  C   LIG    1      -33.766  76.615  27.336  0.00  0.00    +0.197 C 
ATOM     20  O   LIG    1      -32.966  77.198  26.586  0.00  0.00    -0.287 OA
BRANCH  19  28
ATOM     21  N   LIG    1      -33.299  73.338  28.971  0.00  0.00    -0.326 N 
ATOM     22  C   LIG    1      -32.353  74.084  29.648  0.00  0.00    +0.145 A 
ATOM     23  N   LIG    1      -31.549  73.649  30.639  0.00  0.00    -0.218 NA
ATOM     24  C   LIG    1      -30.724  74.615  31.088  0.00  0.00    +0.223 A 
ATOM     25  N   LIG    1      -30.631  75.890  30.668  0.00  0.00    -0.243 NA
ATOM     26  C   LIG    1      -31.465  76.286  29.683  0.00  0.00    +0.124 A 
ATOM     27  C   LIG    1      -32.368  75.377  29.127  0.00  0.00    +0.048 A 
ATOM     28  C   LIG    1      -33.355  75.434  28.098  0.00  0.00    +0.051 A 
ATOM     29  C   LIG    1      -33.870  74.153  28.006  0.00  0.00    +0.100 A 
BRANCH  21  31
ATOM     30  C   LIG    1      -34.490  71.727  30.485  0.00  0.00    +0.034 C 
ATOM     31  C   LIG    1      -33.648  71.913  29.204  0.00  0.00    +0.039 C 
ATOM     32  C   LIG    1      -34.492  71.339  28.034  0.00  0.00    +0.034 C 
ATOM     33  C   LIG    1      -32.379  71.044  29.317  0.00  0.00    +0.034 C 
ENDBRANCH  21  31
ENDBRANCH  19  28
ENDBRANCH   1  19
TORSDOF 6
ENDMDL
MODEL 9
REMARK VINA RESULT:      -5.9      3.658      9.204
REMARK  Name = pdb/CHEMBL3671419.pdb
REMARK                            x       y       z     vdW  Elec       q    Type
REMARK                         _______ _______ _______ _____ _____    ______ ____
ROOT
ATOM      1  C   LIG    1      -39.259  74.274  25.029  0.00  0.00    +0.042 A 
ATOM      2  C   LIG    1      -38.035  74.715  25.563  0.00  0.00    +0.038 A 
ATOM      3  C   LIG    1      -37.619  76.039  25.358  0.00  0.00    +0.052 A 
ATOM      4  C   LIG    1      -38.507  76.888  24.706  0.00  0.00    +0.134 A 
ATOM      5  N   LIG    1      -39.668  76.480  24.138  0.00  0.00    -0.261 NA
ATOM      6  C   LIG    1      -39.984  75.172  24.266  0.00  0.00    +0.122 A 
ENDROOT
BRANCH   3   7
ATOM      7  N   LIG    1      -36.323  76.419  25.778  0.00  0.00    -0.284 N 
ATOM      8  H   LIG    1      -35.666  76.623  25.034  0.00  0.00    +0.155 HD
ATOM      9  C   LIG    1      -35.921  76.684  27.078  0.00  0.00    +0.222 C 
ATOM     10  O   LIG    1      -36.651  76.620  28.066  0.00  0.00    -0.275 OA
BRANCH   9  11
ATOM     11  C   LIG    1      -34.459  77.078  27.275  0.00  0.00    +0.131 C 
BRANCH  11  12
ATOM     12  C   LIG    1      -33.584  76.061  27.970  0.00  0.00    -0.039 A 
ATOM     13  C   LIG    1      -32.472  76.470  28.720  0.00  0.00    +0.005 A 
ATOM     14  C   LIG    1      -31.751  75.542  29.473  0.00  0.00    +0.020 A 
ATOM     15  C   LIG    1      -32.115  74.196  29.447  0.00  0.00    +0.041 A 
ATOM     16 CL   LIG    1      -31.224  73.052  30.372  0.00  0.00    -0.084 Cl
ATOM     17  C   LIG    1      -33.197  73.773  28.679  0.00  0.00    +0.020 A 
ATOM     18  C   LIG    1      -33.939  74.705  27.953  0.00  0.00    +0.005 A 
ENDBRANCH  11  12
ENDBRANCH   9  11
ENDBRANCH   3   7
BRANCH   1  19
ATOM     19  C   LIG    1      -39.705  72.872  25.201  0.00  0.00    +0.197 C 
ATOM     20  O   LIG    1      -40.722  72.676  25.885  0.00  0.00    -0.287 OA
BRANCH  19  28
ATOM     21  N   LIG    1      -38.521  69.968  23.253  0.00  0.00    -0.326 N 
ATOM     22  C   LIG    1      -37.491  70.082  24.168  0.00  0.00    +0.145 A 
ATOM     23  N   LIG    1      -36.410  69.284  24.259  0.00  0.00    -0.218 NA
ATOM     24  C   LIG    1      -35.578  69.663  25.250  0.00  0.00    +0.223 A 
ATOM     25  N   LIG    1      -35.716  70.697  26.102  0.00  0.00    -0.243 NA
ATOM     26  C   LIG    1      -36.823  71.461  25.981  0.00  0.00    +0.124 A 
ATOM     27  C   LIG    1      -37.763  71.176  24.989  0.00  0.00    +0.048 A 
ATOM     28  C   LIG    1      -38.998  71.755  24.571  0.00  0.00    +0.051 A 
ATOM     29  C   LIG    1      -39.406  71.011  23.478  0.00  0.00    +0.100 A 
BRANCH  21  31
ATOM     30  C   LIG    1      -37.493  68.967  21.192  0.00  0.00    +0.034 C 
ATOM     31  C   LIG    1      -38.667  68.934  22.196  0.00  0.00    +0.039 C 
ATOM     32  C   LIG    1      -38.689  67.506  22.802  0.00  0.00    +0.034 C 
ATOM     33  C   LIG    1      -39.985  69.119  21.418  0.00  0.00    +0.034 C 
ENDBRANCH  21  31
ENDBRANCH  19  28
ENDBRANCH   1  19
TORSDOF 6
ENDMDL
