MODEL 1
REMARK VINA RESULT:      -7.1      0.000      0.000
REMARK  Name = pdb/CHEMBL3952347.pdb
REMARK                            x       y       z     vdW  Elec       q    Type
REMARK                         _______ _______ _______ _____ _____    ______ ____
ROOT
ATOM      1  C   LIG    1      -36.527  66.975  20.236  0.00  0.00    +0.323 A 
ATOM      2  N   LIG    1      -36.658  66.614  21.527  0.00  0.00    -0.201 NA
ATOM      3  C   LIG    1      -37.365  67.445  22.317  0.00  0.00    +0.145 A 
ATOM      4  C   LIG    1      -37.862  68.669  21.918  0.00  0.00    +0.105 A 
ATOM      5  C   LIG    1      -37.692  68.919  20.568  0.00  0.00    +0.145 A 
ATOM      6  N   LIG    1      -37.027  68.104  19.707  0.00  0.00    -0.201 NA
ENDROOT
BRANCH   4   7
ATOM      7  N   LIG    1      -38.577  69.543  22.758  0.00  0.00    -0.196 NA
ATOM      8  C   LIG    1      -38.042  70.334  23.613  0.00  0.00    +0.285 C 
BRANCH   8   9
ATOM      9  N   LIG    1      -38.671  71.117  24.547  0.00  0.00    -0.267 N 
ATOM     10  H   LIG    1      -38.799  70.701  25.467  0.00  0.00    +0.157 HD
BRANCH   9  11
ATOM     11  C   LIG    1      -39.156  72.434  24.422  0.00  0.00    +0.061 A 
ATOM     12  C   LIG    1      -40.447  72.739  23.915  0.00  0.00    +0.087 A 
ATOM     13  C   LIG    1      -40.878  74.084  23.864  0.00  0.00    +0.030 A 
ATOM     14  C   LIG    1      -40.052  75.129  24.265  0.00  0.00    +0.014 A 
ATOM     15  C   LIG    1      -38.776  74.856  24.750  0.00  0.00    +0.057 A 
ATOM     16  C   LIG    1      -38.364  73.518  24.852  0.00  0.00    +0.037 A 
BRANCH  12  17
ATOM     17  N   LIG    1      -41.356  71.737  23.445  0.00  0.00    -0.237 N 
ATOM     18  N   LIG    1      -41.699  70.649  24.193  0.00  0.00    -0.173 NA
ATOM     19  C   LIG    1      -42.626  70.020  23.458  0.00  0.00    +0.154 A 
ATOM     20  C   LIG    1      -42.825  70.624  22.212  0.00  0.00    +0.079 A 
ATOM     21 CL   LIG    1      -43.862  70.126  20.974  0.00  0.00    -0.080 Cl
ATOM     22  C   LIG    1      -41.986  71.703  22.214  0.00  0.00    +0.134 A 
ENDBRANCH  12  17
BRANCH  15  23
ATOM     23  C   LIG    1      -37.855  75.979  25.149  0.00  0.00    +0.417 C 
ATOM     24  F   LIG    1      -37.126  76.450  24.101  0.00  0.00    -0.166 F 
ATOM     25  F   LIG    1      -36.949  75.592  26.091  0.00  0.00    -0.166 F 
ATOM     26  F   LIG    1      -38.499  77.055  25.677  0.00  0.00    -0.166 F 
ENDBRANCH  15  23
ENDBRANCH   9  11
ENDBRANCH   8   9
BRANCH   8  27
ATOM     27  O   LIG    1      -36.708  70.539  23.695  0.00  0.00    -0.481 OA
ATOM     28  H   LIG    1      -36.473  71.449  23.459  0.00  0.00    +0.295 HD
ENDBRANCH   8  27
ENDBRANCH   4   7
BRANCH   1  29
ATOM     29  O   LIG    1      -35.778  66.167  19.380  0.00  0.00    -0.424 OA
BRANCH  29  33
ATOM     30  C   LIG    1      -31.844  67.416  18.426  0.00  0.00    -0.014 A 
ATOM     31  C   LIG    1      -32.129  66.739  19.627  0.00  0.00    +0.012 A 
ATOM     32  C   LIG    1      -33.415  66.291  19.938  0.00  0.00    +0.047 A 
ATOM     33  C   LIG    1      -34.488  66.567  19.096  0.00  0.00    +0.132 A 
ATOM     34  C   LIG    1      -34.240  67.214  17.886  0.00  0.00    +0.047 A 
ATOM     35  C   LIG    1      -32.933  67.626  17.558  0.00  0.00    +0.012 A 
BRANCH  30  37
ATOM     36  C   LIG    1      -29.583  67.139  17.220  0.00  0.00    +0.124 A 
ATOM     37  C   LIG    1      -30.447  67.825  18.094  0.00  0.00    +0.022 A 
ATOM     38  C   LIG    1      -29.898  68.979  18.694  0.00  0.00    +0.025 A 
ATOM     39  C   LIG    1      -28.590  69.403  18.427  0.00  0.00    +0.074 A 
ATOM     40  C   LIG    1      -27.842  68.632  17.565  0.00  0.00    +0.125 A 
ATOM     41  N   LIG    1      -28.311  67.518  16.966  0.00  0.00    -0.240 NA
BRANCH  39  42
ATOM     42  C   LIG    1      -28.026  70.638  19.055  0.00  0.00    +0.419 C 
ATOM     43  F   LIG    1      -28.577  71.777  18.551  0.00  0.00    -0.166 F 
ATOM     44  F   LIG    1      -26.684  70.753  18.855  0.00  0.00    -0.166 F 
ATOM     45  F   LIG    1      -28.209  70.699  20.402  0.00  0.00    -0.166 F 
ENDBRANCH  39  42
BRANCH  36  46
ATOM     46  N   LIG    1      -29.950  65.994  16.513  0.00  0.00    -0.343 N 
ATOM     47  H   LIG    1      -30.064  65.207  17.144  0.00  0.00    +0.144 HD
ATOM     48  H   LIG    1      -30.823  66.223  16.044  0.00  0.00    +0.144 HD
ENDBRANCH  36  46
ENDBRANCH  30  37
ENDBRANCH  29  33
ENDBRANCH   1  29
TORSDOF 11
ENDMDL
MODEL 2
REMARK VINA RESULT:      -7.0     18.251     21.572
REMARK  Name = pdb/CHEMBL3952347.pdb
REMARK                            x       y       z     vdW  Elec       q    Type
REMARK                         _______ _______ _______ _____ _____    ______ ____
ROOT
ATOM      1  C   LIG    1      -33.080  93.547  24.034  0.00  0.00    +0.323 A 
ATOM      2  N   LIG    1      -32.023  92.732  24.215  0.00  0.00    -0.201 NA
ATOM      3  C   LIG    1      -32.032  91.971  25.326  0.00  0.00    +0.145 A 
ATOM      4  C   LIG    1      -32.985  92.050  26.320  0.00  0.00    +0.105 A 
ATOM      5  C   LIG    1      -34.033  92.898  26.012  0.00  0.00    +0.145 A 
ATOM      6  N   LIG    1      -34.109  93.662  24.890  0.00  0.00    -0.201 NA
ENDROOT
BRANCH   4   7
ATOM      7  N   LIG    1      -32.972  91.269  27.491  0.00  0.00    -0.196 NA
ATOM      8  C   LIG    1      -33.772  90.295  27.728  0.00  0.00    +0.285 C 
BRANCH   8   9
ATOM      9  N   LIG    1      -33.904  89.575  28.887  0.00  0.00    -0.267 N 
ATOM     10  H   LIG    1      -34.654  89.864  29.511  0.00  0.00    +0.157 HD
BRANCH   9  11
ATOM     11  C   LIG    1      -33.154  88.470  29.338  0.00  0.00    +0.061 A 
ATOM     12  C   LIG    1      -33.499  87.126  29.037  0.00  0.00    +0.087 A 
ATOM     13  C   LIG    1      -32.669  86.074  29.488  0.00  0.00    +0.030 A 
ATOM     14  C   LIG    1      -31.536  86.319  30.258  0.00  0.00    +0.014 A 
ATOM     15  C   LIG    1      -31.188  87.628  30.580  0.00  0.00    +0.057 A 
ATOM     16  C   LIG    1      -31.979  88.678  30.088  0.00  0.00    +0.037 A 
BRANCH  12  17
ATOM     17  N   LIG    1      -34.663  86.770  28.283  0.00  0.00    -0.237 N 
ATOM     18  N   LIG    1      -35.861  87.404  28.440  0.00  0.00    -0.173 NA
ATOM     19  C   LIG    1      -36.649  86.858  27.504  0.00  0.00    +0.154 A 
ATOM     20  C   LIG    1      -36.020  85.822  26.807  0.00  0.00    +0.079 A 
ATOM     21 CL   LIG    1      -36.671  84.849  25.589  0.00  0.00    -0.080 Cl
ATOM     22  C   LIG    1      -34.761  85.765  27.337  0.00  0.00    +0.134 A 
ENDBRANCH  12  17
BRANCH  15  23
ATOM     23  C   LIG    1      -29.988  87.908  31.447  0.00  0.00    +0.417 C 
ATOM     24  F   LIG    1      -30.017  89.157  31.985  0.00  0.00    -0.166 F 
ATOM     25  F   LIG    1      -28.819  87.827  30.750  0.00  0.00    -0.166 F 
ATOM     26  F   LIG    1      -29.855  87.048  32.492  0.00  0.00    -0.166 F 
ENDBRANCH  15  23
ENDBRANCH   9  11
ENDBRANCH   8   9
BRANCH   8  27
ATOM     27  O   LIG    1      -34.623  89.798  26.802  0.00  0.00    -0.481 OA
ATOM     28  H   LIG    1      -34.179  89.655  25.953  0.00  0.00    +0.295 HD
ENDBRANCH   8  27
ENDBRANCH   4   7
BRANCH   1  29
ATOM     29  O   LIG    1      -33.108  94.381  22.915  0.00  0.00    -0.424 OA
BRANCH  29  33
ATOM     30  C   LIG    1      -33.373  92.505  19.126  0.00  0.00    -0.014 A 
ATOM     31  C   LIG    1      -32.146  92.981  19.625  0.00  0.00    +0.012 A 
ATOM     32  C   LIG    1      -32.038  93.570  20.888  0.00  0.00    +0.047 A 
ATOM     33  C   LIG    1      -33.167  93.777  21.675  0.00  0.00    +0.132 A 
ATOM     34  C   LIG    1      -34.395  93.297  21.223  0.00  0.00    +0.047 A 
ATOM     35  C   LIG    1      -34.490  92.666  19.968  0.00  0.00    +0.012 A 
BRANCH  30  37
ATOM     36  C   LIG    1      -33.614  92.466  16.559  0.00  0.00    +0.124 A 
ATOM     37  C   LIG    1      -33.443  91.822  17.799  0.00  0.00    +0.022 A 
ATOM     38  C   LIG    1      -33.350  90.415  17.735  0.00  0.00    +0.025 A 
ATOM     39  C   LIG    1      -33.419  89.721  16.520  0.00  0.00    +0.074 A 
ATOM     40  C   LIG    1      -33.606  90.470  15.379  0.00  0.00    +0.125 A 
ATOM     41  N   LIG    1      -33.706  91.814  15.378  0.00  0.00    -0.240 NA
BRANCH  39  42
ATOM     42  C   LIG    1      -33.300  88.232  16.464  0.00  0.00    +0.419 C 
ATOM     43  F   LIG    1      -33.784  87.714  15.301  0.00  0.00    -0.166 F 
ATOM     44  F   LIG    1      -33.995  87.619  17.461  0.00  0.00    -0.166 F 
ATOM     45  F   LIG    1      -32.020  87.781  16.570  0.00  0.00    -0.166 F 
ENDBRANCH  39  42
BRANCH  36  46
ATOM     46  N   LIG    1      -33.700  93.850  16.414  0.00  0.00    -0.343 N 
ATOM     47  H   LIG    1      -32.861  94.216  15.977  0.00  0.00    +0.144 HD
ATOM     48  H   LIG    1      -34.522  94.020  15.839  0.00  0.00    +0.144 HD
ENDBRANCH  36  46
ENDBRANCH  30  37
ENDBRANCH  29  33
ENDBRANCH   1  29
TORSDOF 11
ENDMDL
MODEL 3
REMARK VINA RESULT:      -6.9     17.417     20.527
REMARK  Name = pdb/CHEMBL3952347.pdb
REMARK                            x       y       z     vdW  Elec       q    Type
REMARK                         _______ _______ _______ _____ _____    ______ ____
ROOT
ATOM      1  C   LIG    1      -25.990  81.492  37.045  0.00  0.00    +0.323 A 
ATOM      2  N   LIG    1      -25.494  82.708  36.743  0.00  0.00    -0.201 NA
ATOM      3  C   LIG    1      -26.378  83.723  36.685  0.00  0.00    +0.145 A 
ATOM      4  C   LIG    1      -27.744  83.577  36.809  0.00  0.00    +0.105 A 
ATOM      5  C   LIG    1      -28.133  82.293  37.145  0.00  0.00    +0.145 A 
ATOM      6  N   LIG    1      -27.290  81.233  37.262  0.00  0.00    -0.201 NA
ENDROOT
BRANCH   4   7
ATOM      7  N   LIG    1      -28.664  84.639  36.721  0.00  0.00    -0.196 NA
ATOM      8  C   LIG    1      -29.052  85.179  35.625  0.00  0.00    +0.285 C 
BRANCH   8   9
ATOM      9  N   LIG    1      -29.840  86.289  35.464  0.00  0.00    -0.267 N 
ATOM     10  H   LIG    1      -30.760  86.253  35.899  0.00  0.00    +0.157 HD
BRANCH   9  11
ATOM     11  C   LIG    1      -29.553  87.494  34.792  0.00  0.00    +0.061 A 
ATOM     12  C   LIG    1      -30.080  87.811  33.512  0.00  0.00    +0.087 A 
ATOM     13  C   LIG    1      -29.782  89.061  32.924  0.00  0.00    +0.030 A 
ATOM     14  C   LIG    1      -28.949  89.982  33.552  0.00  0.00    +0.014 A 
ATOM     15  C   LIG    1      -28.408  89.687  34.800  0.00  0.00    +0.057 A 
ATOM     16  C   LIG    1      -28.744  88.469  35.411  0.00  0.00    +0.037 A 
BRANCH  12  17
ATOM     17  N   LIG    1      -30.916  86.916  32.770  0.00  0.00    -0.237 N 
ATOM     18  N   LIG    1      -31.840  86.110  33.368  0.00  0.00    -0.173 NA
ATOM     19  C   LIG    1      -32.471  85.515  32.347  0.00  0.00    +0.154 A 
ATOM     20  C   LIG    1      -31.917  85.845  31.106  0.00  0.00    +0.079 A 
ATOM     21 CL   LIG    1      -32.381  85.281  29.583  0.00  0.00    -0.080 Cl
ATOM     22  C   LIG    1      -30.909  86.721  31.401  0.00  0.00    +0.134 A 
ENDBRANCH  12  17
BRANCH  15  23
ATOM     23  C   LIG    1      -27.472  90.655  35.475  0.00  0.00    +0.417 C 
ATOM     24  F   LIG    1      -27.661  90.706  36.821  0.00  0.00    -0.166 F 
ATOM     25  F   LIG    1      -27.638  91.930  35.025  0.00  0.00    -0.166 F 
ATOM     26  F   LIG    1      -26.156  90.366  35.288  0.00  0.00    -0.166 F 
ENDBRANCH  15  23
ENDBRANCH   9  11
ENDBRANCH   8   9
BRANCH   8  27
ATOM     27  O   LIG    1      -28.743  84.679  34.407  0.00  0.00    -0.481 OA
ATOM     28  H   LIG    1      -29.371  84.979  33.731  0.00  0.00    +0.295 HD
ENDBRANCH   8  27
ENDBRANCH   4   7
BRANCH   1  29
ATOM     29  O   LIG    1      -25.123  80.399  37.088  0.00  0.00    -0.424 OA
BRANCH  29  33
ATOM     30  C   LIG    1      -24.188  78.523  33.407  0.00  0.00    -0.014 A 
ATOM     31  C   LIG    1      -25.285  78.108  34.185  0.00  0.00    +0.012 A 
ATOM     32  C   LIG    1      -25.625  78.740  35.383  0.00  0.00    +0.047 A 
ATOM     33  C   LIG    1      -24.838  79.768  35.895  0.00  0.00    +0.132 A 
ATOM     34  C   LIG    1      -23.758  80.222  35.139  0.00  0.00    +0.047 A 
ATOM     35  C   LIG    1      -23.445  79.609  33.910  0.00  0.00    +0.012 A 
BRANCH  30  37
ATOM     36  C   LIG    1      -24.851  77.404  31.182  0.00  0.00    +0.124 A 
ATOM     37  C   LIG    1      -23.889  77.868  32.098  0.00  0.00    +0.022 A 
ATOM     38  C   LIG    1      -22.547  77.662  31.713  0.00  0.00    +0.025 A 
ATOM     39  C   LIG    1      -22.209  77.044  30.503  0.00  0.00    +0.074 A 
ATOM     40  C   LIG    1      -23.246  76.620  29.702  0.00  0.00    +0.125 A 
ATOM     41  N   LIG    1      -24.547  76.784  30.019  0.00  0.00    -0.240 NA
BRANCH  39  42
ATOM     42  C   LIG    1      -20.783  76.848  30.097  0.00  0.00    +0.419 C 
ATOM     43  F   LIG    1      -19.979  77.867  30.510  0.00  0.00    -0.166 F 
ATOM     44  F   LIG    1      -20.633  76.780  28.746  0.00  0.00    -0.166 F 
ATOM     45  F   LIG    1      -20.225  75.709  30.592  0.00  0.00    -0.166 F 
ENDBRANCH  39  42
BRANCH  36  46
ATOM     46  N   LIG    1      -26.226  77.539  31.371  0.00  0.00    -0.343 N 
ATOM     47  H   LIG    1      -26.601  78.257  30.760  0.00  0.00    +0.144 HD
ATOM     48  H   LIG    1      -26.628  76.628  31.163  0.00  0.00    +0.144 HD
ENDBRANCH  36  46
ENDBRANCH  30  37
ENDBRANCH  29  33
ENDBRANCH   1  29
TORSDOF 11
ENDMDL
MODEL 4
REMARK VINA RESULT:      -6.8      1.634      2.095
REMARK  Name = pdb/CHEMBL3952347.pdb
REMARK                            x       y       z     vdW  Elec       q    Type
REMARK                         _______ _______ _______ _____ _____    ______ ____
ROOT
ATOM      1  C   LIG    1      -36.786  66.986  19.732  0.00  0.00    +0.323 A 
ATOM      2  N   LIG    1      -36.852  68.331  19.668  0.00  0.00    -0.201 NA
ATOM      3  C   LIG    1      -37.644  68.939  20.574  0.00  0.00    +0.145 A 
ATOM      4  C   LIG    1      -38.454  68.277  21.473  0.00  0.00    +0.105 A 
ATOM      5  C   LIG    1      -38.280  66.905  21.465  0.00  0.00    +0.145 A 
ATOM      6  N   LIG    1      -37.467  66.231  20.610  0.00  0.00    -0.201 NA
ENDROOT
BRANCH   4   7
ATOM      7  N   LIG    1      -39.298  68.920  22.398  0.00  0.00    -0.196 NA
ATOM      8  C   LIG    1      -40.338  69.602  22.085  0.00  0.00    +0.285 C 
BRANCH   8   9
ATOM      9  N   LIG    1      -41.131  70.356  22.911  0.00  0.00    -0.267 N 
ATOM     10  H   LIG    1      -41.835  69.848  23.443  0.00  0.00    +0.157 HD
BRANCH   9  11
ATOM     11  C   LIG    1      -41.103  71.745  23.147  0.00  0.00    +0.061 A 
ATOM     12  C   LIG    1      -42.127  72.626  22.710  0.00  0.00    +0.087 A 
ATOM     13  C   LIG    1      -42.048  74.001  23.026  0.00  0.00    +0.030 A 
ATOM     14  C   LIG    1      -40.967  74.527  23.727  0.00  0.00    +0.014 A 
ATOM     15  C   LIG    1      -39.943  73.685  24.152  0.00  0.00    +0.057 A 
ATOM     16  C   LIG    1      -40.044  72.311  23.886  0.00  0.00    +0.037 A 
BRANCH  12  17
ATOM     17  N   LIG    1      -43.260  72.188  21.952  0.00  0.00    -0.237 N 
ATOM     18  N   LIG    1      -43.151  71.708  20.680  0.00  0.00    -0.173 NA
ATOM     19  C   LIG    1      -44.394  71.320  20.364  0.00  0.00    +0.154 A 
ATOM     20  C   LIG    1      -45.323  71.622  21.365  0.00  0.00    +0.079 A 
ATOM     21 CL   LIG    1      -46.989  71.346  21.348  0.00  0.00    -0.080 Cl
ATOM     22  C   LIG    1      -44.583  72.199  22.359  0.00  0.00    +0.134 A 
ENDBRANCH  12  17
BRANCH  15  23
ATOM     23  C   LIG    1      -38.746  74.244  24.876  0.00  0.00    +0.417 C 
ATOM     24  F   LIG    1      -38.922  74.272  26.225  0.00  0.00    -0.166 F 
ATOM     25  F   LIG    1      -38.473  75.527  24.507  0.00  0.00    -0.166 F 
ATOM     26  F   LIG    1      -37.599  73.546  24.658  0.00  0.00    -0.166 F 
ENDBRANCH  15  23
ENDBRANCH   9  11
ENDBRANCH   8   9
BRANCH   8  27
ATOM     27  O   LIG    1      -40.840  69.649  20.831  0.00  0.00    -0.481 OA
ATOM     28  H   LIG    1      -41.666  69.147  20.761  0.00  0.00    +0.295 HD
ENDBRANCH   8  27
ENDBRANCH   4   7
BRANCH   1  29
ATOM     29  O   LIG    1      -36.005  66.303  18.799  0.00  0.00    -0.424 OA
BRANCH  29  33
ATOM     30  C   LIG    1      -31.897  67.300  18.528  0.00  0.00    -0.014 A 
ATOM     31  C   LIG    1      -32.434  66.708  19.686  0.00  0.00    +0.012 A 
ATOM     32  C   LIG    1      -33.779  66.342  19.776  0.00  0.00    +0.047 A 
ATOM     33  C   LIG    1      -34.664  66.622  18.738  0.00  0.00    +0.132 A 
ATOM     34  C   LIG    1      -34.163  67.185  17.566  0.00  0.00    +0.047 A 
ATOM     35  C   LIG    1      -32.796  67.513  17.465  0.00  0.00    +0.012 A 
BRANCH  30  37
ATOM     36  C   LIG    1      -29.432  66.720  18.046  0.00  0.00    +0.124 A 
ATOM     37  C   LIG    1      -30.441  67.619  18.439  0.00  0.00    +0.022 A 
ATOM     38  C   LIG    1      -29.989  68.912  18.784  0.00  0.00    +0.025 A 
ATOM     39  C   LIG    1      -28.635  69.264  18.730  0.00  0.00    +0.074 A 
ATOM     40  C   LIG    1      -27.746  68.285  18.344  0.00  0.00    +0.125 A 
ATOM     41  N   LIG    1      -28.117  67.032  18.009  0.00  0.00    -0.240 NA
BRANCH  39  42
ATOM     42  C   LIG    1      -28.172  70.642  19.079  0.00  0.00    +0.419 C 
ATOM     43  F   LIG    1      -28.951  71.611  18.524  0.00  0.00    -0.166 F 
ATOM     44  F   LIG    1      -26.906  70.888  18.644  0.00  0.00    -0.166 F 
ATOM     45  F   LIG    1      -28.161  70.893  20.417  0.00  0.00    -0.166 F 
ENDBRANCH  39  42
BRANCH  36  46
ATOM     46  N   LIG    1      -29.681  65.409  17.645  0.00  0.00    -0.343 N 
ATOM     47  H   LIG    1      -30.675  65.260  17.509  0.00  0.00    +0.144 HD
ATOM     48  H   LIG    1      -29.165  65.278  16.778  0.00  0.00    +0.144 HD
ENDBRANCH  36  46
ENDBRANCH  30  37
ENDBRANCH  29  33
ENDBRANCH   1  29
TORSDOF 11
ENDMDL
MODEL 5
REMARK VINA RESULT:      -6.8     17.839     20.818
REMARK  Name = pdb/CHEMBL3952347.pdb
REMARK                            x       y       z     vdW  Elec       q    Type
REMARK                         _______ _______ _______ _____ _____    ______ ____
ROOT
ATOM      1  C   LIG    1      -26.224  82.785  37.245  0.00  0.00    +0.323 A 
ATOM      2  N   LIG    1      -25.991  83.928  36.572  0.00  0.00    -0.201 NA
ATOM      3  C   LIG    1      -27.073  84.633  36.188  0.00  0.00    +0.145 A 
ATOM      4  C   LIG    1      -28.377  84.212  36.346  0.00  0.00    +0.105 A 
ATOM      5  C   LIG    1      -28.493  83.042  37.074  0.00  0.00    +0.145 A 
ATOM      6  N   LIG    1      -27.447  82.304  37.529  0.00  0.00    -0.201 NA
ENDROOT
BRANCH   4   7
ATOM      7  N   LIG    1      -29.501  84.944  35.918  0.00  0.00    -0.196 NA
ATOM      8  C   LIG    1      -30.002  84.888  34.739  0.00  0.00    +0.285 C 
BRANCH   8   9
ATOM      9  N   LIG    1      -31.008  85.656  34.213  0.00  0.00    -0.267 N 
ATOM     10  H   LIG    1      -31.871  85.695  34.753  0.00  0.00    +0.157 HD
BRANCH   9  11
ATOM     11  C   LIG    1      -31.018  86.422  33.030  0.00  0.00    +0.061 A 
ATOM     12  C   LIG    1      -30.172  87.544  32.828  0.00  0.00    +0.087 A 
ATOM     13  C   LIG    1      -30.208  88.233  31.594  0.00  0.00    +0.030 A 
ATOM     14  C   LIG    1      -31.085  87.863  30.579  0.00  0.00    +0.014 A 
ATOM     15  C   LIG    1      -31.935  86.776  30.761  0.00  0.00    +0.057 A 
ATOM     16  C   LIG    1      -31.864  86.057  31.964  0.00  0.00    +0.037 A 
BRANCH  12  17
ATOM     17  N   LIG    1      -29.262  88.025  33.823  0.00  0.00    -0.237 N 
ATOM     18  N   LIG    1      -28.053  87.438  34.057  0.00  0.00    -0.173 NA
ATOM     19  C   LIG    1      -27.473  88.226  34.972  0.00  0.00    +0.154 A 
ATOM     20  C   LIG    1      -28.314  89.256  35.406  0.00  0.00    +0.079 A 
ATOM     21 CL   LIG    1      -27.992  90.433  36.574  0.00  0.00    -0.080 Cl
ATOM     22  C   LIG    1      -29.460  89.094  34.679  0.00  0.00    +0.134 A 
ENDBRANCH  12  17
BRANCH  15  23
ATOM     23  C   LIG    1      -32.919  86.387  29.687  0.00  0.00    +0.417 C 
ATOM     24  F   LIG    1      -32.490  85.327  28.951  0.00  0.00    -0.166 F 
ATOM     25  F   LIG    1      -33.138  87.397  28.799  0.00  0.00    -0.166 F 
ATOM     26  F   LIG    1      -34.145  86.045  30.166  0.00  0.00    -0.166 F 
ENDBRANCH  15  23
ENDBRANCH   9  11
ENDBRANCH   8   9
BRANCH   8  27
ATOM     27  O   LIG    1      -29.602  83.991  33.809  0.00  0.00    -0.481 OA
ATOM     28  H   LIG    1      -30.344  83.450  33.497  0.00  0.00    +0.295 HD
ENDBRANCH   8  27
ENDBRANCH   4   7
BRANCH   1  29
ATOM     29  O   LIG    1      -25.141  81.999  37.640  0.00  0.00    -0.424 OA
BRANCH  29  33
ATOM     30  C   LIG    1      -23.377  79.490  34.718  0.00  0.00    -0.014 A 
ATOM     31  C   LIG    1      -24.605  79.162  35.323  0.00  0.00    +0.012 A 
ATOM     32  C   LIG    1      -25.215  79.997  36.262  0.00  0.00    +0.047 A 
ATOM     33  C   LIG    1      -24.586  81.162  36.694  0.00  0.00    +0.132 A 
ATOM     34  C   LIG    1      -23.381  81.530  36.099  0.00  0.00    +0.047 A 
ATOM     35  C   LIG    1      -22.791  80.705  35.121  0.00  0.00    +0.012 A 
BRANCH  30  37
ATOM     36  C   LIG    1      -21.486  78.063  33.702  0.00  0.00    +0.124 A 
ATOM     37  C   LIG    1      -22.784  78.607  33.670  0.00  0.00    +0.022 A 
ATOM     38  C   LIG    1      -23.542  78.276  32.527  0.00  0.00    +0.025 A 
ATOM     39  C   LIG    1      -23.033  77.461  31.508  0.00  0.00    +0.074 A 
ATOM     40  C   LIG    1      -21.741  77.006  31.654  0.00  0.00    +0.125 A 
ATOM     41  N   LIG    1      -20.966  77.293  32.720  0.00  0.00    -0.240 NA
BRANCH  39  42
ATOM     42  C   LIG    1      -23.854  77.102  30.311  0.00  0.00    +0.419 C 
ATOM     43  F   LIG    1      -23.162  77.232  29.146  0.00  0.00    -0.166 F 
ATOM     44  F   LIG    1      -24.953  77.894  30.181  0.00  0.00    -0.166 F 
ATOM     45  F   LIG    1      -24.318  75.822  30.329  0.00  0.00    -0.166 F 
ENDBRANCH  39  42
BRANCH  36  46
ATOM     46  N   LIG    1      -20.595  78.254  34.758  0.00  0.00    -0.343 N 
ATOM     47  H   LIG    1      -19.638  78.257  34.421  0.00  0.00    +0.144 HD
ATOM     48  H   LIG    1      -20.844  79.147  35.176  0.00  0.00    +0.144 HD
ENDBRANCH  36  46
ENDBRANCH  30  37
ENDBRANCH  29  33
ENDBRANCH   1  29
TORSDOF 11
ENDMDL
MODEL 6
REMARK VINA RESULT:      -6.8      2.722      3.638
REMARK  Name = pdb/CHEMBL3952347.pdb
REMARK                            x       y       z     vdW  Elec       q    Type
REMARK                         _______ _______ _______ _____ _____    ______ ____
ROOT
ATOM      1  C   LIG    1      -36.231  66.723  19.160  0.00  0.00    +0.323 A 
ATOM      2  N   LIG    1      -36.411  66.043  20.309  0.00  0.00    -0.201 NA
ATOM      3  C   LIG    1      -37.176  66.637  21.247  0.00  0.00    +0.145 A 
ATOM      4  C   LIG    1      -37.687  67.914  21.145  0.00  0.00    +0.105 A 
ATOM      5  C   LIG    1      -37.461  68.501  19.913  0.00  0.00    +0.145 A 
ATOM      6  N   LIG    1      -36.737  67.942  18.909  0.00  0.00    -0.201 NA
ENDROOT
BRANCH   4   7
ATOM      7  N   LIG    1      -38.463  68.536  22.142  0.00  0.00    -0.196 NA
ATOM      8  C   LIG    1      -38.008  69.357  23.015  0.00  0.00    +0.285 C 
BRANCH   8   9
ATOM      9  N   LIG    1      -38.669  69.902  24.085  0.00  0.00    -0.267 N 
ATOM     10  H   LIG    1      -39.069  69.241  24.748  0.00  0.00    +0.157 HD
BRANCH   9  11
ATOM     11  C   LIG    1      -38.864  71.258  24.414  0.00  0.00    +0.061 A 
ATOM     12  C   LIG    1      -38.005  71.974  25.289  0.00  0.00    +0.087 A 
ATOM     13  C   LIG    1      -38.242  73.346  25.533  0.00  0.00    +0.030 A 
ATOM     14  C   LIG    1      -39.324  74.010  24.965  0.00  0.00    +0.014 A 
ATOM     15  C   LIG    1      -40.189  73.326  24.117  0.00  0.00    +0.057 A 
ATOM     16  C   LIG    1      -39.927  71.977  23.830  0.00  0.00    +0.037 A 
BRANCH  12  17
ATOM     17  N   LIG    1      -36.887  71.371  25.950  0.00  0.00    -0.237 N 
ATOM     18  N   LIG    1      -35.734  71.048  25.295  0.00  0.00    -0.173 NA
ATOM     19  C   LIG    1      -34.916  70.609  26.261  0.00  0.00    +0.154 A 
ATOM     20  C   LIG    1      -35.541  70.551  27.511  0.00  0.00    +0.079 A 
ATOM     21 CL   LIG    1      -34.885  70.016  28.972  0.00  0.00    -0.080 Cl
ATOM     22  C   LIG    1      -36.807  71.018  27.285  0.00  0.00    +0.134 A 
ENDBRANCH  12  17
BRANCH  15  23
ATOM     23  C   LIG    1      -41.389  74.020  23.526  0.00  0.00    +0.417 C 
ATOM     24  F   LIG    1      -41.108  75.290  23.127  0.00  0.00    -0.166 F 
ATOM     25  F   LIG    1      -42.414  74.124  24.417  0.00  0.00    -0.166 F 
ATOM     26  F   LIG    1      -41.907  73.388  22.439  0.00  0.00    -0.166 F 
ENDBRANCH  15  23
ENDBRANCH   9  11
ENDBRANCH   8   9
BRANCH   8  27
ATOM     27  O   LIG    1      -36.749  69.849  22.979  0.00  0.00    -0.481 OA
ATOM     28  H   LIG    1      -36.741  70.812  23.092  0.00  0.00    +0.295 HD
ENDBRANCH   8  27
ENDBRANCH   4   7
BRANCH   1  29
ATOM     29  O   LIG    1      -35.422  66.169  18.167  0.00  0.00    -0.424 OA
BRANCH  29  33
ATOM     30  C   LIG    1      -31.286  67.084  18.240  0.00  0.00    -0.014 A 
ATOM     31  C   LIG    1      -31.858  66.195  19.169  0.00  0.00    +0.012 A 
ATOM     32  C   LIG    1      -33.213  65.857  19.134  0.00  0.00    +0.047 A 
ATOM     33  C   LIG    1      -34.073  66.454  18.215  0.00  0.00    +0.132 A 
ATOM     34  C   LIG    1      -33.537  67.320  17.264  0.00  0.00    +0.047 A 
ATOM     35  C   LIG    1      -32.161  67.624  17.277  0.00  0.00    +0.012 A 
BRANCH  30  37
ATOM     36  C   LIG    1      -28.823  66.574  17.676  0.00  0.00    +0.124 A 
ATOM     37  C   LIG    1      -29.822  67.374  18.263  0.00  0.00    +0.022 A 
ATOM     38  C   LIG    1      -29.350  68.525  18.931  0.00  0.00    +0.025 A 
ATOM     39  C   LIG    1      -27.987  68.841  18.994  0.00  0.00    +0.074 A 
ATOM     40  C   LIG    1      -27.111  67.965  18.392  0.00  0.00    +0.125 A 
ATOM     41  N   LIG    1      -27.501  66.848  17.744  0.00  0.00    -0.240 NA
BRANCH  39  42
ATOM     42  C   LIG    1      -27.502  70.073  19.688  0.00  0.00    +0.419 C 
ATOM     43  F   LIG    1      -28.420  71.079  19.668  0.00  0.00    -0.166 F 
ATOM     44  F   LIG    1      -26.378  70.583  19.113  0.00  0.00    -0.166 F 
ATOM     45  F   LIG    1      -27.193  69.876  20.999  0.00  0.00    -0.166 F 
ENDBRANCH  39  42
BRANCH  36  46
ATOM     46  N   LIG    1      -29.091  65.413  16.952  0.00  0.00    -0.343 N 
ATOM     47  H   LIG    1      -29.739  64.819  17.459  0.00  0.00    +0.144 HD
ATOM     48  H   LIG    1      -29.486  65.721  16.066  0.00  0.00    +0.144 HD
ENDBRANCH  36  46
ENDBRANCH  30  37
ENDBRANCH  29  33
ENDBRANCH   1  29
TORSDOF 11
ENDMDL
MODEL 7
REMARK VINA RESULT:      -6.7     10.747     15.845
REMARK  Name = pdb/CHEMBL3952347.pdb
REMARK                            x       y       z     vdW  Elec       q    Type
REMARK                         _______ _______ _______ _____ _____    ______ ____
ROOT
ATOM      1  C   LIG    1      -38.912  81.972  25.268  0.00  0.00    +0.323 A 
ATOM      2  N   LIG    1      -38.553  82.902  24.362  0.00  0.00    -0.201 NA
ATOM      3  C   LIG    1      -37.436  83.606  24.631  0.00  0.00    +0.145 A 
ATOM      4  C   LIG    1      -36.713  83.508  25.801  0.00  0.00    +0.105 A 
ATOM      5  C   LIG    1      -37.158  82.503  26.641  0.00  0.00    +0.145 A 
ATOM      6  N   LIG    1      -38.250  81.727  26.411  0.00  0.00    -0.201 NA
ENDROOT
BRANCH   4   7
ATOM      7  N   LIG    1      -35.561  84.266  26.085  0.00  0.00    -0.196 NA
ATOM      8  C   LIG    1      -35.533  85.288  26.858  0.00  0.00    +0.285 C 
BRANCH   8   9
ATOM      9  N   LIG    1      -34.488  86.147  27.084  0.00  0.00    -0.267 N 
ATOM     10  H   LIG    1      -33.983  86.464  26.258  0.00  0.00    +0.157 HD
BRANCH   9  11
ATOM     11  C   LIG    1      -34.016  86.673  28.303  0.00  0.00    +0.061 A 
ATOM     12  C   LIG    1      -34.195  88.030  28.681  0.00  0.00    +0.087 A 
ATOM     13  C   LIG    1      -33.731  88.470  29.941  0.00  0.00    +0.030 A 
ATOM     14  C   LIG    1      -33.065  87.614  30.813  0.00  0.00    +0.014 A 
ATOM     15  C   LIG    1      -32.864  86.283  30.457  0.00  0.00    +0.057 A 
ATOM     16  C   LIG    1      -33.370  85.829  29.229  0.00  0.00    +0.037 A 
BRANCH  12  17
ATOM     17  N   LIG    1      -34.834  88.996  27.840  0.00  0.00    -0.237 N 
ATOM     18  N   LIG    1      -36.080  88.805  27.318  0.00  0.00    -0.173 NA
ATOM     19  C   LIG    1      -36.355  89.953  26.685  0.00  0.00    +0.154 A 
ATOM     20  C   LIG    1      -35.281  90.849  26.706  0.00  0.00    +0.079 A 
ATOM     21 CL   LIG    1      -35.195  92.378  25.992  0.00  0.00    -0.080 Cl
ATOM     22  C   LIG    1      -34.311  90.208  27.425  0.00  0.00    +0.134 A 
ENDBRANCH  12  17
BRANCH  15  23
ATOM     23  C   LIG    1      -32.110  85.353  31.371  0.00  0.00    +0.417 C 
ATOM     24  F   LIG    1      -31.188  84.606  30.705  0.00  0.00    -0.166 F 
ATOM     25  F   LIG    1      -32.933  84.465  31.995  0.00  0.00    -0.166 F 
ATOM     26  F   LIG    1      -31.435  85.991  32.365  0.00  0.00    -0.166 F 
ENDBRANCH  15  23
ENDBRANCH   9  11
ENDBRANCH   8   9
BRANCH   8  27
ATOM     27  O   LIG    1      -36.582  85.662  27.625  0.00  0.00    -0.481 OA
ATOM     28  H   LIG    1      -36.759  85.015  28.324  0.00  0.00    +0.295 HD
ENDBRANCH   8  27
ENDBRANCH   4   7
BRANCH   1  29
ATOM     29  O   LIG    1      -40.078  81.235  25.056  0.00  0.00    -0.424 OA
BRANCH  29  33
ATOM     30  C   LIG    1      -39.679  77.036  24.664  0.00  0.00    -0.014 A 
ATOM     31  C   LIG    1      -40.137  77.622  25.859  0.00  0.00    +0.012 A 
ATOM     32  C   LIG    1      -40.306  79.002  25.990  0.00  0.00    +0.047 A 
ATOM     33  C   LIG    1      -39.953  79.864  24.956  0.00  0.00    +0.132 A 
ATOM     34  C   LIG    1      -39.519  79.318  23.749  0.00  0.00    +0.047 A 
ATOM     35  C   LIG    1      -39.390  77.923  23.608  0.00  0.00    +0.012 A 
BRANCH  30  37
ATOM     36  C   LIG    1      -38.470  74.776  24.947  0.00  0.00    +0.124 A 
ATOM     37  C   LIG    1      -39.570  75.552  24.535  0.00  0.00    +0.022 A 
ATOM     38  C   LIG    1      -40.625  74.826  23.942  0.00  0.00    +0.025 A 
ATOM     39  C   LIG    1      -40.574  73.435  23.786  0.00  0.00    +0.074 A 
ATOM     40  C   LIG    1      -39.431  72.796  24.217  0.00  0.00    +0.125 A 
ATOM     41  N   LIG    1      -38.390  73.437  24.786  0.00  0.00    -0.240 NA
BRANCH  39  42
ATOM     42  C   LIG    1      -41.706  72.674  23.173  0.00  0.00    +0.419 C 
ATOM     43  F   LIG    1      -42.412  73.421  22.279  0.00  0.00    -0.166 F 
ATOM     44  F   LIG    1      -42.609  72.254  24.101  0.00  0.00    -0.166 F 
ATOM     45  F   LIG    1      -41.314  71.558  22.501  0.00  0.00    -0.166 F 
ENDBRANCH  39  42
BRANCH  36  46
ATOM     46  N   LIG    1      -37.345  75.307  25.576  0.00  0.00    -0.343 N 
ATOM     47  H   LIG    1      -36.519  74.763  25.348  0.00  0.00    +0.144 HD
ATOM     48  H   LIG    1      -37.263  76.264  25.242  0.00  0.00    +0.144 HD
ENDBRANCH  36  46
ENDBRANCH  30  37
ENDBRANCH  29  33
ENDBRANCH   1  29
TORSDOF 11
ENDMDL
MODEL 8
REMARK VINA RESULT:      -6.7      9.315     12.465
REMARK  Name = pdb/CHEMBL3952347.pdb
REMARK                            x       y       z     vdW  Elec       q    Type
REMARK                         _______ _______ _______ _____ _____    ______ ____
ROOT
ATOM      1  C   LIG    1      -33.542  76.006  30.638  0.00  0.00    +0.323 A 
ATOM      2  N   LIG    1      -33.917  74.886  29.989  0.00  0.00    -0.201 NA
ATOM      3  C   LIG    1      -34.404  75.046  28.743  0.00  0.00    +0.145 A 
ATOM      4  C   LIG    1      -34.634  76.267  28.144  0.00  0.00    +0.105 A 
ATOM      5  C   LIG    1      -34.185  77.341  28.892  0.00  0.00    +0.145 A 
ATOM      6  N   LIG    1      -33.645  77.248  30.136  0.00  0.00    -0.201 NA
ENDROOT
BRANCH   4   7
ATOM      7  N   LIG    1      -35.168  76.425  26.851  0.00  0.00    -0.196 NA
ATOM      8  C   LIG    1      -36.420  76.486  26.581  0.00  0.00    +0.285 C 
BRANCH   8   9
ATOM      9  N   LIG    1      -37.015  76.512  25.347  0.00  0.00    -0.267 N 
ATOM     10  H   LIG    1      -36.547  77.070  24.635  0.00  0.00    +0.157 HD
BRANCH   9  11
ATOM     11  C   LIG    1      -38.185  75.859  24.909  0.00  0.00    +0.061 A 
ATOM     12  C   LIG    1      -39.364  76.554  24.529  0.00  0.00    +0.087 A 
ATOM     13  C   LIG    1      -40.481  75.828  24.057  0.00  0.00    +0.030 A 
ATOM     14  C   LIG    1      -40.472  74.438  23.990  0.00  0.00    +0.014 A 
ATOM     15  C   LIG    1      -39.333  73.735  24.372  0.00  0.00    +0.057 A 
ATOM     16  C   LIG    1      -38.203  74.454  24.791  0.00  0.00    +0.037 A 
BRANCH  12  17
ATOM     17  N   LIG    1      -39.485  77.979  24.597  0.00  0.00    -0.237 N 
ATOM     18  N   LIG    1      -39.279  78.679  25.750  0.00  0.00    -0.173 NA
ATOM     19  C   LIG    1      -39.386  79.963  25.383  0.00  0.00    +0.154 A 
ATOM     20  C   LIG    1      -39.748  80.109  24.040  0.00  0.00    +0.079 A 
ATOM     21 CL   LIG    1      -40.031  81.544  23.195  0.00  0.00    -0.080 Cl
ATOM     22  C   LIG    1      -39.831  78.831  23.563  0.00  0.00    +0.134 A 
ENDBRANCH  12  17
BRANCH  15  23
ATOM     23  C   LIG    1      -39.321  72.229  24.344  0.00  0.00    +0.417 C 
ATOM     24  F   LIG    1      -39.760  71.684  25.511  0.00  0.00    -0.166 F 
ATOM     25  F   LIG    1      -38.069  71.727  24.144  0.00  0.00    -0.166 F 
ATOM     26  F   LIG    1      -40.094  71.693  23.362  0.00  0.00    -0.166 F 
ENDBRANCH  15  23
ENDBRANCH   9  11
ENDBRANCH   8   9
BRANCH   8  27
ATOM     27  O   LIG    1      -37.377  76.567  27.533  0.00  0.00    -0.481 OA
ATOM     28  H   LIG    1      -38.210  76.904  27.169  0.00  0.00    +0.295 HD
ENDBRANCH   8  27
ENDBRANCH   4   7
BRANCH   1  29
ATOM     29  O   LIG    1      -33.060  75.902  31.943  0.00  0.00    -0.424 OA
BRANCH  29  33
ATOM     30  C   LIG    1      -28.901  76.409  32.571  0.00  0.00    -0.014 A 
ATOM     31  C   LIG    1      -29.394  75.511  31.606  0.00  0.00    +0.012 A 
ATOM     32  C   LIG    1      -30.761  75.359  31.365  0.00  0.00    +0.047 A 
ATOM     33  C   LIG    1      -31.700  76.045  32.131  0.00  0.00    +0.132 A 
ATOM     34  C   LIG    1      -31.248  76.961  33.078  0.00  0.00    +0.047 A 
ATOM     35  C   LIG    1      -29.867  77.142  33.288  0.00  0.00    +0.012 A 
BRANCH  30  37
ATOM     36  C   LIG    1      -26.724  76.341  33.950  0.00  0.00    +0.124 A 
ATOM     37  C   LIG    1      -27.431  76.595  32.760  0.00  0.00    +0.022 A 
ATOM     38  C   LIG    1      -26.647  77.079  31.690  0.00  0.00    +0.025 A 
ATOM     39  C   LIG    1      -25.267  77.282  31.813  0.00  0.00    +0.074 A 
ATOM     40  C   LIG    1      -24.699  77.010  33.039  0.00  0.00    +0.125 A 
ATOM     41  N   LIG    1      -25.397  76.551  34.098  0.00  0.00    -0.240 NA
BRANCH  39  42
ATOM     42  C   LIG    1      -24.445  77.777  30.666  0.00  0.00    +0.419 C 
ATOM     43  F   LIG    1      -23.122  77.874  30.977  0.00  0.00    -0.166 F 
ATOM     44  F   LIG    1      -24.823  79.018  30.256  0.00  0.00    -0.166 F 
ATOM     45  F   LIG    1      -24.512  76.983  29.563  0.00  0.00    -0.166 F 
ENDBRANCH  39  42
BRANCH  36  46
ATOM     46  N   LIG    1      -27.316  75.836  35.106  0.00  0.00    -0.343 N 
ATOM     47  H   LIG    1      -26.914  74.937  35.350  0.00  0.00    +0.144 HD
ATOM     48  H   LIG    1      -27.146  76.527  35.833  0.00  0.00    +0.144 HD
ENDBRANCH  36  46
ENDBRANCH  30  37
ENDBRANCH  29  33
ENDBRANCH   1  29
TORSDOF 11
ENDMDL
MODEL 9
REMARK VINA RESULT:      -6.6     14.602     18.588
REMARK  Name = pdb/CHEMBL3952347.pdb
REMARK                            x       y       z     vdW  Elec       q    Type
REMARK                         _______ _______ _______ _____ _____    ______ ____
ROOT
ATOM      1  C   LIG    1      -27.921  73.859  33.247  0.00  0.00    +0.323 A 
ATOM      2  N   LIG    1      -26.953  74.009  32.322  0.00  0.00    -0.201 NA
ATOM      3  C   LIG    1      -25.859  74.697  32.701  0.00  0.00    +0.145 A 
ATOM      4  C   LIG    1      -25.717  75.333  33.917  0.00  0.00    +0.105 A 
ATOM      5  C   LIG    1      -26.759  75.085  34.793  0.00  0.00    +0.145 A 
ATOM      6  N   LIG    1      -27.871  74.365  34.491  0.00  0.00    -0.201 NA
ENDROOT
BRANCH   4   7
ATOM      7  N   LIG    1      -24.580  76.072  34.294  0.00  0.00    -0.196 NA
ATOM      8  C   LIG    1      -24.401  77.316  34.040  0.00  0.00    +0.285 C 
BRANCH   8   9
ATOM      9  N   LIG    1      -23.277  78.069  34.262  0.00  0.00    -0.267 N 
ATOM     10  H   LIG    1      -23.261  78.608  35.125  0.00  0.00    +0.157 HD
BRANCH   9  11
ATOM     11  C   LIG    1      -22.119  78.193  33.468  0.00  0.00    +0.061 A 
ATOM     12  C   LIG    1      -20.990  78.959  33.861  0.00  0.00    +0.087 A 
ATOM     13  C   LIG    1      -19.848  78.997  33.029  0.00  0.00    +0.030 A 
ATOM     14  C   LIG    1      -19.813  78.330  31.808  0.00  0.00    +0.014 A 
ATOM     15  C   LIG    1      -20.915  77.586  31.395  0.00  0.00    +0.057 A 
ATOM     16  C   LIG    1      -22.030  77.502  32.242  0.00  0.00    +0.037 A 
BRANCH  12  17
ATOM     17  N   LIG    1      -20.942  79.709  35.079  0.00  0.00    -0.237 N 
ATOM     18  N   LIG    1      -20.884  79.114  36.305  0.00  0.00    -0.173 NA
ATOM     19  C   LIG    1      -20.754  80.134  37.164  0.00  0.00    +0.154 A 
ATOM     20  C   LIG    1      -20.820  81.380  36.532  0.00  0.00    +0.079 A 
ATOM     21 CL   LIG    1      -20.746  82.908  37.248  0.00  0.00    -0.080 Cl
ATOM     22  C   LIG    1      -20.966  81.087  35.205  0.00  0.00    +0.134 A 
ENDBRANCH  12  17
BRANCH  15  23
ATOM     23  C   LIG    1      -20.909  76.891  30.058  0.00  0.00    +0.417 C 
ATOM     24  F   LIG    1      -22.050  77.116  29.352  0.00  0.00    -0.166 F 
ATOM     25  F   LIG    1      -20.804  75.538  30.181  0.00  0.00    -0.166 F 
ATOM     26  F   LIG    1      -19.883  77.269  29.249  0.00  0.00    -0.166 F 
ENDBRANCH  15  23
ENDBRANCH   9  11
ENDBRANCH   8   9
BRANCH   8  27
ATOM     27  O   LIG    1      -25.364  78.108  33.517  0.00  0.00    -0.481 OA
ATOM     28  H   LIG    1      -25.970  78.429  34.202  0.00  0.00    +0.295 HD
ENDBRANCH   8  27
ENDBRANCH   4   7
BRANCH   1  29
ATOM     29  O   LIG    1      -29.091  73.182  32.899  0.00  0.00    -0.424 OA
BRANCH  29  33
ATOM     30  C   LIG    1      -31.632  75.073  30.086  0.00  0.00    -0.014 A 
ATOM     31  C   LIG    1      -31.180  73.754  29.897  0.00  0.00    +0.012 A 
ATOM     32  C   LIG    1      -30.370  73.106  30.833  0.00  0.00    +0.047 A 
ATOM     33  C   LIG    1      -29.914  73.776  31.965  0.00  0.00    +0.132 A 
ATOM     34  C   LIG    1      -30.361  75.075  32.198  0.00  0.00    +0.047 A 
ATOM     35  C   LIG    1      -31.212  75.709  31.271  0.00  0.00    +0.012 A 
BRANCH  30  37
ATOM     36  C   LIG    1      -33.792  75.198  28.685  0.00  0.00    +0.124 A 
ATOM     37  C   LIG    1      -32.549  75.715  29.098  0.00  0.00    +0.022 A 
ATOM     38  C   LIG    1      -32.175  76.932  28.489  0.00  0.00    +0.025 A 
ATOM     39  C   LIG    1      -32.991  77.573  27.548  0.00  0.00    +0.074 A 
ATOM     40  C   LIG    1      -34.176  76.953  27.218  0.00  0.00    +0.125 A 
ATOM     41  N   LIG    1      -34.584  75.788  27.762  0.00  0.00    -0.240 NA
BRANCH  39  42
ATOM     42  C   LIG    1      -32.592  78.872  26.924  0.00  0.00    +0.419 C 
ATOM     43  F   LIG    1      -32.240  78.735  25.616  0.00  0.00    -0.166 F 
ATOM     44  F   LIG    1      -31.518  79.435  27.542  0.00  0.00    -0.166 F 
ATOM     45  F   LIG    1      -33.574  79.815  26.950  0.00  0.00    -0.166 F 
ENDBRANCH  39  42
BRANCH  36  46
ATOM     46  N   LIG    1      -34.344  74.022  29.190  0.00  0.00    -0.343 N 
ATOM     47  H   LIG    1      -34.996  73.620  28.525  0.00  0.00    +0.144 HD
ATOM     48  H   LIG    1      -33.561  73.397  29.366  0.00  0.00    +0.144 HD
ENDBRANCH  36  46
ENDBRANCH  30  37
ENDBRANCH  29  33
ENDBRANCH   1  29
TORSDOF 11
ENDMDL
