MODEL 1
REMARK VINA RESULT:      -6.1      0.000      0.000
REMARK  Name = pdb/CHEMBL3937136.pdb
REMARK                            x       y       z     vdW  Elec       q    Type
REMARK                         _______ _______ _______ _____ _____    ______ ____
ROOT
ATOM      1  C   LIG    1      -25.293  75.416  31.749  0.00  0.00    +0.197 C 
ATOM      2  O   LIG    1      -26.272  75.978  31.235  0.00  0.00    -0.287 OA
ENDROOT
BRANCH   1  11
ATOM      3  N   LIG    1      -22.441  77.276  33.137  0.00  0.00    -0.336 N 
ATOM      4  C   LIG    1      -22.043  77.166  31.801  0.00  0.00    +0.089 A 
ATOM      5  C   LIG    1      -20.936  77.612  31.064  0.00  0.00    +0.165 A 
ATOM      6  F   LIG    1      -19.980  78.390  31.581  0.00  0.00    -0.202 F 
ATOM      7  C   LIG    1      -20.863  77.228  29.727  0.00  0.00    +0.151 A 
ATOM      8  N   LIG    1      -21.767  76.457  29.089  0.00  0.00    -0.260 NA
ATOM      9  C   LIG    1      -22.848  76.047  29.785  0.00  0.00    +0.121 A 
ATOM     10  C   LIG    1      -23.022  76.406  31.135  0.00  0.00    +0.032 A 
ATOM     11  C   LIG    1      -24.085  76.163  32.046  0.00  0.00    +0.049 A 
ATOM     12  C   LIG    1      -23.702  76.712  33.249  0.00  0.00    +0.099 A 
BRANCH   3  14
ATOM     13  C   LIG    1      -20.347  76.906  34.422  0.00  0.00    +0.036 C 
ATOM     14  C   LIG    1      -21.647  77.735  34.314  0.00  0.00    +0.063 C 
ATOM     15  C   LIG    1      -22.416  77.511  35.654  0.00  0.00    +0.036 C 
BRANCH  14  16
ATOM     16  C   LIG    1      -21.285  79.243  34.271  0.00  0.00    +0.183 C 
BRANCH  16  17
ATOM     17  O   LIG    1      -21.844  79.962  35.366  0.00  0.00    -0.393 OA
ATOM     18  H   LIG    1      -21.870  79.352  36.125  0.00  0.00    +0.209 HD
ENDBRANCH  16  17
ENDBRANCH  14  16
ENDBRANCH   3  14
ENDBRANCH   1  11
BRANCH   1  19
ATOM     19  C   LIG    1      -25.404  73.975  32.033  0.00  0.00    +0.042 A 
ATOM     20  C   LIG    1      -25.117  73.089  30.993  0.00  0.00    +0.042 A 
ATOM     21  C   LIG    1      -25.236  71.712  31.157  0.00  0.00    +0.086 A 
ATOM     22  C   LIG    1      -25.648  71.287  32.419  0.00  0.00    +0.138 A 
ATOM     23  N   LIG    1      -25.951  72.111  33.462  0.00  0.00    -0.260 NA
ATOM     24  C   LIG    1      -25.827  73.443  33.240  0.00  0.00    +0.122 A 
BRANCH  21  25
ATOM     25  N   LIG    1      -24.871  70.773  30.171  0.00  0.00    -0.216 NA
ATOM     26  C   LIG    1      -25.751  70.239  29.383  0.00  0.00    +0.193 C 
BRANCH  26  27
ATOM     27  O   LIG    1      -27.079  70.445  29.510  0.00  0.00    -0.495 OA
ATOM     28  H   LIG    1      -27.443  71.076  28.869  0.00  0.00    +0.293 HD
ENDBRANCH  26  27
BRANCH  26  29
ATOM     29  C   LIG    1      -25.376  69.284  28.284  0.00  0.00    +0.150 C 
BRANCH  29  30
ATOM     30  C   LIG    1      -25.019  70.000  27.012  0.00  0.00    +0.050 A 
ATOM     31  N   LIG    1      -25.864  69.845  25.959  0.00  0.00    -0.258 NA
ATOM     32  C   LIG    1      -25.545  70.496  24.811  0.00  0.00    +0.131 A 
ATOM     33  C   LIG    1      -24.417  71.286  24.661  0.00  0.00    +0.059 A 
ATOM     34 CL   LIG    1      -24.074  72.062  23.170  0.00  0.00    -0.082 Cl
ATOM     35  C   LIG    1      -23.566  71.436  25.748  0.00  0.00    +0.023 A 
ATOM     36  C   LIG    1      -23.872  70.788  26.943  0.00  0.00    +0.025 A 
ENDBRANCH  29  30
ENDBRANCH  26  29
ENDBRANCH  21  25
ENDBRANCH   1  19
TORSDOF 9
ENDMDL
MODEL 2
REMARK VINA RESULT:      -6.0      5.067      9.365
REMARK  Name = pdb/CHEMBL3937136.pdb
REMARK                            x       y       z     vdW  Elec       q    Type
REMARK                         _______ _______ _______ _____ _____    ______ ____
ROOT
ATOM      1  C   LIG    1      -21.752  76.337  29.953  0.00  0.00    +0.197 C 
ATOM      2  O   LIG    1      -21.844  76.445  28.720  0.00  0.00    -0.287 OA
ENDROOT
BRANCH   1  11
ATOM      3  N   LIG    1      -24.023  74.360  32.064  0.00  0.00    -0.336 N 
ATOM      4  C   LIG    1      -24.843  75.453  31.768  0.00  0.00    +0.089 A 
ATOM      5  C   LIG    1      -26.163  75.806  32.082  0.00  0.00    +0.165 A 
ATOM      6  F   LIG    1      -26.994  75.001  32.751  0.00  0.00    -0.202 F 
ATOM      7  C   LIG    1      -26.612  77.050  31.647  0.00  0.00    +0.151 A 
ATOM      8  N   LIG    1      -25.875  77.945  30.955  0.00  0.00    -0.260 NA
ATOM      9  C   LIG    1      -24.613  77.600  30.627  0.00  0.00    +0.121 A 
ATOM     10  C   LIG    1      -24.079  76.352  31.001  0.00  0.00    +0.032 A 
ATOM     11  C   LIG    1      -22.827  75.740  30.722  0.00  0.00    +0.049 A 
ATOM     12  C   LIG    1      -22.831  74.528  31.377  0.00  0.00    +0.099 A 
BRANCH   3  14
ATOM     13  C   LIG    1      -22.964  72.409  33.178  0.00  0.00    +0.036 C 
ATOM     14  C   LIG    1      -24.240  73.270  33.061  0.00  0.00    +0.063 C 
ATOM     15  C   LIG    1      -25.380  72.299  32.617  0.00  0.00    +0.036 C 
BRANCH  14  16
ATOM     16  C   LIG    1      -24.637  73.786  34.469  0.00  0.00    +0.183 C 
BRANCH  16  17
ATOM     17  O   LIG    1      -23.586  74.524  35.087  0.00  0.00    -0.393 OA
ATOM     18  H   LIG    1      -23.994  75.079  35.776  0.00  0.00    +0.209 HD
ENDBRANCH  16  17
ENDBRANCH  14  16
ENDBRANCH   3  14
ENDBRANCH   1  11
BRANCH   1  19
ATOM     19  C   LIG    1      -20.525  76.840  30.593  0.00  0.00    +0.042 A 
ATOM     20  C   LIG    1      -20.668  77.825  31.572  0.00  0.00    +0.042 A 
ATOM     21  C   LIG    1      -19.562  78.390  32.201  0.00  0.00    +0.086 A 
ATOM     22  C   LIG    1      -18.321  77.902  31.796  0.00  0.00    +0.138 A 
ATOM     23  N   LIG    1      -18.129  76.951  30.838  0.00  0.00    -0.260 NA
ATOM     24  C   LIG    1      -19.242  76.445  30.252  0.00  0.00    +0.122 A 
BRANCH  21  25
ATOM     25  N   LIG    1      -19.654  79.319  33.258  0.00  0.00    -0.216 NA
ATOM     26  C   LIG    1      -19.829  78.938  34.484  0.00  0.00    +0.193 C 
BRANCH  26  27
ATOM     27  O   LIG    1      -20.048  77.653  34.835  0.00  0.00    -0.495 OA
ATOM     28  H   LIG    1      -20.985  77.400  34.837  0.00  0.00    +0.293 HD
ENDBRANCH  26  27
BRANCH  26  29
ATOM     29  C   LIG    1      -19.865  79.908  35.632  0.00  0.00    +0.150 C 
BRANCH  29  30
ATOM     30  C   LIG    1      -21.260  80.384  35.926  0.00  0.00    +0.050 A 
ATOM     31  N   LIG    1      -22.174  79.439  36.271  0.00  0.00    -0.258 NA
ATOM     32  C   LIG    1      -23.432  79.869  36.542  0.00  0.00    +0.131 A 
ATOM     33  C   LIG    1      -23.826  81.196  36.473  0.00  0.00    +0.059 A 
ATOM     34 CL   LIG    1      -25.443  81.657  36.813  0.00  0.00    -0.082 Cl
ATOM     35  C   LIG    1      -22.878  82.148  36.121  0.00  0.00    +0.023 A 
ATOM     36  C   LIG    1      -21.575  81.739  35.848  0.00  0.00    +0.025 A 
ENDBRANCH  29  30
ENDBRANCH  26  29
ENDBRANCH  21  25
ENDBRANCH   1  19
TORSDOF 9
ENDMDL
MODEL 3
REMARK VINA RESULT:      -6.0     15.200     17.876
REMARK  Name = pdb/CHEMBL3937136.pdb
REMARK                            x       y       z     vdW  Elec       q    Type
REMARK                         _______ _______ _______ _____ _____    ______ ____
ROOT
ATOM      1  C   LIG    1      -22.552  82.169  15.950  0.00  0.00    +0.197 C 
ATOM      2  O   LIG    1      -22.404  82.197  17.182  0.00  0.00    -0.287 OA
ENDROOT
BRANCH   1  11
ATOM      3  N   LIG    1      -21.245  84.980  13.972  0.00  0.00    -0.336 N 
ATOM      4  C   LIG    1      -20.220  84.047  13.790  0.00  0.00    +0.089 A 
ATOM      5  C   LIG    1      -19.016  84.035  13.071  0.00  0.00    +0.165 A 
ATOM      6  F   LIG    1      -18.637  85.033  12.267  0.00  0.00    -0.202 F 
ATOM      7  C   LIG    1      -18.205  82.912  13.203  0.00  0.00    +0.151 A 
ATOM      8  N   LIG    1      -18.481  81.838  13.973  0.00  0.00    -0.260 NA
ATOM      9  C   LIG    1      -19.650  81.832  14.646  0.00  0.00    +0.121 A 
ATOM     10  C   LIG    1      -20.548  82.912  14.555  0.00  0.00    +0.032 A 
ATOM     11  C   LIG    1      -21.845  83.110  15.102  0.00  0.00    +0.049 A 
ATOM     12  C   LIG    1      -22.241  84.372  14.720  0.00  0.00    +0.099 A 
BRANCH   3  14
ATOM     13  C   LIG    1      -20.077  87.149  14.291  0.00  0.00    +0.036 C 
ATOM     14  C   LIG    1      -21.265  86.429  13.615  0.00  0.00    +0.063 C 
ATOM     15  C   LIG    1      -22.555  87.137  14.137  0.00  0.00    +0.036 C 
BRANCH  14  16
ATOM     16  C   LIG    1      -21.216  86.695  12.087  0.00  0.00    +0.183 C 
BRANCH  16  17
ATOM     17  O   LIG    1      -22.266  86.029  11.392  0.00  0.00    -0.393 OA
ATOM     18  H   LIG    1      -22.158  86.236  10.446  0.00  0.00    +0.209 HD
ENDBRANCH  16  17
ENDBRANCH  14  16
ENDBRANCH   3  14
ENDBRANCH   1  11
BRANCH   1  19
ATOM     19  C   LIG    1      -23.469  81.160  15.395  0.00  0.00    +0.042 A 
ATOM     20  C   LIG    1      -23.234  79.825  15.725  0.00  0.00    +0.042 A 
ATOM     21  C   LIG    1      -24.023  78.799  15.214  0.00  0.00    +0.086 A 
ATOM     22  C   LIG    1      -25.056  79.196  14.366  0.00  0.00    +0.138 A 
ATOM     23  N   LIG    1      -25.320  80.484  14.004  0.00  0.00    -0.260 NA
ATOM     24  C   LIG    1      -24.511  81.440  14.525  0.00  0.00    +0.122 A 
BRANCH  21  25
ATOM     25  N   LIG    1      -23.886  77.446  15.587  0.00  0.00    -0.216 NA
ATOM     26  C   LIG    1      -23.116  76.635  14.932  0.00  0.00    +0.193 C 
BRANCH  26  27
ATOM     27  O   LIG    1      -22.479  76.979  13.792  0.00  0.00    -0.495 OA
ATOM     28  H   LIG    1      -23.041  77.443  13.152  0.00  0.00    +0.293 HD
ENDBRANCH  26  27
BRANCH  26  29
ATOM     29  C   LIG    1      -22.907  75.207  15.351  0.00  0.00    +0.150 C 
BRANCH  29  30
ATOM     30  C   LIG    1      -21.539  74.983  15.932  0.00  0.00    +0.050 A 
ATOM     31  N   LIG    1      -20.574  75.880  15.600  0.00  0.00    -0.258 NA
ATOM     32  C   LIG    1      -19.340  75.682  16.129  0.00  0.00    +0.131 A 
ATOM     33  C   LIG    1      -19.020  74.624  16.965  0.00  0.00    +0.059 A 
ATOM     34 CL   LIG    1      -17.430  74.432  17.579  0.00  0.00    -0.082 Cl
ATOM     35  C   LIG    1      -20.019  73.718  17.295  0.00  0.00    +0.023 A 
ATOM     36  C   LIG    1      -21.299  73.901  16.776  0.00  0.00    +0.025 A 
ENDBRANCH  29  30
ENDBRANCH  26  29
ENDBRANCH  21  25
ENDBRANCH   1  19
TORSDOF 9
ENDMDL
MODEL 4
REMARK VINA RESULT:      -5.9     14.230     17.592
REMARK  Name = pdb/CHEMBL3937136.pdb
REMARK                            x       y       z     vdW  Elec       q    Type
REMARK                         _______ _______ _______ _____ _____    ______ ____
ROOT
ATOM      1  C   LIG    1      -21.851  81.398  16.025  0.00  0.00    +0.197 C 
ATOM      2  O   LIG    1      -22.098  81.990  17.087  0.00  0.00    -0.287 OA
ENDROOT
BRANCH   1  11
ATOM      3  N   LIG    1      -24.102  81.471  13.119  0.00  0.00    -0.336 N 
ATOM      4  C   LIG    1      -24.673  80.426  13.851  0.00  0.00    +0.089 A 
ATOM      5  C   LIG    1      -25.786  79.592  13.674  0.00  0.00    +0.165 A 
ATOM      6  F   LIG    1      -26.649  79.732  12.662  0.00  0.00    -0.202 F 
ATOM      7  C   LIG    1      -25.991  78.590  14.619  0.00  0.00    +0.151 A 
ATOM      8  N   LIG    1      -25.200  78.355  15.687  0.00  0.00    -0.260 NA
ATOM      9  C   LIG    1      -24.143  79.170  15.878  0.00  0.00    +0.121 A 
ATOM     10  C   LIG    1      -23.869  80.227  14.989  0.00  0.00    +0.032 A 
ATOM     11  C   LIG    1      -22.877  81.245  15.011  0.00  0.00    +0.049 A 
ATOM     12  C   LIG    1      -23.054  81.987  13.864  0.00  0.00    +0.099 A 
BRANCH   3  14
ATOM     13  C   LIG    1      -24.277  80.681  10.770  0.00  0.00    +0.036 C 
ATOM     14  C   LIG    1      -24.390  81.896  11.717  0.00  0.00    +0.063 C 
ATOM     15  C   LIG    1      -23.353  82.943  11.204  0.00  0.00    +0.036 C 
BRANCH  14  16
ATOM     16  C   LIG    1      -25.786  82.549  11.540  0.00  0.00    +0.183 C 
BRANCH  16  17
ATOM     17  O   LIG    1      -26.157  83.339  12.666  0.00  0.00    -0.393 OA
ATOM     18  H   LIG    1      -26.065  84.273  12.402  0.00  0.00    +0.209 HD
ENDBRANCH  16  17
ENDBRANCH  14  16
ENDBRANCH   3  14
ENDBRANCH   1  11
BRANCH   1  19
ATOM     19  C   LIG    1      -20.493  80.858  15.843  0.00  0.00    +0.042 A 
ATOM     20  C   LIG    1      -20.218  79.607  16.397  0.00  0.00    +0.042 A 
ATOM     21  C   LIG    1      -18.952  79.036  16.312  0.00  0.00    +0.086 A 
ATOM     22  C   LIG    1      -17.994  79.790  15.635  0.00  0.00    +0.138 A 
ATOM     23  N   LIG    1      -18.209  81.019  15.087  0.00  0.00    -0.260 NA
ATOM     24  C   LIG    1      -19.460  81.529  15.211  0.00  0.00    +0.122 A 
BRANCH  21  25
ATOM     25  N   LIG    1      -18.645  77.739  16.772  0.00  0.00    -0.216 NA
ATOM     26  C   LIG    1      -18.708  76.708  15.990  0.00  0.00    +0.193 C 
BRANCH  26  27
ATOM     27  O   LIG    1      -19.172  76.768  14.723  0.00  0.00    -0.495 OA
ATOM     28  H   LIG    1      -19.407  75.905  14.349  0.00  0.00    +0.293 HD
ENDBRANCH  26  27
BRANCH  26  29
ATOM     29  C   LIG    1      -18.325  75.327  16.443  0.00  0.00    +0.150 C 
BRANCH  29  30
ATOM     30  C   LIG    1      -19.511  74.542  16.929  0.00  0.00    +0.050 A 
ATOM     31  N   LIG    1      -20.694  74.758  16.297  0.00  0.00    -0.258 NA
ATOM     32  C   LIG    1      -21.764  74.046  16.731  0.00  0.00    +0.131 A 
ATOM     33  C   LIG    1      -21.712  73.135  17.775  0.00  0.00    +0.059 A 
ATOM     34 CL   LIG    1      -23.116  72.287  18.278  0.00  0.00    -0.082 Cl
ATOM     35  C   LIG    1      -20.495  72.926  18.408  0.00  0.00    +0.023 A 
ATOM     36  C   LIG    1      -19.375  73.634  17.977  0.00  0.00    +0.025 A 
ENDBRANCH  29  30
ENDBRANCH  26  29
ENDBRANCH  21  25
ENDBRANCH   1  19
TORSDOF 9
ENDMDL
MODEL 5
REMARK VINA RESULT:      -5.8      4.737      6.024
REMARK  Name = pdb/CHEMBL3937136.pdb
REMARK                            x       y       z     vdW  Elec       q    Type
REMARK                         _______ _______ _______ _____ _____    ______ ____
ROOT
ATOM      1  C   LIG    1      -25.281  77.458  31.165  0.00  0.00    +0.197 C 
ATOM      2  O   LIG    1      -25.851  78.331  30.492  0.00  0.00    -0.287 OA
ENDROOT
BRANCH   1  11
ATOM      3  N   LIG    1      -22.079  78.050  32.872  0.00  0.00    -0.336 N 
ATOM      4  C   LIG    1      -21.622  77.644  31.615  0.00  0.00    +0.089 A 
ATOM      5  C   LIG    1      -20.357  77.495  31.029  0.00  0.00    +0.165 A 
ATOM      6  F   LIG    1      -19.222  77.838  31.647  0.00  0.00    -0.202 F 
ATOM      7  C   LIG    1      -20.309  76.983  29.735  0.00  0.00    +0.151 A 
ATOM      8  N   LIG    1      -21.381  76.612  29.005  0.00  0.00    -0.260 NA
ATOM      9  C   LIG    1      -22.603  76.778  29.553  0.00  0.00    +0.121 A 
ATOM     10  C   LIG    1      -22.753  77.312  30.847  0.00  0.00    +0.032 A 
ATOM     11  C   LIG    1      -23.911  77.642  31.602  0.00  0.00    +0.049 A 
ATOM     12  C   LIG    1      -23.464  78.095  32.824  0.00  0.00    +0.099 A 
BRANCH   3  14
ATOM     13  C   LIG    1      -20.555  76.938  34.489  0.00  0.00    +0.036 C 
ATOM     14  C   LIG    1      -21.303  78.242  34.133  0.00  0.00    +0.063 C 
ATOM     15  C   LIG    1      -22.235  78.554  35.346  0.00  0.00    +0.036 C 
BRANCH  14  16
ATOM     16  C   LIG    1      -20.282  79.409  34.062  0.00  0.00    +0.183 C 
BRANCH  16  17
ATOM     17  O   LIG    1      -20.495  80.373  35.090  0.00  0.00    -0.393 OA
ATOM     18  H   LIG    1      -19.980  80.082  35.865  0.00  0.00    +0.209 HD
ENDBRANCH  16  17
ENDBRANCH  14  16
ENDBRANCH   3  14
ENDBRANCH   1  11
BRANCH   1  19
ATOM     19  C   LIG    1      -26.042  76.240  31.489  0.00  0.00    +0.042 A 
ATOM     20  C   LIG    1      -27.370  76.397  31.888  0.00  0.00    +0.042 A 
ATOM     21  C   LIG    1      -28.154  75.307  32.254  0.00  0.00    +0.086 A 
ATOM     22  C   LIG    1      -27.528  74.062  32.185  0.00  0.00    +0.138 A 
ATOM     23  N   LIG    1      -26.233  73.858  31.813  0.00  0.00    -0.260 NA
ATOM     24  C   LIG    1      -25.515  74.958  31.478  0.00  0.00    +0.122 A 
BRANCH  21  25
ATOM     25  N   LIG    1      -29.523  75.400  32.576  0.00  0.00    -0.216 NA
ATOM     26  C   LIG    1      -30.402  75.779  31.702  0.00  0.00    +0.193 C 
BRANCH  26  27
ATOM     27  O   LIG    1      -30.076  76.216  30.467  0.00  0.00    -0.495 OA
ATOM     28  H   LIG    1      -29.516  75.602  29.967  0.00  0.00    +0.293 HD
ENDBRANCH  26  27
BRANCH  26  29
ATOM     29  C   LIG    1      -31.874  75.824  32.006  0.00  0.00    +0.150 C 
BRANCH  29  30
ATOM     30  C   LIG    1      -32.703  75.989  30.763  0.00  0.00    +0.050 A 
ATOM     31  N   LIG    1      -32.542  75.059  29.787  0.00  0.00    -0.258 NA
ATOM     32  C   LIG    1      -33.294  75.204  28.666  0.00  0.00    +0.131 A 
ATOM     33  C   LIG    1      -34.192  76.242  28.469  0.00  0.00    +0.059 A 
ATOM     34 CL   LIG    1      -35.093  76.367  27.015  0.00  0.00    -0.082 Cl
ATOM     35  C   LIG    1      -34.345  77.182  29.479  0.00  0.00    +0.023 A 
ATOM     36  C   LIG    1      -33.594  77.053  30.646  0.00  0.00    +0.025 A 
ENDBRANCH  29  30
ENDBRANCH  26  29
ENDBRANCH  21  25
ENDBRANCH   1  19
TORSDOF 9
ENDMDL
MODEL 6
REMARK VINA RESULT:      -5.8     12.980     14.555
REMARK  Name = pdb/CHEMBL3937136.pdb
REMARK                            x       y       z     vdW  Elec       q    Type
REMARK                         _______ _______ _______ _____ _____    ______ ____
ROOT
ATOM      1  C   LIG    1      -37.002  79.678  29.095  0.00  0.00    +0.197 C 
ATOM      2  O   LIG    1      -37.246  80.281  30.152  0.00  0.00    -0.287 OA
ENDROOT
BRANCH   1  11
ATOM      3  N   LIG    1      -34.686  76.825  29.237  0.00  0.00    -0.336 N 
ATOM      4  C   LIG    1      -33.929  77.725  28.481  0.00  0.00    +0.089 A 
ATOM      5  C   LIG    1      -32.648  77.699  27.912  0.00  0.00    +0.165 A 
ATOM      6  F   LIG    1      -31.791  76.688  28.090  0.00  0.00    -0.202 F 
ATOM      7  C   LIG    1      -32.267  78.797  27.146  0.00  0.00    +0.151 A 
ATOM      8  N   LIG    1      -33.035  79.880  26.902  0.00  0.00    -0.260 NA
ATOM      9  C   LIG    1      -34.258  79.923  27.469  0.00  0.00    +0.121 A 
ATOM     10  C   LIG    1      -34.722  78.871  28.280  0.00  0.00    +0.032 A 
ATOM     11  C   LIG    1      -35.919  78.715  29.030  0.00  0.00    +0.049 A 
ATOM     12  C   LIG    1      -35.860  77.464  29.604  0.00  0.00    +0.099 A 
BRANCH   3  14
ATOM     13  C   LIG    1      -35.598  74.783  30.318  0.00  0.00    +0.036 C 
ATOM     14  C   LIG    1      -34.434  75.376  29.493  0.00  0.00    +0.063 C 
ATOM     15  C   LIG    1      -33.143  75.154  30.342  0.00  0.00    +0.036 C 
BRANCH  14  16
ATOM     16  C   LIG    1      -34.250  74.539  28.200  0.00  0.00    +0.183 C 
BRANCH  16  17
ATOM     17  O   LIG    1      -35.264  74.807  27.237  0.00  0.00    -0.393 OA
ATOM     18  H   LIG    1      -36.102  74.907  27.724  0.00  0.00    +0.209 HD
ENDBRANCH  16  17
ENDBRANCH  14  16
ENDBRANCH   3  14
ENDBRANCH   1  11
BRANCH   1  19
ATOM     19  C   LIG    1      -37.842  79.983  27.925  0.00  0.00    +0.042 A 
ATOM     20  C   LIG    1      -38.527  78.923  27.330  0.00  0.00    +0.042 A 
ATOM     21  C   LIG    1      -39.311  79.109  26.195  0.00  0.00    +0.086 A 
ATOM     22  C   LIG    1      -39.368  80.414  25.707  0.00  0.00    +0.138 A 
ATOM     23  N   LIG    1      -38.709  81.479  26.244  0.00  0.00    -0.260 NA
ATOM     24  C   LIG    1      -37.952  81.235  27.343  0.00  0.00    +0.122 A 
BRANCH  21  25
ATOM     25  N   LIG    1      -40.095  78.093  25.610  0.00  0.00    -0.216 NA
ATOM     26  C   LIG    1      -39.782  77.566  24.468  0.00  0.00    +0.193 C 
BRANCH  26  27
ATOM     27  O   LIG    1      -38.764  78.012  23.702  0.00  0.00    -0.495 OA
ATOM     28  H   LIG    1      -38.025  77.388  23.627  0.00  0.00    +0.293 HD
ENDBRANCH  26  27
BRANCH  26  29
ATOM     29  C   LIG    1      -40.568  76.438  23.858  0.00  0.00    +0.150 C 
BRANCH  29  30
ATOM     30  C   LIG    1      -39.941  75.101  24.132  0.00  0.00    +0.050 A 
ATOM     31  N   LIG    1      -38.705  75.102  24.697  0.00  0.00    -0.258 NA
ATOM     32  C   LIG    1      -38.141  73.894  24.949  0.00  0.00    +0.131 A 
ATOM     33  C   LIG    1      -38.747  72.683  24.654  0.00  0.00    +0.059 A 
ATOM     34 CL   LIG    1      -37.959  71.196  24.987  0.00  0.00    -0.082 Cl
ATOM     35  C   LIG    1      -40.010  72.700  24.079  0.00  0.00    +0.023 A 
ATOM     36  C   LIG    1      -40.620  73.925  23.818  0.00  0.00    +0.025 A 
ENDBRANCH  29  30
ENDBRANCH  26  29
ENDBRANCH  21  25
ENDBRANCH   1  19
TORSDOF 9
ENDMDL
MODEL 7
REMARK VINA RESULT:      -5.8     15.926     17.913
REMARK  Name = pdb/CHEMBL3937136.pdb
REMARK                            x       y       z     vdW  Elec       q    Type
REMARK                         _______ _______ _______ _____ _____    ______ ____
ROOT
ATOM      1  C   LIG    1      -22.597  82.234  15.947  0.00  0.00    +0.197 C 
ATOM      2  O   LIG    1      -22.453  82.287  17.179  0.00  0.00    -0.287 OA
ENDROOT
BRANCH   1  11
ATOM      3  N   LIG    1      -21.306  85.058  13.978  0.00  0.00    -0.336 N 
ATOM      4  C   LIG    1      -20.337  84.091  13.695  0.00  0.00    +0.089 A 
ATOM      5  C   LIG    1      -19.187  84.055  12.894  0.00  0.00    +0.165 A 
ATOM      6  F   LIG    1      -18.820  85.065  12.099  0.00  0.00    -0.202 F 
ATOM      7  C   LIG    1      -18.418  82.895  12.931  0.00  0.00    +0.151 A 
ATOM      8  N   LIG    1      -18.689  81.807  13.681  0.00  0.00    -0.260 NA
ATOM      9  C   LIG    1      -19.808  81.824  14.434  0.00  0.00    +0.121 A 
ATOM     10  C   LIG    1      -20.662  82.944  14.442  0.00  0.00    +0.032 A 
ATOM     11  C   LIG    1      -21.909  83.174  15.084  0.00  0.00    +0.049 A 
ATOM     12  C   LIG    1      -22.274  84.465  14.773  0.00  0.00    +0.099 A 
BRANCH   3  14
ATOM     13  C   LIG    1      -22.485  87.211  14.358  0.00  0.00    +0.036 C 
ATOM     14  C   LIG    1      -21.286  86.519  13.673  0.00  0.00    +0.063 C 
ATOM     15  C   LIG    1      -21.442  86.794  12.144  0.00  0.00    +0.036 C 
BRANCH  14  16
ATOM     16  C   LIG    1      -19.976  87.227  14.108  0.00  0.00    +0.183 C 
BRANCH  16  17
ATOM     17  O   LIG    1      -19.983  87.570  15.490  0.00  0.00    -0.393 OA
ATOM     18  H   LIG    1      -20.294  88.491  15.555  0.00  0.00    +0.209 HD
ENDBRANCH  16  17
ENDBRANCH  14  16
ENDBRANCH   3  14
ENDBRANCH   1  11
BRANCH   1  19
ATOM     19  C   LIG    1      -23.489  81.194  15.408  0.00  0.00    +0.042 A 
ATOM     20  C   LIG    1      -23.239  79.873  15.782  0.00  0.00    +0.042 A 
ATOM     21  C   LIG    1      -24.004  78.820  15.289  0.00  0.00    +0.086 A 
ATOM     22  C   LIG    1      -25.029  79.176  14.414  0.00  0.00    +0.138 A 
ATOM     23  N   LIG    1      -25.306  80.447  14.009  0.00  0.00    -0.260 NA
ATOM     24  C   LIG    1      -24.521  81.431  14.514  0.00  0.00    +0.122 A 
BRANCH  21  25
ATOM     25  N   LIG    1      -23.852  77.481  15.705  0.00  0.00    -0.216 NA
ATOM     26  C   LIG    1      -22.980  76.695  15.158  0.00  0.00    +0.193 C 
BRANCH  26  27
ATOM     27  O   LIG    1      -22.235  77.047  14.089  0.00  0.00    -0.495 OA
ATOM     28  H   LIG    1      -21.296  76.817  14.170  0.00  0.00    +0.293 HD
ENDBRANCH  26  27
BRANCH  26  29
ATOM     29  C   LIG    1      -22.758  75.284  15.629  0.00  0.00    +0.150 C 
BRANCH  29  30
ATOM     30  C   LIG    1      -23.466  74.282  14.762  0.00  0.00    +0.050 A 
ATOM     31  N   LIG    1      -24.819  74.220  14.868  0.00  0.00    -0.258 NA
ATOM     32  C   LIG    1      -25.459  73.319  14.080  0.00  0.00    +0.131 A 
ATOM     33  C   LIG    1      -24.811  72.467  13.199  0.00  0.00    +0.059 A 
ATOM     34 CL   LIG    1      -25.691  71.341  12.251  0.00  0.00    -0.082 Cl
ATOM     35  C   LIG    1      -23.428  72.545  13.103  0.00  0.00    +0.023 A 
ATOM     36  C   LIG    1      -22.744  73.469  13.890  0.00  0.00    +0.025 A 
ENDBRANCH  29  30
ENDBRANCH  26  29
ENDBRANCH  21  25
ENDBRANCH   1  19
TORSDOF 9
ENDMDL
MODEL 8
REMARK VINA RESULT:      -5.8     10.651     12.704
REMARK  Name = pdb/CHEMBL3937136.pdb
REMARK                            x       y       z     vdW  Elec       q    Type
REMARK                         _______ _______ _______ _____ _____    ______ ____
ROOT
ATOM      1  C   LIG    1      -34.086  71.554  29.305  0.00  0.00    +0.197 C 
ATOM      2  O   LIG    1      -34.263  71.087  30.440  0.00  0.00    -0.287 OA
ENDROOT
BRANCH   1  11
ATOM      3  N   LIG    1      -33.394  75.081  28.526  0.00  0.00    -0.336 N 
ATOM      4  C   LIG    1      -32.320  74.796  29.374  0.00  0.00    +0.089 A 
ATOM      5  C   LIG    1      -31.218  75.523  29.845  0.00  0.00    +0.165 A 
ATOM      6  F   LIG    1      -30.937  76.766  29.441  0.00  0.00    -0.202 F 
ATOM      7  C   LIG    1      -30.380  74.892  30.761  0.00  0.00    +0.151 A 
ATOM      8  N   LIG    1      -30.549  73.641  31.236  0.00  0.00    -0.260 NA
ATOM      9  C   LIG    1      -31.593  72.926  30.767  0.00  0.00    +0.121 A 
ATOM     10  C   LIG    1      -32.480  73.470  29.819  0.00  0.00    +0.032 A 
ATOM     11  C   LIG    1      -33.590  72.907  29.133  0.00  0.00    +0.049 A 
ATOM     12  C   LIG    1      -34.116  73.910  28.351  0.00  0.00    +0.099 A 
BRANCH   3  14
ATOM     13  C   LIG    1      -35.164  76.228  27.214  0.00  0.00    +0.036 C 
ATOM     14  C   LIG    1      -33.852  76.404  28.009  0.00  0.00    +0.063 C 
ATOM     15  C   LIG    1      -32.822  77.026  27.015  0.00  0.00    +0.036 C 
BRANCH  14  16
ATOM     16  C   LIG    1      -34.072  77.463  29.122  0.00  0.00    +0.183 C 
BRANCH  16  17
ATOM     17  O   LIG    1      -33.290  78.635  28.910  0.00  0.00    -0.393 OA
ATOM     18  H   LIG    1      -33.910  79.382  28.828  0.00  0.00    +0.209 HD
ENDBRANCH  16  17
ENDBRANCH  14  16
ENDBRANCH   3  14
ENDBRANCH   1  11
BRANCH   1  19
ATOM     19  C   LIG    1      -34.403  70.692  28.154  0.00  0.00    +0.042 A 
ATOM     20  C   LIG    1      -35.681  70.795  27.605  0.00  0.00    +0.042 A 
ATOM     21  C   LIG    1      -36.084  69.990  26.543  0.00  0.00    +0.086 A 
ATOM     22  C   LIG    1      -35.129  69.093  26.068  0.00  0.00    +0.138 A 
ATOM     23  N   LIG    1      -33.872  68.946  26.577  0.00  0.00    -0.260 NA
ATOM     24  C   LIG    1      -33.540  69.750  27.618  0.00  0.00    +0.122 A 
BRANCH  21  25
ATOM     25  N   LIG    1      -37.329  70.117  25.893  0.00  0.00    -0.216 NA
ATOM     26  C   LIG    1      -37.453  70.781  24.787  0.00  0.00    +0.193 C 
BRANCH  26  27
ATOM     27  O   LIG    1      -36.447  71.490  24.232  0.00  0.00    -0.495 OA
ATOM     28  H   LIG    1      -36.732  72.097  23.532  0.00  0.00    +0.293 HD
ENDBRANCH  26  27
BRANCH  26  29
ATOM     29  C   LIG    1      -38.758  70.875  24.046  0.00  0.00    +0.150 C 
BRANCH  29  30
ATOM     30  C   LIG    1      -39.338  72.261  24.097  0.00  0.00    +0.050 A 
ATOM     31  N   LIG    1      -38.557  73.237  24.628  0.00  0.00    -0.258 NA
ATOM     32  C   LIG    1      -39.078  74.490  24.669  0.00  0.00    +0.131 A 
ATOM     33  C   LIG    1      -40.347  74.812  24.215  0.00  0.00    +0.059 A 
ATOM     34 CL   LIG    1      -40.942  76.418  24.319  0.00  0.00    -0.082 Cl
ATOM     35  C   LIG    1      -41.131  73.802  23.673  0.00  0.00    +0.023 A 
ATOM     36  C   LIG    1      -40.619  72.508  23.607  0.00  0.00    +0.025 A 
ENDBRANCH  29  30
ENDBRANCH  26  29
ENDBRANCH  21  25
ENDBRANCH   1  19
TORSDOF 9
ENDMDL
MODEL 9
REMARK VINA RESULT:      -5.7     13.333     17.417
REMARK  Name = pdb/CHEMBL3937136.pdb
REMARK                            x       y       z     vdW  Elec       q    Type
REMARK                         _______ _______ _______ _____ _____    ______ ____
ROOT
ATOM      1  C   LIG    1      -39.605  72.423  25.198  0.00  0.00    +0.197 C 
ATOM      2  O   LIG    1      -40.047  72.144  26.323  0.00  0.00    -0.287 OA
ENDROOT
BRANCH   1  11
ATOM      3  N   LIG    1      -38.445  69.653  23.076  0.00  0.00    -0.336 N 
ATOM      4  C   LIG    1      -39.689  69.911  22.494  0.00  0.00    +0.089 A 
ATOM      5  C   LIG    1      -40.396  69.379  21.406  0.00  0.00    +0.165 A 
ATOM      6  F   LIG    1      -39.886  68.455  20.586  0.00  0.00    -0.202 F 
ATOM      7  C   LIG    1      -41.680  69.868  21.178  0.00  0.00    +0.151 A 
ATOM      8  N   LIG    1      -42.299  70.805  21.925  0.00  0.00    -0.260 NA
ATOM      9  C   LIG    1      -41.615  71.340  22.957  0.00  0.00    +0.121 A 
ATOM     10  C   LIG    1      -40.301  70.928  23.250  0.00  0.00    +0.032 A 
ATOM     11  C   LIG    1      -39.365  71.378  24.220  0.00  0.00    +0.049 A 
ATOM     12  C   LIG    1      -38.247  70.587  24.081  0.00  0.00    +0.099 A 
BRANCH   3  14
ATOM     13  C   LIG    1      -36.965  68.564  21.404  0.00  0.00    +0.036 C 
ATOM     14  C   LIG    1      -37.524  68.502  22.843  0.00  0.00    +0.063 C 
ATOM     15  C   LIG    1      -38.265  67.133  22.962  0.00  0.00    +0.036 C 
BRANCH  14  16
ATOM     16  C   LIG    1      -36.340  68.440  23.844  0.00  0.00    +0.183 C 
BRANCH  16  17
ATOM     17  O   LIG    1      -35.090  68.250  23.188  0.00  0.00    -0.393 OA
ATOM     18  H   LIG    1      -34.409  68.189  23.882  0.00  0.00    +0.209 HD
ENDBRANCH  16  17
ENDBRANCH  14  16
ENDBRANCH   3  14
ENDBRANCH   1  11
BRANCH   1  19
ATOM     19  C   LIG    1      -39.330  73.839  24.904  0.00  0.00    +0.042 A 
ATOM     20  C   LIG    1      -38.161  74.391  25.430  0.00  0.00    +0.042 A 
ATOM     21  C   LIG    1      -37.840  75.732  25.239  0.00  0.00    +0.086 A 
ATOM     22  C   LIG    1      -38.753  76.471  24.488  0.00  0.00    +0.138 A 
ATOM     23  N   LIG    1      -39.912  75.982  23.963  0.00  0.00    -0.260 NA
ATOM     24  C   LIG    1      -40.177  74.672  24.190  0.00  0.00    +0.122 A 
BRANCH  21  25
ATOM     25  N   LIG    1      -36.631  76.316  25.669  0.00  0.00    -0.216 NA
ATOM     26  C   LIG    1      -36.316  76.378  26.925  0.00  0.00    +0.193 C 
BRANCH  26  27
ATOM     27  O   LIG    1      -37.151  76.000  27.917  0.00  0.00    -0.495 OA
ATOM     28  H   LIG    1      -38.000  76.468  27.915  0.00  0.00    +0.293 HD
ENDBRANCH  26  27
BRANCH  26  29
ATOM     29  C   LIG    1      -35.004  76.938  27.401  0.00  0.00    +0.150 C 
BRANCH  29  30
ATOM     30  C   LIG    1      -34.130  75.884  28.019  0.00  0.00    +0.050 A 
ATOM     31  N   LIG    1      -34.522  74.592  27.867  0.00  0.00    -0.258 NA
ATOM     32  C   LIG    1      -33.730  73.638  28.420  0.00  0.00    +0.131 A 
ATOM     33  C   LIG    1      -32.571  73.914  29.128  0.00  0.00    +0.059 A 
ATOM     34 CL   LIG    1      -31.634  72.652  29.814  0.00  0.00    -0.082 Cl
ATOM     35  C   LIG    1      -32.185  75.240  29.272  0.00  0.00    +0.023 A 
ATOM     36  C   LIG    1      -32.972  76.240  28.705  0.00  0.00    +0.025 A 
ENDBRANCH  29  30
ENDBRANCH  26  29
ENDBRANCH  21  25
ENDBRANCH   1  19
TORSDOF 9
ENDMDL
