MODEL 1
REMARK VINA RESULT:      -6.2      0.000      0.000
REMARK  Name = pdb/CHEMBL3671405.pdb
REMARK                            x       y       z     vdW  Elec       q    Type
REMARK                         _______ _______ _______ _____ _____    ______ ____
ROOT
ATOM      1  C   LIG    1      -33.766  72.104  29.435  0.00  0.00    +0.197 C 
ATOM      2  O   LIG    1      -33.862  71.585  30.552  0.00  0.00    -0.287 OA
ENDROOT
BRANCH   1  10
ATOM      3  N   LIG    1      -33.275  75.641  28.537  0.00  0.00    -0.326 N 
ATOM      4  C   LIG    1      -32.203  75.468  29.387  0.00  0.00    +0.147 A 
ATOM      5  N   LIG    1      -31.304  76.405  29.726  0.00  0.00    -0.197 NA
ATOM      6  C   LIG    1      -30.378  75.983  30.586  0.00  0.00    +0.214 A 
ATOM      7  N   LIG    1      -30.305  74.764  31.135  0.00  0.00    -0.222 NA
ATOM      8  C   LIG    1      -31.216  73.830  30.769  0.00  0.00    +0.126 A 
ATOM      9  C   LIG    1      -32.217  74.158  29.856  0.00  0.00    +0.048 A 
ATOM     10  C   LIG    1      -33.324  73.489  29.257  0.00  0.00    +0.051 A 
ATOM     11  C   LIG    1      -33.914  74.423  28.412  0.00  0.00    +0.100 A 
BRANCH   3  13
ATOM     12  C   LIG    1      -35.032  76.668  27.097  0.00  0.00    +0.034 C 
ATOM     13  C   LIG    1      -33.689  76.883  27.839  0.00  0.00    +0.039 C 
ATOM     14  C   LIG    1      -33.917  78.082  28.787  0.00  0.00    +0.034 C 
ATOM     15  C   LIG    1      -32.617  77.288  26.809  0.00  0.00    +0.034 C 
ENDBRANCH   3  13
BRANCH   6  16
ATOM     16  N   LIG    1      -29.444  76.911  31.008  0.00  0.00    -0.327 N 
ATOM     17  H   LIG    1      -29.805  77.842  30.860  0.00  0.00    +0.145 HD
ATOM     18  H   LIG    1      -29.152  76.674  31.947  0.00  0.00    +0.145 HD
ENDBRANCH   6  16
ENDBRANCH   1  10
BRANCH   1  19
ATOM     19  C   LIG    1      -34.089  71.289  28.233  0.00  0.00    +0.042 A 
ATOM     20  C   LIG    1      -35.112  71.657  27.346  0.00  0.00    +0.038 A 
ATOM     21  C   LIG    1      -35.432  70.824  26.264  0.00  0.00    +0.052 A 
ATOM     22  C   LIG    1      -34.713  69.635  26.145  0.00  0.00    +0.134 A 
ATOM     23  N   LIG    1      -33.681  69.280  26.952  0.00  0.00    -0.261 NA
ATOM     24  C   LIG    1      -33.373  70.130  27.952  0.00  0.00    +0.122 A 
BRANCH  21  25
ATOM     25  N   LIG    1      -36.449  71.233  25.366  0.00  0.00    -0.284 N 
ATOM     26  H   LIG    1      -36.152  71.512  24.437  0.00  0.00    +0.155 HD
ATOM     27  C   LIG    1      -37.816  71.190  25.603  0.00  0.00    +0.223 C 
ATOM     28  O   LIG    1      -38.351  70.802  26.640  0.00  0.00    -0.275 OA
BRANCH  27  29
ATOM     29  C   LIG    1      -38.662  71.676  24.445  0.00  0.00    +0.151 C 
BRANCH  29  30
ATOM     30  C   LIG    1      -38.875  73.166  24.460  0.00  0.00    +0.050 A 
ATOM     31  N   LIG    1      -37.873  73.913  24.987  0.00  0.00    -0.258 NA
ATOM     32  C   LIG    1      -38.076  75.251  25.082  0.00  0.00    +0.126 A 
ATOM     33  C   LIG    1      -39.233  75.887  24.665  0.00  0.00    +0.036 A 
ATOM     34 BR   LIG    1      -39.439  77.751  24.857  0.00  0.00    -0.049 Br
ATOM     35  C   LIG    1      -40.245  75.114  24.109  0.00  0.00    +0.018 A 
ATOM     36  C   LIG    1      -40.067  73.734  24.007  0.00  0.00    +0.025 A 
ENDBRANCH  29  30
ENDBRANCH  27  29
ENDBRANCH  21  25
ENDBRANCH   1  19
TORSDOF 7
ENDMDL
MODEL 2
REMARK VINA RESULT:      -6.2      3.105      8.552
REMARK  Name = pdb/CHEMBL3671405.pdb
REMARK                            x       y       z     vdW  Elec       q    Type
REMARK                         _______ _______ _______ _____ _____    ______ ____
ROOT
ATOM      1  C   LIG    1      -39.655  72.859  25.321  0.00  0.00    +0.197 C 
ATOM      2  O   LIG    1      -40.692  72.735  25.980  0.00  0.00    -0.287 OA
ENDROOT
BRANCH   1  10
ATOM      3  N   LIG    1      -38.472  69.952  23.393  0.00  0.00    -0.326 N 
ATOM      4  C   LIG    1      -37.445  70.057  24.308  0.00  0.00    +0.147 A 
ATOM      5  N   LIG    1      -36.362  69.266  24.373  0.00  0.00    -0.197 NA
ATOM      6  C   LIG    1      -35.507  69.597  25.340  0.00  0.00    +0.214 A 
ATOM      7  N   LIG    1      -35.627  70.629  26.184  0.00  0.00    -0.222 NA
ATOM      8  C   LIG    1      -36.735  71.405  26.109  0.00  0.00    +0.126 A 
ATOM      9  C   LIG    1      -37.707  71.134  25.147  0.00  0.00    +0.048 A 
ATOM     10  C   LIG    1      -38.953  71.705  24.753  0.00  0.00    +0.051 A 
ATOM     11  C   LIG    1      -39.413  70.913  23.706  0.00  0.00    +0.100 A 
BRANCH   3  13
ATOM     12  C   LIG    1      -39.864  69.286  21.435  0.00  0.00    +0.034 C 
ATOM     13  C   LIG    1      -38.599  68.983  22.277  0.00  0.00    +0.039 C 
ATOM     14  C   LIG    1      -37.413  69.019  21.286  0.00  0.00    +0.034 C 
ATOM     15  C   LIG    1      -38.710  67.552  22.835  0.00  0.00    +0.034 C 
ENDBRANCH   3  13
BRANCH   6  16
ATOM     16  N   LIG    1      -34.348  68.847  25.437  0.00  0.00    -0.327 N 
ATOM     17  H   LIG    1      -34.290  68.217  24.650  0.00  0.00    +0.145 HD
ATOM     18  H   LIG    1      -33.568  69.473  25.583  0.00  0.00    +0.145 HD
ENDBRANCH   6  16
ENDBRANCH   1  10
BRANCH   1  19
ATOM     19  C   LIG    1      -39.112  74.223  25.080  0.00  0.00    +0.042 A 
ATOM     20  C   LIG    1      -37.902  74.647  25.649  0.00  0.00    +0.038 A 
ATOM     21  C   LIG    1      -37.462  75.965  25.456  0.00  0.00    +0.052 A 
ATOM     22  C   LIG    1      -38.288  76.805  24.709  0.00  0.00    +0.134 A 
ATOM     23  N   LIG    1      -39.433  76.409  24.099  0.00  0.00    -0.261 NA
ATOM     24  C   LIG    1      -39.798  75.123  24.271  0.00  0.00    +0.122 A 
BRANCH  21  25
ATOM     25  N   LIG    1      -36.222  76.359  26.016  0.00  0.00    -0.284 N 
ATOM     26  H   LIG    1      -35.430  76.408  25.383  0.00  0.00    +0.155 HD
ATOM     27  C   LIG    1      -36.010  76.780  27.321  0.00  0.00    +0.223 C 
ATOM     28  O   LIG    1      -36.871  76.862  28.195  0.00  0.00    -0.275 OA
BRANCH  27  29
ATOM     29  C   LIG    1      -34.577  77.158  27.627  0.00  0.00    +0.151 C 
BRANCH  29  30
ATOM     30  C   LIG    1      -33.764  76.002  28.144  0.00  0.00    +0.050 A 
ATOM     31  N   LIG    1      -34.224  74.760  27.847  0.00  0.00    -0.258 NA
ATOM     32  C   LIG    1      -33.551  73.705  28.368  0.00  0.00    +0.126 A 
ATOM     33  C   LIG    1      -32.427  73.825  29.168  0.00  0.00    +0.036 A 
ATOM     34 BR   LIG    1      -31.568  72.300  29.869  0.00  0.00    -0.049 Br
ATOM     35  C   LIG    1      -31.953  75.099  29.449  0.00  0.00    +0.018 A 
ATOM     36  C   LIG    1      -32.631  76.205  28.934  0.00  0.00    +0.025 A 
ENDBRANCH  29  30
ENDBRANCH  27  29
ENDBRANCH  21  25
ENDBRANCH   1  19
TORSDOF 7
ENDMDL
MODEL 3
REMARK VINA RESULT:      -6.1      3.812      5.773
REMARK  Name = pdb/CHEMBL3671405.pdb
REMARK                            x       y       z     vdW  Elec       q    Type
REMARK                         _______ _______ _______ _____ _____    ______ ____
ROOT
ATOM      1  C   LIG    1      -34.984  72.489  29.004  0.00  0.00    +0.197 C 
ATOM      2  O   LIG    1      -35.380  72.233  30.145  0.00  0.00    -0.287 OA
ENDROOT
BRANCH   1  10
ATOM      3  N   LIG    1      -34.038  75.920  28.057  0.00  0.00    -0.326 N 
ATOM      4  C   LIG    1      -35.299  75.865  27.498  0.00  0.00    +0.147 A 
ATOM      5  N   LIG    1      -35.902  76.849  26.814  0.00  0.00    -0.197 NA
ATOM      6  C   LIG    1      -37.113  76.529  26.359  0.00  0.00    +0.214 A 
ATOM      7  N   LIG    1      -37.724  75.346  26.498  0.00  0.00    -0.222 NA
ATOM      8  C   LIG    1      -37.101  74.372  27.204  0.00  0.00    +0.126 A 
ATOM      9  C   LIG    1      -35.838  74.607  27.746  0.00  0.00    +0.048 A 
ATOM     10  C   LIG    1      -34.887  73.863  28.504  0.00  0.00    +0.051 A 
ATOM     11  C   LIG    1      -33.819  74.728  28.719  0.00  0.00    +0.100 A 
BRANCH   3  13
ATOM     12  C   LIG    1      -31.799  76.704  28.825  0.00  0.00    +0.034 C 
ATOM     13  C   LIG    1      -33.071  77.044  28.006  0.00  0.00    +0.039 C 
ATOM     14  C   LIG    1      -32.579  77.376  26.579  0.00  0.00    +0.034 C 
ATOM     15  C   LIG    1      -33.711  78.314  28.596  0.00  0.00    +0.034 C 
ENDBRANCH   3  13
BRANCH   6  16
ATOM     16  N   LIG    1      -37.775  77.485  25.610  0.00  0.00    -0.327 N 
ATOM     17  H   LIG    1      -37.321  78.379  25.730  0.00  0.00    +0.145 HD
ATOM     18  H   LIG    1      -37.876  77.143  24.664  0.00  0.00    +0.145 HD
ENDBRANCH   6  16
ENDBRANCH   1  10
BRANCH   1  19
ATOM     19  C   LIG    1      -34.575  71.369  28.115  0.00  0.00    +0.042 A 
ATOM     20  C   LIG    1      -35.196  71.143  26.877  0.00  0.00    +0.038 A 
ATOM     21  C   LIG    1      -34.829  70.033  26.102  0.00  0.00    +0.052 A 
ATOM     22  C   LIG    1      -33.860  69.183  26.633  0.00  0.00    +0.134 A 
ATOM     23  N   LIG    1      -33.201  69.405  27.798  0.00  0.00    -0.261 NA
ATOM     24  C   LIG    1      -33.549  70.508  28.491  0.00  0.00    +0.122 A 
BRANCH  21  25
ATOM     25  N   LIG    1      -35.450  69.846  24.843  0.00  0.00    -0.284 N 
ATOM     26  H   LIG    1      -34.926  70.143  24.026  0.00  0.00    +0.155 HD
ATOM     27  C   LIG    1      -36.659  69.203  24.614  0.00  0.00    +0.223 C 
ATOM     28  O   LIG    1      -37.382  68.709  25.478  0.00  0.00    -0.275 OA
BRANCH  27  29
ATOM     29  C   LIG    1      -37.061  69.136  23.156  0.00  0.00    +0.151 C 
BRANCH  29  30
ATOM     30  C   LIG    1      -36.340  68.053  22.399  0.00  0.00    +0.050 A 
ATOM     31  N   LIG    1      -35.050  67.825  22.753  0.00  0.00    -0.258 NA
ATOM     32  C   LIG    1      -34.358  66.908  22.032  0.00  0.00    +0.126 A 
ATOM     33  C   LIG    1      -34.895  66.194  20.975  0.00  0.00    +0.036 A 
ATOM     34 BR   LIG    1      -33.851  64.954  20.012  0.00  0.00    -0.049 Br
ATOM     35  C   LIG    1      -36.222  66.421  20.633  0.00  0.00    +0.018 A 
ATOM     36  C   LIG    1      -36.956  67.365  21.351  0.00  0.00    +0.025 A 
ENDBRANCH  29  30
ENDBRANCH  27  29
ENDBRANCH  21  25
ENDBRANCH   1  19
TORSDOF 7
ENDMDL
MODEL 4
REMARK VINA RESULT:      -6.0      2.943      8.377
REMARK  Name = pdb/CHEMBL3671405.pdb
REMARK                            x       y       z     vdW  Elec       q    Type
REMARK                         _______ _______ _______ _____ _____    ______ ____
ROOT
ATOM      1  C   LIG    1      -39.270  71.474  24.255  0.00  0.00    +0.197 C 
ATOM      2  O   LIG    1      -40.314  70.971  23.830  0.00  0.00    -0.287 OA
ENDROOT
BRANCH   1  10
ATOM      3  N   LIG    1      -36.469  69.717  25.880  0.00  0.00    -0.326 N 
ATOM      4  C   LIG    1      -36.348  69.214  24.601  0.00  0.00    +0.147 A 
ATOM      5  N   LIG    1      -35.430  68.327  24.186  0.00  0.00    -0.197 NA
ATOM      6  C   LIG    1      -35.547  67.986  22.904  0.00  0.00    +0.214 A 
ATOM      7  N   LIG    1      -36.488  68.415  22.053  0.00  0.00    -0.222 NA
ATOM      8  C   LIG    1      -37.396  69.320  22.491  0.00  0.00    +0.126 A 
ATOM      9  C   LIG    1      -37.351  69.764  23.811  0.00  0.00    +0.048 A 
ATOM     10  C   LIG    1      -38.108  70.659  24.623  0.00  0.00    +0.051 A 
ATOM     11  C   LIG    1      -37.497  70.640  25.872  0.00  0.00    +0.100 A 
BRANCH   3  13
ATOM     12  C   LIG    1      -36.135  70.180  28.307  0.00  0.00    +0.034 C 
ATOM     13  C   LIG    1      -35.650  69.381  27.070  0.00  0.00    +0.039 C 
ATOM     14  C   LIG    1      -35.724  67.891  27.474  0.00  0.00    +0.034 C 
ATOM     15  C   LIG    1      -34.174  69.730  26.806  0.00  0.00    +0.034 C 
ENDBRANCH   3  13
BRANCH   6  16
ATOM     16  N   LIG    1      -34.657  67.043  22.420  0.00  0.00    -0.327 N 
ATOM     17  H   LIG    1      -34.284  66.509  23.192  0.00  0.00    +0.145 HD
ATOM     18  H   LIG    1      -35.104  66.526  21.676  0.00  0.00    +0.145 HD
ENDBRANCH   6  16
ENDBRANCH   1  10
BRANCH   1  19
ATOM     19  C   LIG    1      -39.180  72.954  24.379  0.00  0.00    +0.042 A 
ATOM     20  C   LIG    1      -38.060  73.581  24.945  0.00  0.00    +0.038 A 
ATOM     21  C   LIG    1      -38.047  74.974  25.108  0.00  0.00    +0.052 A 
ATOM     22  C   LIG    1      -39.188  75.669  24.710  0.00  0.00    +0.134 A 
ATOM     23  N   LIG    1      -40.262  75.098  24.107  0.00  0.00    -0.261 NA
ATOM     24  C   LIG    1      -40.216  73.764  23.926  0.00  0.00    +0.122 A 
BRANCH  21  25
ATOM     25  N   LIG    1      -36.891  75.585  25.654  0.00  0.00    -0.284 N 
ATOM     26  H   LIG    1      -36.182  75.892  24.996  0.00  0.00    +0.155 HD
ATOM     27  C   LIG    1      -36.684  75.895  26.991  0.00  0.00    +0.223 C 
ATOM     28  O   LIG    1      -37.472  75.672  27.908  0.00  0.00    -0.275 OA
BRANCH  27  29
ATOM     29  C   LIG    1      -35.357  76.566  27.274  0.00  0.00    +0.151 C 
BRANCH  29  30
ATOM     30  C   LIG    1      -34.383  75.662  27.983  0.00  0.00    +0.050 A 
ATOM     31  N   LIG    1      -33.367  76.271  28.644  0.00  0.00    -0.258 NA
ATOM     32  C   LIG    1      -32.434  75.475  29.223  0.00  0.00    +0.126 A 
ATOM     33  C   LIG    1      -32.471  74.091  29.186  0.00  0.00    +0.036 A 
ATOM     34 BR   LIG    1      -31.118  73.062  30.001  0.00  0.00    -0.049 Br
ATOM     35  C   LIG    1      -33.527  73.478  28.524  0.00  0.00    +0.018 A 
ATOM     36  C   LIG    1      -34.496  74.273  27.910  0.00  0.00    +0.025 A 
ENDBRANCH  29  30
ENDBRANCH  27  29
ENDBRANCH  21  25
ENDBRANCH   1  19
TORSDOF 7
ENDMDL
MODEL 5
REMARK VINA RESULT:      -6.0     16.458     18.449
REMARK  Name = pdb/CHEMBL3671405.pdb
REMARK                            x       y       z     vdW  Elec       q    Type
REMARK                         _______ _______ _______ _____ _____    ______ ____
ROOT
ATOM      1  C   LIG    1      -19.373  75.712  15.375  0.00  0.00    +0.197 C 
ATOM      2  O   LIG    1      -18.855  75.346  14.315  0.00  0.00    -0.287 OA
ENDROOT
BRANCH   1  10
ATOM      3  N   LIG    1      -21.202  73.293  17.464  0.00  0.00    -0.326 N 
ATOM      4  C   LIG    1      -20.018  73.359  18.169  0.00  0.00    +0.147 A 
ATOM      5  N   LIG    1      -19.725  72.675  19.286  0.00  0.00    -0.197 NA
ATOM      6  C   LIG    1      -18.499  72.903  19.756  0.00  0.00    +0.214 A 
ATOM      7  N   LIG    1      -17.574  73.696  19.201  0.00  0.00    -0.222 NA
ATOM      8  C   LIG    1      -17.896  74.386  18.081  0.00  0.00    +0.126 A 
ATOM      9  C   LIG    1      -19.162  74.240  17.516  0.00  0.00    +0.048 A 
ATOM     10  C   LIG    1      -19.849  74.758  16.379  0.00  0.00    +0.051 A 
ATOM     11  C   LIG    1      -21.118  74.190  16.417  0.00  0.00    +0.100 A 
BRANCH   3  13
ATOM     12  C   LIG    1      -22.088  70.963  17.440  0.00  0.00    +0.034 C 
ATOM     13  C   LIG    1      -22.387  72.450  17.757  0.00  0.00    +0.039 C 
ATOM     14  C   LIG    1      -22.825  72.487  19.239  0.00  0.00    +0.034 C 
ATOM     15  C   LIG    1      -23.580  72.906  16.896  0.00  0.00    +0.034 C 
ENDBRANCH   3  13
BRANCH   6  16
ATOM     16  N   LIG    1      -18.118  72.199  20.884  0.00  0.00    -0.327 N 
ATOM     17  H   LIG    1      -18.928  72.029  21.462  0.00  0.00    +0.145 HD
ATOM     18  H   LIG    1      -17.580  71.393  20.597  0.00  0.00    +0.145 HD
ENDBRANCH   6  16
ENDBRANCH   1  10
BRANCH   1  19
ATOM     19  C   LIG    1      -19.498  77.169  15.649  0.00  0.00    +0.042 A 
ATOM     20  C   LIG    1      -20.601  77.913  15.199  0.00  0.00    +0.038 A 
ATOM     21  C   LIG    1      -20.645  79.297  15.416  0.00  0.00    +0.052 A 
ATOM     22  C   LIG    1      -19.551  79.873  16.062  0.00  0.00    +0.134 A 
ATOM     23  N   LIG    1      -18.500  79.174  16.558  0.00  0.00    -0.261 NA
ATOM     24  C   LIG    1      -18.516  77.840  16.370  0.00  0.00    +0.122 A 
BRANCH  21  25
ATOM     25  N   LIG    1      -21.783  80.020  14.979  0.00  0.00    -0.284 N 
ATOM     26  H   LIG    1      -22.068  79.884  14.015  0.00  0.00    +0.155 HD
ATOM     27  C   LIG    1      -22.602  80.813  15.770  0.00  0.00    +0.223 C 
ATOM     28  O   LIG    1      -22.453  81.020  16.974  0.00  0.00    -0.275 OA
BRANCH  27  29
ATOM     29  C   LIG    1      -23.759  81.446  15.027  0.00  0.00    +0.151 C 
BRANCH  29  30
ATOM     30  C   LIG    1      -24.759  80.436  14.532  0.00  0.00    +0.050 A 
ATOM     31  N   LIG    1      -25.073  79.429  15.385  0.00  0.00    -0.258 NA
ATOM     32  C   LIG    1      -25.912  78.465  14.931  0.00  0.00    +0.126 A 
ATOM     33  C   LIG    1      -26.467  78.461  13.663  0.00  0.00    +0.036 A 
ATOM     34 BR   LIG    1      -27.607  77.066  13.107  0.00  0.00    -0.049 Br
ATOM     35  C   LIG    1      -26.155  79.507  12.804  0.00  0.00    +0.018 A 
ATOM     36  C   LIG    1      -25.287  80.508  13.241  0.00  0.00    +0.025 A 
ENDBRANCH  29  30
ENDBRANCH  27  29
ENDBRANCH  21  25
ENDBRANCH   1  19
TORSDOF 7
ENDMDL
MODEL 6
REMARK VINA RESULT:      -5.9      3.665      5.143
REMARK  Name = pdb/CHEMBL3671405.pdb
REMARK                            x       y       z     vdW  Elec       q    Type
REMARK                         _______ _______ _______ _____ _____    ______ ____
ROOT
ATOM      1  C   LIG    1      -34.131  73.034  29.026  0.00  0.00    +0.197 C 
ATOM      2  O   LIG    1      -33.738  73.061  30.196  0.00  0.00    -0.287 OA
ENDROOT
BRANCH   1  10
ATOM      3  N   LIG    1      -36.100  75.642  27.326  0.00  0.00    -0.326 N 
ATOM      4  C   LIG    1      -34.886  76.290  27.416  0.00  0.00    +0.147 A 
ATOM      5  N   LIG    1      -34.619  77.531  26.979  0.00  0.00    -0.197 NA
ATOM      6  C   LIG    1      -33.370  77.931  27.210  0.00  0.00    +0.214 A 
ATOM      7  N   LIG    1      -32.421  77.233  27.846  0.00  0.00    -0.222 NA
ATOM      8  C   LIG    1      -32.708  75.978  28.267  0.00  0.00    +0.126 A 
ATOM      9  C   LIG    1      -33.981  75.450  28.056  0.00  0.00    +0.048 A 
ATOM     10  C   LIG    1      -34.651  74.227  28.353  0.00  0.00    +0.051 A 
ATOM     11  C   LIG    1      -35.936  74.369  27.838  0.00  0.00    +0.100 A 
BRANCH   3  13
ATOM     12  C   LIG    1      -38.568  75.300  27.233  0.00  0.00    +0.034 C 
ATOM     13  C   LIG    1      -37.369  76.164  26.764  0.00  0.00    +0.039 C 
ATOM     14  C   LIG    1      -37.694  77.611  27.203  0.00  0.00    +0.034 C 
ATOM     15  C   LIG    1      -37.313  76.135  25.226  0.00  0.00    +0.034 C 
ENDBRANCH   3  13
BRANCH   6  16
ATOM     16  N   LIG    1      -33.039  79.216  26.821  0.00  0.00    -0.327 N 
ATOM     17  H   LIG    1      -33.135  79.840  27.609  0.00  0.00    +0.145 HD
ATOM     18  H   LIG    1      -32.140  79.194  26.358  0.00  0.00    +0.145 HD
ENDBRANCH   6  16
ENDBRANCH   1  10
BRANCH   1  19
ATOM     19  C   LIG    1      -34.053  71.756  28.269  0.00  0.00    +0.042 A 
ATOM     20  C   LIG    1      -34.748  71.568  27.064  0.00  0.00    +0.038 A 
ATOM     21  C   LIG    1      -34.706  70.324  26.419  0.00  0.00    +0.052 A 
ATOM     22  C   LIG    1      -33.977  69.312  27.042  0.00  0.00    +0.134 A 
ATOM     23  N   LIG    1      -33.249  69.479  28.175  0.00  0.00    -0.261 NA
ATOM     24  C   LIG    1      -33.277  70.702  28.739  0.00  0.00    +0.122 A 
BRANCH  21  25
ATOM     25  N   LIG    1      -35.391  70.170  25.188  0.00  0.00    -0.284 N 
ATOM     26  H   LIG    1      -34.901  70.471  24.352  0.00  0.00    +0.155 HD
ATOM     27  C   LIG    1      -36.622  69.555  25.009  0.00  0.00    +0.223 C 
ATOM     28  O   LIG    1      -37.312  69.060  25.898  0.00  0.00    -0.275 OA
BRANCH  27  29
ATOM     29  C   LIG    1      -37.096  69.521  23.571  0.00  0.00    +0.151 C 
BRANCH  29  30
ATOM     30  C   LIG    1      -36.414  68.456  22.755  0.00  0.00    +0.050 A 
ATOM     31  N   LIG    1      -35.224  68.004  23.226  0.00  0.00    -0.258 NA
ATOM     32  C   LIG    1      -34.556  67.101  22.466  0.00  0.00    +0.126 A 
ATOM     33  C   LIG    1      -35.022  66.614  21.257  0.00  0.00    +0.036 A 
ATOM     34 BR   LIG    1      -34.013  65.376  20.256  0.00  0.00    -0.049 Br
ATOM     35  C   LIG    1      -36.250  67.068  20.794  0.00  0.00    +0.018 A 
ATOM     36  C   LIG    1      -36.956  68.005  21.550  0.00  0.00    +0.025 A 
ENDBRANCH  29  30
ENDBRANCH  27  29
ENDBRANCH  21  25
ENDBRANCH   1  19
TORSDOF 7
ENDMDL
MODEL 7
REMARK VINA RESULT:      -5.8      5.187      8.418
REMARK  Name = pdb/CHEMBL3671405.pdb
REMARK                            x       y       z     vdW  Elec       q    Type
REMARK                         _______ _______ _______ _____ _____    ______ ____
ROOT
ATOM      1  C   LIG    1      -41.230  71.177  24.020  0.00  0.00    +0.197 C 
ATOM      2  O   LIG    1      -42.093  70.668  24.741  0.00  0.00    -0.287 OA
ENDROOT
BRANCH   1  10
ATOM      3  N   LIG    1      -41.063  74.856  23.958  0.00  0.00    -0.326 N 
ATOM      4  C   LIG    1      -39.823  74.577  24.495  0.00  0.00    +0.147 A 
ATOM      5  N   LIG    1      -38.901  75.480  24.863  0.00  0.00    -0.197 NA
ATOM      6  C   LIG    1      -37.794  74.946  25.376  0.00  0.00    +0.214 A 
ATOM      7  N   LIG    1      -37.562  73.642  25.574  0.00  0.00    -0.222 NA
ATOM      8  C   LIG    1      -38.502  72.748  25.183  0.00  0.00    +0.126 A 
ATOM      9  C   LIG    1      -39.691  73.197  24.611  0.00  0.00    +0.048 A 
ATOM     10  C   LIG    1      -40.883  72.598  24.107  0.00  0.00    +0.051 A 
ATOM     11  C   LIG    1      -41.676  73.653  23.667  0.00  0.00    +0.100 A 
BRANCH   3  13
ATOM     12  C   LIG    1      -40.599  77.156  23.114  0.00  0.00    +0.034 C 
ATOM     13  C   LIG    1      -41.661  76.188  23.697  0.00  0.00    +0.039 C 
ATOM     14  C   LIG    1      -42.816  76.160  22.670  0.00  0.00    +0.034 C 
ATOM     15  C   LIG    1      -42.204  76.786  25.008  0.00  0.00    +0.034 C 
ENDBRANCH   3  13
BRANCH   6  16
ATOM     16  N   LIG    1      -36.818  75.823  25.814  0.00  0.00    -0.327 N 
ATOM     17  H   LIG    1      -36.026  75.299  26.158  0.00  0.00    +0.145 HD
ATOM     18  H   LIG    1      -36.640  76.500  25.086  0.00  0.00    +0.145 HD
ENDBRANCH   6  16
ENDBRANCH   1  10
BRANCH   1  19
ATOM     19  C   LIG    1      -40.506  70.317  23.045  0.00  0.00    +0.042 A 
ATOM     20  C   LIG    1      -39.181  69.908  23.264  0.00  0.00    +0.038 A 
ATOM     21  C   LIG    1      -38.512  69.157  22.287  0.00  0.00    +0.052 A 
ATOM     22  C   LIG    1      -39.212  68.874  21.115  0.00  0.00    +0.134 A 
ATOM     23  N   LIG    1      -40.510  69.206  20.899  0.00  0.00    -0.261 NA
ATOM     24  C   LIG    1      -41.133  69.886  21.881  0.00  0.00    +0.122 A 
BRANCH  21  25
ATOM     25  N   LIG    1      -37.185  68.731  22.545  0.00  0.00    -0.284 N 
ATOM     26  H   LIG    1      -36.455  69.430  22.454  0.00  0.00    +0.155 HD
ATOM     27  C   LIG    1      -36.803  67.480  23.007  0.00  0.00    +0.223 C 
ATOM     28  O   LIG    1      -37.562  66.543  23.251  0.00  0.00    -0.275 OA
BRANCH  27  29
ATOM     29  C   LIG    1      -35.311  67.321  23.210  0.00  0.00    +0.151 C 
BRANCH  29  30
ATOM     30  C   LIG    1      -34.846  67.822  24.551  0.00  0.00    +0.050 A 
ATOM     31  N   LIG    1      -34.601  69.153  24.646  0.00  0.00    -0.258 NA
ATOM     32  C   LIG    1      -34.107  69.614  25.822  0.00  0.00    +0.126 A 
ATOM     33  C   LIG    1      -33.853  68.810  26.920  0.00  0.00    +0.036 A 
ATOM     34 BR   LIG    1      -33.143  69.534  28.509  0.00  0.00    -0.049 Br
ATOM     35  C   LIG    1      -34.126  67.452  26.819  0.00  0.00    +0.018 A 
ATOM     36  C   LIG    1      -34.626  66.948  25.618  0.00  0.00    +0.025 A 
ENDBRANCH  29  30
ENDBRANCH  27  29
ENDBRANCH  21  25
ENDBRANCH   1  19
TORSDOF 7
ENDMDL
MODEL 8
REMARK VINA RESULT:      -5.8     16.761     19.095
REMARK  Name = pdb/CHEMBL3671405.pdb
REMARK                            x       y       z     vdW  Elec       q    Type
REMARK                         _______ _______ _______ _____ _____    ______ ____
ROOT
ATOM      1  C   LIG    1      -19.941  77.601  14.271  0.00  0.00    +0.197 C 
ATOM      2  O   LIG    1      -19.751  77.194  13.121  0.00  0.00    -0.287 OA
ENDROOT
BRANCH   1  10
ATOM      3  N   LIG    1      -21.913  80.637  14.948  0.00  0.00    -0.326 N 
ATOM      4  C   LIG    1      -22.902  79.685  15.078  0.00  0.00    +0.147 A 
ATOM      5  N   LIG    1      -24.192  79.921  15.363  0.00  0.00    -0.197 NA
ATOM      6  C   LIG    1      -24.947  78.824  15.408  0.00  0.00    +0.214 A 
ATOM      7  N   LIG    1      -24.539  77.572  15.165  0.00  0.00    -0.222 NA
ATOM      8  C   LIG    1      -23.230  77.356  14.892  0.00  0.00    +0.126 A 
ATOM      9  C   LIG    1      -22.345  78.432  14.843  0.00  0.00    +0.048 A 
ATOM     10  C   LIG    1      -20.955  78.612  14.581  0.00  0.00    +0.051 A 
ATOM     11  C   LIG    1      -20.723  79.977  14.710  0.00  0.00    +0.100 A 
BRANCH   3  13
ATOM     12  C   LIG    1      -22.341  82.515  16.532  0.00  0.00    +0.034 C 
ATOM     13  C   LIG    1      -22.049  82.110  15.064  0.00  0.00    +0.039 C 
ATOM     14  C   LIG    1      -20.774  82.885  14.658  0.00  0.00    +0.034 C 
ATOM     15  C   LIG    1      -23.208  82.601  14.178  0.00  0.00    +0.034 C 
ENDBRANCH   3  13
BRANCH   6  16
ATOM     16  N   LIG    1      -26.296  78.999  15.657  0.00  0.00    -0.327 N 
ATOM     17  H   LIG    1      -26.737  78.097  15.767  0.00  0.00    +0.145 HD
ATOM     18  H   LIG    1      -26.403  79.659  16.416  0.00  0.00    +0.145 HD
ENDBRANCH   6  16
ENDBRANCH   1  10
BRANCH   1  19
ATOM     19  C   LIG    1      -19.128  77.032  15.379  0.00  0.00    +0.042 A 
ATOM     20  C   LIG    1      -19.469  75.820  15.998  0.00  0.00    +0.038 A 
ATOM     21  C   LIG    1      -18.718  75.354  17.087  0.00  0.00    +0.052 A 
ATOM     22  C   LIG    1      -17.662  76.157  17.517  0.00  0.00    +0.134 A 
ATOM     23  N   LIG    1      -17.272  77.304  16.904  0.00  0.00    -0.261 NA
ATOM     24  C   LIG    1      -17.991  77.693  15.833  0.00  0.00    +0.122 A 
BRANCH  21  25
ATOM     25  N   LIG    1      -19.065  74.113  17.675  0.00  0.00    -0.284 N 
ATOM     26  H   LIG    1      -19.540  73.442  17.078  0.00  0.00    +0.155 HD
ATOM     27  C   LIG    1      -18.729  73.690  18.952  0.00  0.00    +0.223 C 
ATOM     28  O   LIG    1      -18.086  74.339  19.776  0.00  0.00    -0.275 OA
BRANCH  27  29
ATOM     29  C   LIG    1      -19.223  72.301  19.298  0.00  0.00    +0.151 C 
BRANCH  29  30
ATOM     30  C   LIG    1      -20.597  72.017  18.753  0.00  0.00    +0.050 A 
ATOM     31  N   LIG    1      -20.653  71.442  17.525  0.00  0.00    -0.258 NA
ATOM     32  C   LIG    1      -21.880  71.249  16.982  0.00  0.00    +0.126 A 
ATOM     33  C   LIG    1      -23.065  71.593  17.611  0.00  0.00    +0.036 A 
ATOM     34 BR   LIG    1      -24.728  71.308  16.770  0.00  0.00    -0.049 Br
ATOM     35  C   LIG    1      -22.998  72.162  18.876  0.00  0.00    +0.018 A 
ATOM     36  C   LIG    1      -21.747  72.382  19.456  0.00  0.00    +0.025 A 
ENDBRANCH  29  30
ENDBRANCH  27  29
ENDBRANCH  21  25
ENDBRANCH   1  19
TORSDOF 7
ENDMDL
MODEL 9
REMARK VINA RESULT:      -5.8     17.104     19.287
REMARK  Name = pdb/CHEMBL3671405.pdb
REMARK                            x       y       z     vdW  Elec       q    Type
REMARK                         _______ _______ _______ _____ _____    ______ ____
ROOT
ATOM      1  C   LIG    1      -19.417  75.747  15.332  0.00  0.00    +0.197 C 
ATOM      2  O   LIG    1      -18.911  75.405  14.259  0.00  0.00    -0.287 OA
ENDROOT
BRANCH   1  10
ATOM      3  N   LIG    1      -21.233  73.265  17.359  0.00  0.00    -0.326 N 
ATOM      4  C   LIG    1      -20.060  73.342  18.082  0.00  0.00    +0.147 A 
ATOM      5  N   LIG    1      -19.772  72.649  19.194  0.00  0.00    -0.197 NA
ATOM      6  C   LIG    1      -18.558  72.892  19.686  0.00  0.00    +0.214 A 
ATOM      7  N   LIG    1      -17.639  73.709  19.156  0.00  0.00    -0.222 NA
ATOM      8  C   LIG    1      -17.957  74.409  18.041  0.00  0.00    +0.126 A 
ATOM      9  C   LIG    1      -19.212  74.249  17.455  0.00  0.00    +0.048 A 
ATOM     10  C   LIG    1      -19.891  74.770  16.315  0.00  0.00    +0.051 A 
ATOM     11  C   LIG    1      -21.150  74.178  16.326  0.00  0.00    +0.100 A 
BRANCH   3  13
ATOM     12  C   LIG    1      -23.581  72.771  16.681  0.00  0.00    +0.034 C 
ATOM     13  C   LIG    1      -22.406  72.397  17.621  0.00  0.00    +0.039 C 
ATOM     14  C   LIG    1      -22.134  70.895  17.380  0.00  0.00    +0.034 C 
ATOM     15  C   LIG    1      -22.870  72.569  19.080  0.00  0.00    +0.034 C 
ENDBRANCH   3  13
BRANCH   6  16
ATOM     16  N   LIG    1      -18.181  72.179  20.809  0.00  0.00    -0.327 N 
ATOM     17  H   LIG    1      -17.692  71.342  20.527  0.00  0.00    +0.145 HD
ATOM     18  H   LIG    1      -17.697  72.802  21.442  0.00  0.00    +0.145 HD
ENDBRANCH   6  16
ENDBRANCH   1  10
BRANCH   1  19
ATOM     19  C   LIG    1      -19.531  77.197  15.644  0.00  0.00    +0.042 A 
ATOM     20  C   LIG    1      -20.517  78.004  15.055  0.00  0.00    +0.038 A 
ATOM     21  C   LIG    1      -20.545  79.380  15.321  0.00  0.00    +0.052 A 
ATOM     22  C   LIG    1      -19.550  79.884  16.158  0.00  0.00    +0.134 A 
ATOM     23  N   LIG    1      -18.620  79.122  16.787  0.00  0.00    -0.261 NA
ATOM     24  C   LIG    1      -18.655  77.797  16.542  0.00  0.00    +0.122 A 
BRANCH  21  25
ATOM     25  N   LIG    1      -21.570  80.167  14.738  0.00  0.00    -0.284 N 
ATOM     26  H   LIG    1      -21.345  80.636  13.867  0.00  0.00    +0.155 HD
ATOM     27  C   LIG    1      -22.877  80.274  15.191  0.00  0.00    +0.223 C 
ATOM     28  O   LIG    1      -23.341  79.708  16.179  0.00  0.00    -0.275 OA
BRANCH  27  29
ATOM     29  C   LIG    1      -23.754  81.176  14.349  0.00  0.00    +0.151 C 
BRANCH  29  30
ATOM     30  C   LIG    1      -23.255  82.595  14.298  0.00  0.00    +0.050 A 
ATOM     31  N   LIG    1      -22.925  83.161  15.487  0.00  0.00    -0.258 NA
ATOM     32  C   LIG    1      -22.547  84.464  15.473  0.00  0.00    +0.126 A 
ATOM     33  C   LIG    1      -22.472  85.234  14.325  0.00  0.00    +0.036 A 
ATOM     34 BR   LIG    1      -21.959  87.046  14.404  0.00  0.00    -0.049 Br
ATOM     35  C   LIG    1      -22.793  84.639  13.112  0.00  0.00    +0.018 A 
ATOM     36  C   LIG    1      -23.194  83.302  13.096  0.00  0.00    +0.025 A 
ENDBRANCH  29  30
ENDBRANCH  27  29
ENDBRANCH  21  25
ENDBRANCH   1  19
TORSDOF 7
ENDMDL
