MODEL 1
REMARK VINA RESULT:      -5.5      0.000      0.000
REMARK  Name = pdb/CHEMBL3109645.pdb
REMARK                            x       y       z     vdW  Elec       q    Type
REMARK                         _______ _______ _______ _____ _____    ______ ____
ROOT
ATOM      1  N   LIG    1      -39.213  77.190  25.551  0.00  0.00    -0.278 N 
ATOM      2  C   LIG    1      -37.835  76.900  25.640  0.00  0.00    +0.307 C 
ATOM      3  N   LIG    1      -37.357  76.851  26.946  0.00  0.00    -0.269 N 
ATOM      4  H   LIG    1      -38.022  76.708  27.693  0.00  0.00    +0.156 HD
ATOM      5  O   LIG    1      -37.152  76.703  24.659  0.00  0.00    -0.252 OA
ENDROOT
BRANCH   3   6
ATOM      6  C   LIG    1      -36.022  76.777  27.382  0.00  0.00    +0.035 A 
ATOM      7  C   LIG    1      -35.440  77.942  27.893  0.00  0.00    +0.027 A 
ATOM      8  C   LIG    1      -34.105  77.962  28.311  0.00  0.00    +0.048 A 
ATOM      9  C   LIG    1      -33.340  76.803  28.219  0.00  0.00    +0.130 A 
ATOM     10  C   LIG    1      -33.923  75.643  27.702  0.00  0.00    +0.048 A 
ATOM     11  C   LIG    1      -35.256  75.620  27.288  0.00  0.00    +0.027 A 
BRANCH   9  12
ATOM     12  O   LIG    1      -32.016  76.674  28.490  0.00  0.00    -0.406 OA
BRANCH  12  13
ATOM     13  C   LIG    1      -31.561  75.949  29.617  0.00  0.00    +0.575 C 
ATOM     14  F   LIG    1      -32.477  76.055  30.606  0.00  0.00    -0.133 F 
ATOM     15  F   LIG    1      -30.412  76.515  30.051  0.00  0.00    -0.133 F 
ATOM     16  F   LIG    1      -31.322  74.643  29.388  0.00  0.00    -0.133 F 
ENDBRANCH  12  13
ENDBRANCH   9  12
ENDBRANCH   3   6
BRANCH   1  18
ATOM     17  C   LIG    1      -41.109  78.540  26.511  0.00  0.00    +0.028 C 
ATOM     18  C   LIG    1      -40.102  77.413  26.732  0.00  0.00    +0.072 C 
ATOM     19  C   LIG    1      -40.806  76.175  27.280  0.00  0.00    +0.028 C 
ENDBRANCH   1  18
BRANCH   1  20
ATOM     20  C   LIG    1      -39.759  77.283  24.187  0.00  0.00    +0.146 C 
BRANCH  20  21
ATOM     21  C   LIG    1      -40.608  76.106  23.775  0.00  0.00    -0.004 A 
ATOM     22  C   LIG    1      -40.336  74.693  23.923  0.00  0.00    +0.023 A 
ATOM     23  C   LIG    1      -39.272  73.889  24.380  0.00  0.00    +0.013 A 
ATOM     24  C   LIG    1      -39.416  72.498  24.319  0.00  0.00    +0.020 A 
ATOM     25  C   LIG    1      -40.607  71.962  23.852  0.00  0.00    +0.113 A 
ATOM     26  N   LIG    1      -41.674  72.677  23.439  0.00  0.00    -0.237 NA
ATOM     27  C   LIG    1      -41.469  74.006  23.492  0.00  0.00    +0.138 A 
ATOM     28  N   LIG    1      -42.400  74.925  23.110  0.00  0.00    -0.346 N 
ATOM     29  H   LIG    1      -43.315  74.670  22.774  0.00  0.00    +0.167 HD
ATOM     30  C   LIG    1      -41.898  76.190  23.263  0.00  0.00    +0.090 A 
ENDBRANCH  20  21
ENDBRANCH   1  20
TORSDOF 6
ENDMDL
MODEL 2
REMARK VINA RESULT:      -5.4     13.667     17.806
REMARK  Name = pdb/CHEMBL3109645.pdb
REMARK                            x       y       z     vdW  Elec       q    Type
REMARK                         _______ _______ _______ _____ _____    ______ ____
ROOT
ATOM      1  N   LIG    1      -21.377  77.420  32.250  0.00  0.00    -0.278 N 
ATOM      2  C   LIG    1      -21.673  78.145  33.424  0.00  0.00    +0.307 C 
ATOM      3  N   LIG    1      -20.740  79.134  33.720  0.00  0.00    -0.269 N 
ATOM      4  H   LIG    1      -20.145  79.468  32.975  0.00  0.00    +0.156 HD
ATOM      5  O   LIG    1      -22.658  77.920  34.090  0.00  0.00    -0.252 OA
ENDROOT
BRANCH   3   6
ATOM      6  C   LIG    1      -20.626  79.900  34.893  0.00  0.00    +0.035 A 
ATOM      7  C   LIG    1      -21.541  80.940  35.082  0.00  0.00    +0.027 A 
ATOM      8  C   LIG    1      -21.470  81.774  36.204  0.00  0.00    +0.048 A 
ATOM      9  C   LIG    1      -20.472  81.565  37.151  0.00  0.00    +0.130 A 
ATOM     10  C   LIG    1      -19.555  80.529  36.956  0.00  0.00    +0.048 A 
ATOM     11  C   LIG    1      -19.627  79.694  35.840  0.00  0.00    +0.027 A 
BRANCH   9  12
ATOM     12  O   LIG    1      -20.205  82.332  38.239  0.00  0.00    -0.406 OA
BRANCH  12  13
ATOM     13  C   LIG    1      -20.075  83.738  38.137  0.00  0.00    +0.575 C 
ATOM     14  F   LIG    1      -18.952  84.122  38.783  0.00  0.00    -0.133 F 
ATOM     15  F   LIG    1      -21.131  84.308  38.760  0.00  0.00    -0.133 F 
ATOM     16  F   LIG    1      -20.030  84.209  36.875  0.00  0.00    -0.133 F 
ENDBRANCH  12  13
ENDBRANCH   9  12
ENDBRANCH   3   6
BRANCH   1  18
ATOM     17  C   LIG    1      -18.921  76.998  31.889  0.00  0.00    +0.028 C 
ATOM     18  C   LIG    1      -20.190  77.678  31.379  0.00  0.00    +0.072 C 
ATOM     19  C   LIG    1      -20.379  77.396  29.892  0.00  0.00    +0.028 C 
ENDBRANCH   1  18
BRANCH   1  20
ATOM     20  C   LIG    1      -22.320  76.341  31.911  0.00  0.00    +0.146 C 
BRANCH  20  21
ATOM     21  C   LIG    1      -23.660  76.820  31.409  0.00  0.00    -0.004 A 
ATOM     22  C   LIG    1      -24.971  76.626  31.989  0.00  0.00    +0.023 A 
ATOM     23  C   LIG    1      -25.521  75.933  33.085  0.00  0.00    +0.013 A 
ATOM     24  C   LIG    1      -26.908  75.987  33.277  0.00  0.00    +0.020 A 
ATOM     25  C   LIG    1      -27.680  76.747  32.412  0.00  0.00    +0.113 A 
ATOM     26  N   LIG    1      -27.208  77.464  31.371  0.00  0.00    -0.237 NA
ATOM     27  C   LIG    1      -25.875  77.351  31.217  0.00  0.00    +0.138 A 
ATOM     28  N   LIG    1      -25.180  77.974  30.224  0.00  0.00    -0.346 N 
ATOM     29  H   LIG    1      -25.617  78.574  29.542  0.00  0.00    +0.167 HD
ATOM     30  C   LIG    1      -23.850  77.658  30.316  0.00  0.00    +0.090 A 
ENDBRANCH  20  21
ENDBRANCH   1  20
TORSDOF 6
ENDMDL
MODEL 3
REMARK VINA RESULT:      -5.3     17.441     19.588
REMARK  Name = pdb/CHEMBL3109645.pdb
REMARK                            x       y       z     vdW  Elec       q    Type
REMARK                         _______ _______ _______ _____ _____    ______ ____
ROOT
ATOM      1  N   LIG    1      -25.554  78.870  12.988  0.00  0.00    -0.278 N 
ATOM      2  C   LIG    1      -26.637  78.998  12.093  0.00  0.00    +0.307 C 
ATOM      3  N   LIG    1      -27.774  78.299  12.488  0.00  0.00    -0.269 N 
ATOM      4  H   LIG    1      -27.861  78.040  13.460  0.00  0.00    +0.156 HD
ATOM      5  O   LIG    1      -26.567  79.669  11.087  0.00  0.00    -0.252 OA
ENDROOT
BRANCH   3   6
ATOM      6  C   LIG    1      -28.947  78.058  11.751  0.00  0.00    +0.035 A 
ATOM      7  C   LIG    1      -29.186  76.749  11.321  0.00  0.00    +0.027 A 
ATOM      8  C   LIG    1      -30.310  76.433  10.550  0.00  0.00    +0.048 A 
ATOM      9  C   LIG    1      -31.208  77.438  10.203  0.00  0.00    +0.130 A 
ATOM     10  C   LIG    1      -30.962  78.747  10.628  0.00  0.00    +0.048 A 
ATOM     11  C   LIG    1      -29.844  79.062  11.402  0.00  0.00    +0.027 A 
BRANCH   9  12
ATOM     12  O   LIG    1      -32.288  77.323   9.390  0.00  0.00    -0.406 OA
BRANCH  12  13
ATOM     13  C   LIG    1      -33.532  76.854   9.877  0.00  0.00    +0.575 C 
ATOM     14  F   LIG    1      -34.528  77.494   9.225  0.00  0.00    -0.133 F 
ATOM     15  F   LIG    1      -33.621  77.169  11.189  0.00  0.00    -0.133 F 
ATOM     16  F   LIG    1      -33.720  75.525   9.754  0.00  0.00    -0.133 F 
ENDBRANCH  12  13
ENDBRANCH   9  12
ENDBRANCH   3   6
BRANCH   1  18
ATOM     17  C   LIG    1      -24.315  77.292  14.510  0.00  0.00    +0.028 C 
ATOM     18  C   LIG    1      -25.599  78.078  14.255  0.00  0.00    +0.072 C 
ATOM     19  C   LIG    1      -26.006  78.848  15.509  0.00  0.00    +0.028 C 
ENDBRANCH   1  18
BRANCH   1  20
ATOM     20  C   LIG    1      -24.317  79.568  12.598  0.00  0.00    +0.146 C 
BRANCH  20  21
ATOM     21  C   LIG    1      -24.091  80.879  13.308  0.00  0.00    -0.004 A 
ATOM     22  C   LIG    1      -23.406  81.131  14.557  0.00  0.00    +0.023 A 
ATOM     23  C   LIG    1      -22.796  80.365  15.572  0.00  0.00    +0.013 A 
ATOM     24  C   LIG    1      -22.256  81.036  16.676  0.00  0.00    +0.020 A 
ATOM     25  C   LIG    1      -22.303  82.421  16.714  0.00  0.00    +0.113 A 
ATOM     26  N   LIG    1      -22.836  83.210  15.758  0.00  0.00    -0.237 NA
ATOM     27  C   LIG    1      -23.366  82.511  14.736  0.00  0.00    +0.138 A 
ATOM     28  N   LIG    1      -23.973  83.094  13.664  0.00  0.00    -0.346 N 
ATOM     29  H   LIG    1      -24.054  84.093  13.557  0.00  0.00    +0.167 HD
ATOM     30  C   LIG    1      -24.424  82.130  12.801  0.00  0.00    +0.090 A 
ENDBRANCH  20  21
ENDBRANCH   1  20
TORSDOF 6
ENDMDL
MODEL 4
REMARK VINA RESULT:      -5.2     19.574     21.193
REMARK  Name = pdb/CHEMBL3109645.pdb
REMARK                            x       y       z     vdW  Elec       q    Type
REMARK                         _______ _______ _______ _____ _____    ______ ____
ROOT
ATOM      1  N   LIG    1      -21.391  81.146  14.403  0.00  0.00    -0.278 N 
ATOM      2  C   LIG    1      -21.280  80.003  15.223  0.00  0.00    +0.307 C 
ATOM      3  N   LIG    1      -20.073  79.327  15.078  0.00  0.00    -0.269 N 
ATOM      4  H   LIG    1      -19.289  79.828  14.684  0.00  0.00    +0.156 HD
ATOM      5  O   LIG    1      -22.159  79.666  15.984  0.00  0.00    -0.252 OA
ENDROOT
BRANCH   3   6
ATOM      6  C   LIG    1      -19.713  78.068  15.590  0.00  0.00    +0.035 A 
ATOM      7  C   LIG    1      -18.734  78.028  16.589  0.00  0.00    +0.027 A 
ATOM      8  C   LIG    1      -18.292  76.812  17.123  0.00  0.00    +0.048 A 
ATOM      9  C   LIG    1      -18.834  75.620  16.653  0.00  0.00    +0.130 A 
ATOM     10  C   LIG    1      -19.806  75.663  15.650  0.00  0.00    +0.048 A 
ATOM     11  C   LIG    1      -20.252  76.875  15.120  0.00  0.00    +0.027 A 
BRANCH   9  12
ATOM     12  O   LIG    1      -18.455  74.361  16.991  0.00  0.00    -0.406 OA
BRANCH  12  13
ATOM     13  C   LIG    1      -18.861  73.771  18.213  0.00  0.00    +0.575 C 
ATOM     14  F   LIG    1      -18.340  72.527  18.293  0.00  0.00    -0.133 F 
ATOM     15  F   LIG    1      -20.209  73.659  18.202  0.00  0.00    -0.133 F 
ATOM     16  F   LIG    1      -18.507  74.460  19.315  0.00  0.00    -0.133 F 
ENDBRANCH  12  13
ENDBRANCH   9  12
ENDBRANCH   3   6
BRANCH   1  18
ATOM     17  C   LIG    1      -20.869  82.028  12.104  0.00  0.00    +0.028 C 
ATOM     18  C   LIG    1      -20.324  81.618  13.470  0.00  0.00    +0.072 C 
ATOM     19  C   LIG    1      -19.393  82.699  14.013  0.00  0.00    +0.028 C 
ENDBRANCH   1  18
BRANCH   1  20
ATOM     20  C   LIG    1      -22.666  81.879  14.500  0.00  0.00    +0.146 C 
BRANCH  20  21
ATOM     21  C   LIG    1      -22.575  83.190  15.239  0.00  0.00    -0.004 A 
ATOM     22  C   LIG    1      -22.444  84.528  14.705  0.00  0.00    +0.023 A 
ATOM     23  C   LIG    1      -22.283  85.121  13.436  0.00  0.00    +0.013 A 
ATOM     24  C   LIG    1      -22.160  86.515  13.365  0.00  0.00    +0.020 A 
ATOM     25  C   LIG    1      -22.239  87.260  14.531  0.00  0.00    +0.113 A 
ATOM     26  N   LIG    1      -22.431  86.755  15.768  0.00  0.00    -0.237 NA
ATOM     27  C   LIG    1      -22.513  85.411  15.779  0.00  0.00    +0.138 A 
ATOM     28  N   LIG    1      -22.691  84.681  16.916  0.00  0.00    -0.346 N 
ATOM     29  H   LIG    1      -22.787  85.100  17.828  0.00  0.00    +0.167 HD
ATOM     30  C   LIG    1      -22.720  83.345  16.613  0.00  0.00    +0.090 A 
ENDBRANCH  20  21
ENDBRANCH   1  20
TORSDOF 6
ENDMDL
MODEL 5
REMARK VINA RESULT:      -5.2      1.453      1.944
REMARK  Name = pdb/CHEMBL3109645.pdb
REMARK                            x       y       z     vdW  Elec       q    Type
REMARK                         _______ _______ _______ _____ _____    ______ ____
ROOT
ATOM      1  N   LIG    1      -40.355  77.302  24.941  0.00  0.00    -0.278 N 
ATOM      2  C   LIG    1      -38.979  77.078  25.158  0.00  0.00    +0.307 C 
ATOM      3  N   LIG    1      -38.596  77.202  26.490  0.00  0.00    -0.269 N 
ATOM      4  H   LIG    1      -39.309  77.122  27.201  0.00  0.00    +0.156 HD
ATOM      5  O   LIG    1      -38.221  76.793  24.258  0.00  0.00    -0.252 OA
ENDROOT
BRANCH   3   6
ATOM      6  C   LIG    1      -37.295  77.232  27.023  0.00  0.00    +0.035 A 
ATOM      7  C   LIG    1      -36.544  76.054  26.971  0.00  0.00    +0.027 A 
ATOM      8  C   LIG    1      -35.256  75.990  27.515  0.00  0.00    +0.048 A 
ATOM      9  C   LIG    1      -34.710  77.119  28.119  0.00  0.00    +0.130 A 
ATOM     10  C   LIG    1      -35.467  78.293  28.175  0.00  0.00    +0.048 A 
ATOM     11  C   LIG    1      -36.749  78.359  27.629  0.00  0.00    +0.027 A 
BRANCH   9  12
ATOM     12  O   LIG    1      -33.524  77.203  28.773  0.00  0.00    -0.406 OA
BRANCH  12  13
ATOM     13  C   LIG    1      -32.337  77.583  28.101  0.00  0.00    +0.575 C 
ATOM     14  F   LIG    1      -32.352  77.062  26.855  0.00  0.00    -0.133 F 
ATOM     15  F   LIG    1      -31.285  77.050  28.764  0.00  0.00    -0.133 F 
ATOM     16  F   LIG    1      -32.143  78.914  28.011  0.00  0.00    -0.133 F 
ENDBRANCH  12  13
ENDBRANCH   9  12
ENDBRANCH   3   6
BRANCH   1  18
ATOM     17  C   LIG    1      -42.336  78.704  25.610  0.00  0.00    +0.028 C 
ATOM     18  C   LIG    1      -41.335  77.627  26.022  0.00  0.00    +0.072 C 
ATOM     19  C   LIG    1      -42.062  76.438  26.643  0.00  0.00    +0.028 C 
ENDBRANCH   1  18
BRANCH   1  20
ATOM     20  C   LIG    1      -40.803  77.211  23.541  0.00  0.00    +0.146 C 
BRANCH  20  21
ATOM     21  C   LIG    1      -41.615  75.979  23.226  0.00  0.00    -0.004 A 
ATOM     22  C   LIG    1      -41.280  74.589  23.444  0.00  0.00    +0.023 A 
ATOM     23  C   LIG    1      -40.170  73.856  23.909  0.00  0.00    +0.013 A 
ATOM     24  C   LIG    1      -40.258  72.458  23.932  0.00  0.00    +0.020 A 
ATOM     25  C   LIG    1      -41.440  71.850  23.538  0.00  0.00    +0.113 A 
ATOM     26  N   LIG    1      -42.549  72.497  23.122  0.00  0.00    -0.237 NA
ATOM     27  C   LIG    1      -42.397  73.834  23.092  0.00  0.00    +0.138 A 
ATOM     28  N   LIG    1      -43.377  74.692  22.691  0.00  0.00    -0.346 N 
ATOM     29  H   LIG    1      -44.292  74.382  22.401  0.00  0.00    +0.167 HD
ATOM     30  C   LIG    1      -42.923  75.983  22.754  0.00  0.00    +0.090 A 
ENDBRANCH  20  21
ENDBRANCH   1  20
TORSDOF 6
ENDMDL
MODEL 6
REMARK VINA RESULT:      -5.1      5.751      8.434
REMARK  Name = pdb/CHEMBL3109645.pdb
REMARK                            x       y       z     vdW  Elec       q    Type
REMARK                         _______ _______ _______ _____ _____    ______ ____
ROOT
ATOM      1  N   LIG    1      -37.021  69.179  25.173  0.00  0.00    -0.278 N 
ATOM      2  C   LIG    1      -37.053  70.567  24.922  0.00  0.00    +0.307 C 
ATOM      3  N   LIG    1      -38.274  71.162  25.224  0.00  0.00    -0.269 N 
ATOM      4  H   LIG    1      -38.897  70.679  25.857  0.00  0.00    +0.156 HD
ATOM      5  O   LIG    1      -36.093  71.169  24.495  0.00  0.00    -0.252 OA
ENDROOT
BRANCH   3   6
ATOM      6  C   LIG    1      -38.707  72.465  24.923  0.00  0.00    +0.035 A 
ATOM      7  C   LIG    1      -38.018  73.531  25.511  0.00  0.00    +0.027 A 
ATOM      8  C   LIG    1      -38.411  74.857  25.294  0.00  0.00    +0.048 A 
ATOM      9  C   LIG    1      -39.506  75.122  24.477  0.00  0.00    +0.130 A 
ATOM     10  C   LIG    1      -40.196  74.054  23.896  0.00  0.00    +0.048 A 
ATOM     11  C   LIG    1      -39.803  72.732  24.108  0.00  0.00    +0.027 A 
BRANCH   9  12
ATOM     12  O   LIG    1      -40.072  76.332  24.238  0.00  0.00    -0.406 OA
BRANCH  12  13
ATOM     13  C   LIG    1      -39.282  77.484  24.005  0.00  0.00    +0.575 C 
ATOM     14  F   LIG    1      -39.130  78.153  25.169  0.00  0.00    -0.133 F 
ATOM     15  F   LIG    1      -39.947  78.288  23.144  0.00  0.00    -0.133 F 
ATOM     16  F   LIG    1      -38.063  77.235  23.488  0.00  0.00    -0.133 F 
ENDBRANCH  12  13
ENDBRANCH   9  12
ENDBRANCH   3   6
BRANCH   1  18
ATOM     17  C   LIG    1      -39.214  68.051  24.667  0.00  0.00    +0.028 C 
ATOM     18  C   LIG    1      -38.169  68.398  25.725  0.00  0.00    +0.072 C 
ATOM     19  C   LIG    1      -37.804  67.157  26.535  0.00  0.00    +0.028 C 
ENDBRANCH   1  18
BRANCH   1  20
ATOM     20  C   LIG    1      -35.757  68.500  24.839  0.00  0.00    +0.146 C 
BRANCH  20  21
ATOM     21  C   LIG    1      -35.805  67.684  23.571  0.00  0.00    -0.004 A 
ATOM     22  C   LIG    1      -36.413  68.014  22.300  0.00  0.00    +0.023 A 
ATOM     23  C   LIG    1      -37.193  69.062  21.771  0.00  0.00    +0.013 A 
ATOM     24  C   LIG    1      -37.617  68.968  20.439  0.00  0.00    +0.020 A 
ATOM     25  C   LIG    1      -37.224  67.875  19.681  0.00  0.00    +0.113 A 
ATOM     26  N   LIG    1      -36.447  66.862  20.118  0.00  0.00    -0.237 NA
ATOM     27  C   LIG    1      -36.094  66.991  21.411  0.00  0.00    +0.138 A 
ATOM     28  N   LIG    1      -35.324  66.081  22.072  0.00  0.00    -0.346 N 
ATOM     29  H   LIG    1      -34.954  65.254  21.632  0.00  0.00    +0.167 HD
ATOM     30  C   LIG    1      -35.149  66.475  23.373  0.00  0.00    +0.090 A 
ENDBRANCH  20  21
ENDBRANCH   1  20
TORSDOF 6
ENDMDL
MODEL 7
REMARK VINA RESULT:      -5.1     20.071     21.808
REMARK  Name = pdb/CHEMBL3109645.pdb
REMARK                            x       y       z     vdW  Elec       q    Type
REMARK                         _______ _______ _______ _____ _____    ______ ____
ROOT
ATOM      1  N   LIG    1      -21.759  85.872  13.317  0.00  0.00    -0.278 N 
ATOM      2  C   LIG    1      -22.346  84.589  13.323  0.00  0.00    +0.307 C 
ATOM      3  N   LIG    1      -22.578  84.087  14.600  0.00  0.00    -0.269 N 
ATOM      4  H   LIG    1      -22.618  84.740  15.370  0.00  0.00    +0.156 HD
ATOM      5  O   LIG    1      -22.627  84.003  12.302  0.00  0.00    -0.252 OA
ENDROOT
BRANCH   3   6
ATOM      6  C   LIG    1      -22.966  82.786  14.967  0.00  0.00    +0.035 A 
ATOM      7  C   LIG    1      -22.260  82.165  16.002  0.00  0.00    +0.027 A 
ATOM      8  C   LIG    1      -22.558  80.856  16.400  0.00  0.00    +0.048 A 
ATOM      9  C   LIG    1      -23.576  80.159  15.756  0.00  0.00    +0.130 A 
ATOM     10  C   LIG    1      -24.275  80.781  14.717  0.00  0.00    +0.048 A 
ATOM     11  C   LIG    1      -23.982  82.087  14.323  0.00  0.00    +0.027 A 
BRANCH   9  12
ATOM     12  O   LIG    1      -23.929  78.864  15.952  0.00  0.00    -0.406 OA
BRANCH  12  13
ATOM     13  C   LIG    1      -23.380  77.823  15.164  0.00  0.00    +0.575 C 
ATOM     14  F   LIG    1      -22.197  78.233  14.658  0.00  0.00    -0.133 F 
ATOM     15  F   LIG    1      -24.218  77.586  14.129  0.00  0.00    -0.133 F 
ATOM     16  F   LIG    1      -23.190  76.661  15.820  0.00  0.00    -0.133 F 
ENDBRANCH  12  13
ENDBRANCH   9  12
ENDBRANCH   3   6
BRANCH   1  18
ATOM     17  C   LIG    1      -20.025  87.264  14.497  0.00  0.00    +0.028 C 
ATOM     18  C   LIG    1      -21.421  86.648  14.549  0.00  0.00    +0.072 C 
ATOM     19  C   LIG    1      -22.445  87.694  14.981  0.00  0.00    +0.028 C 
ENDBRANCH   1  18
BRANCH   1  20
ATOM     20  C   LIG    1      -21.466  86.434  11.987  0.00  0.00    +0.146 C 
BRANCH  20  21
ATOM     21  C   LIG    1      -22.394  87.546  11.564  0.00  0.00    -0.004 A 
ATOM     22  C   LIG    1      -23.780  87.467  11.156  0.00  0.00    +0.023 A 
ATOM     23  C   LIG    1      -24.732  86.454  10.925  0.00  0.00    +0.013 A 
ATOM     24  C   LIG    1      -26.009  86.829  10.489  0.00  0.00    +0.020 A 
ATOM     25  C   LIG    1      -26.303  88.176  10.340  0.00  0.00    +0.113 A 
ATOM     26  N   LIG    1      -25.449  89.192  10.583  0.00  0.00    -0.237 NA
ATOM     27  C   LIG    1      -24.230  88.772  10.970  0.00  0.00    +0.138 A 
ATOM     28  N   LIG    1      -23.201  89.619  11.256  0.00  0.00    -0.346 N 
ATOM     29  H   LIG    1      -23.288  90.622  11.209  0.00  0.00    +0.167 HD
ATOM     30  C   LIG    1      -22.088  88.901  11.603  0.00  0.00    +0.090 A 
ENDBRANCH  20  21
ENDBRANCH   1  20
TORSDOF 6
ENDMDL
MODEL 8
REMARK VINA RESULT:      -5.1     10.635     15.620
REMARK  Name = pdb/CHEMBL3109645.pdb
REMARK                            x       y       z     vdW  Elec       q    Type
REMARK                         _______ _______ _______ _____ _____    ______ ____
ROOT
ATOM      1  N   LIG    1      -24.659  77.076  32.399  0.00  0.00    -0.278 N 
ATOM      2  C   LIG    1      -25.819  76.488  31.853  0.00  0.00    +0.307 C 
ATOM      3  N   LIG    1      -26.370  75.492  32.653  0.00  0.00    -0.269 N 
ATOM      4  H   LIG    1      -26.129  75.479  33.634  0.00  0.00    +0.156 HD
ATOM      5  O   LIG    1      -26.283  76.839  30.791  0.00  0.00    -0.252 OA
ENDROOT
BRANCH   3   6
ATOM      6  C   LIG    1      -27.396  74.585  32.332  0.00  0.00    +0.035 A 
ATOM      7  C   LIG    1      -27.025  73.289  31.960  0.00  0.00    +0.027 A 
ATOM      8  C   LIG    1      -27.983  72.339  31.587  0.00  0.00    +0.048 A 
ATOM      9  C   LIG    1      -29.330  72.688  31.587  0.00  0.00    +0.130 A 
ATOM     10  C   LIG    1      -29.697  73.986  31.954  0.00  0.00    +0.048 A 
ATOM     11  C   LIG    1      -28.743  74.933  32.330  0.00  0.00    +0.027 A 
BRANCH   9  12
ATOM     12  O   LIG    1      -30.371  71.925  31.168  0.00  0.00    -0.406 OA
BRANCH  12  13
ATOM     13  C   LIG    1      -30.668  71.774  29.792  0.00  0.00    +0.575 C 
ATOM     14  F   LIG    1      -29.643  71.132  29.190  0.00  0.00    -0.133 F 
ATOM     15  F   LIG    1      -30.770  73.006  29.242  0.00  0.00    -0.133 F 
ATOM     16  F   LIG    1      -31.809  71.105  29.532  0.00  0.00    -0.133 F 
ENDBRANCH  12  13
ENDBRANCH   9  12
ENDBRANCH   3   6
BRANCH   1  18
ATOM     17  C   LIG    1      -23.080  75.536  33.612  0.00  0.00    +0.028 C 
ATOM     18  C   LIG    1      -24.065  76.697  33.718  0.00  0.00    +0.072 C 
ATOM     19  C   LIG    1      -23.454  77.838  34.527  0.00  0.00    +0.028 C 
ENDBRANCH   1  18
BRANCH   1  20
ATOM     20  C   LIG    1      -24.021  78.116  31.574  0.00  0.00    +0.146 C 
BRANCH  20  21
ATOM     21  C   LIG    1      -22.833  77.637  30.778  0.00  0.00    -0.004 A 
ATOM     22  C   LIG    1      -21.438  77.602  31.159  0.00  0.00    +0.023 A 
ATOM     23  C   LIG    1      -20.658  78.015  32.258  0.00  0.00    +0.013 A 
ATOM     24  C   LIG    1      -19.274  77.809  32.205  0.00  0.00    +0.020 A 
ATOM     25  C   LIG    1      -18.727  77.175  31.100  0.00  0.00    +0.113 A 
ATOM     26  N   LIG    1      -19.424  76.722  30.037  0.00  0.00    -0.237 NA
ATOM     27  C   LIG    1      -20.744  76.973  30.128  0.00  0.00    +0.138 A 
ATOM     28  N   LIG    1      -21.642  76.621  29.166  0.00  0.00    -0.346 N 
ATOM     29  H   LIG    1      -21.380  76.134  28.323  0.00  0.00    +0.167 HD
ATOM     30  C   LIG    1      -22.900  77.021  29.533  0.00  0.00    +0.090 A 
ENDBRANCH  20  21
ENDBRANCH   1  20
TORSDOF 6
ENDMDL
MODEL 9
REMARK VINA RESULT:      -5.1     20.121     22.334
REMARK  Name = pdb/CHEMBL3109645.pdb
REMARK                            x       y       z     vdW  Elec       q    Type
REMARK                         _______ _______ _______ _____ _____    ______ ____
ROOT
ATOM      1  N   LIG    1      -21.803  81.141  14.630  0.00  0.00    -0.278 N 
ATOM      2  C   LIG    1      -21.532  82.431  14.127  0.00  0.00    +0.307 C 
ATOM      3  N   LIG    1      -22.418  83.404  14.578  0.00  0.00    -0.269 N 
ATOM      4  H   LIG    1      -22.947  83.215  15.418  0.00  0.00    +0.156 HD
ATOM      5  O   LIG    1      -20.602  82.652  13.383  0.00  0.00    -0.252 OA
ENDROOT
BRANCH   3   6
ATOM      6  C   LIG    1      -22.553  84.731  14.135  0.00  0.00    +0.035 A 
ATOM      7  C   LIG    1      -23.017  84.937  12.832  0.00  0.00    +0.027 A 
ATOM      8  C   LIG    1      -23.142  86.227  12.301  0.00  0.00    +0.048 A 
ATOM      9  C   LIG    1      -22.799  87.325  13.083  0.00  0.00    +0.130 A 
ATOM     10  C   LIG    1      -22.329  87.116  14.383  0.00  0.00    +0.048 A 
ATOM     11  C   LIG    1      -22.208  85.831  14.914  0.00  0.00    +0.027 A 
BRANCH   9  12
ATOM     12  O   LIG    1      -22.771  88.626  12.696  0.00  0.00    -0.406 OA
BRANCH  12  13
ATOM     13  C   LIG    1      -21.558  89.265  12.344  0.00  0.00    +0.575 C 
ATOM     14  F   LIG    1      -20.925  89.657  13.472  0.00  0.00    -0.133 F 
ATOM     15  F   LIG    1      -21.854  90.372  11.625  0.00  0.00    -0.133 F 
ATOM     16  F   LIG    1      -20.713  88.508  11.616  0.00  0.00    -0.133 F 
ENDBRANCH  12  13
ENDBRANCH   9  12
ENDBRANCH   3   6
BRANCH   1  18
ATOM     17  C   LIG    1      -23.591  79.486  15.265  0.00  0.00    +0.028 C 
ATOM     18  C   LIG    1      -22.919  80.823  15.571  0.00  0.00    +0.072 C 
ATOM     19  C   LIG    1      -22.586  80.919  17.058  0.00  0.00    +0.028 C 
ENDBRANCH   1  18
BRANCH   1  20
ATOM     20  C   LIG    1      -20.909  80.070  14.156  0.00  0.00    +0.146 C 
BRANCH  20  21
ATOM     21  C   LIG    1      -19.941  79.561  15.196  0.00  0.00    -0.004 A 
ATOM     22  C   LIG    1      -19.674  78.198  15.599  0.00  0.00    +0.023 A 
ATOM     23  C   LIG    1      -20.181  76.917  15.304  0.00  0.00    +0.013 A 
ATOM     24  C   LIG    1      -19.633  75.815  15.973  0.00  0.00    +0.020 A 
ATOM     25  C   LIG    1      -18.591  76.017  16.866  0.00  0.00    +0.113 A 
ATOM     26  N   LIG    1      -18.037  77.212  17.160  0.00  0.00    -0.237 NA
ATOM     27  C   LIG    1      -18.622  78.236  16.511  0.00  0.00    +0.138 A 
ATOM     28  N   LIG    1      -18.241  79.535  16.663  0.00  0.00    -0.346 N 
ATOM     29  H   LIG    1      -17.482  79.817  17.264  0.00  0.00    +0.167 HD
ATOM     30  C   LIG    1      -19.028  80.347  15.890  0.00  0.00    +0.090 A 
ENDBRANCH  20  21
ENDBRANCH   1  20
TORSDOF 6
ENDMDL
