MODEL 1
REMARK VINA RESULT:      -6.4      0.000      0.000
REMARK  Name = pdb/CHEMBL3975127.pdb
REMARK                            x       y       z     vdW  Elec       q    Type
REMARK                         _______ _______ _______ _____ _____    ______ ____
ROOT
ATOM      1  C   LIG    1      -37.106  76.414  26.116  0.00  0.00    +0.149 A 
ATOM      2  N   LIG    1      -37.800  77.548  25.939  0.00  0.00    -0.160 NA
ATOM      3  N   LIG    1      -38.910  77.200  25.239  0.00  0.00    -0.218 N 
ATOM      4  C   LIG    1      -38.889  75.840  24.883  0.00  0.00    +0.129 A 
ATOM      5  C   LIG    1      -37.736  75.337  25.448  0.00  0.00    +0.078 A 
ENDROOT
BRANCH   3   6
ATOM      6  C   LIG    1      -39.878  78.208  24.939  0.00  0.00    +0.067 A 
ATOM      7  C   LIG    1      -41.150  78.203  25.516  0.00  0.00    +0.028 A 
ATOM      8  C   LIG    1      -42.087  79.190  25.189  0.00  0.00    +0.002 A 
ATOM      9  C   LIG    1      -41.752  80.207  24.301  0.00  0.00    +0.000 A 
ATOM     10  C   LIG    1      -40.475  80.249  23.750  0.00  0.00    +0.002 A 
ATOM     11  C   LIG    1      -39.536  79.262  24.074  0.00  0.00    +0.028 A 
ENDBRANCH   3   6
BRANCH   4  12
ATOM     12  N   LIG    1      -39.783  75.137  24.062  0.00  0.00    -0.266 N 
ATOM     13  H   LIG    1      -39.517  75.003  23.093  0.00  0.00    +0.157 HD
ATOM     14  C   LIG    1      -41.027  74.554  24.502  0.00  0.00    +0.251 C 
ATOM     15  O   LIG    1      -41.381  74.621  25.674  0.00  0.00    -0.270 OA
BRANCH  14  16
ATOM     16  C   LIG    1      -41.826  73.785  23.510  0.00  0.00    +0.056 A 
ATOM     17  C   LIG    1      -42.930  74.309  22.832  0.00  0.00    +0.056 A 
ATOM     18 CL   LIG    1      -43.649  75.823  23.213  0.00  0.00    -0.083 Cl
ATOM     19  C   LIG    1      -43.564  73.562  21.842  0.00  0.00    +0.059 A 
ATOM     20  C   LIG    1      -43.158  72.257  21.582  0.00  0.00    +0.134 A 
ATOM     21  F   LIG    1      -43.838  71.582  20.645  0.00  0.00    -0.205 F 
ATOM     22  C   LIG    1      -42.125  71.649  22.304  0.00  0.00    +0.036 A 
ATOM     23  C   LIG    1      -41.452  72.449  23.257  0.00  0.00    +0.027 A 
BRANCH  22  24
ATOM     24  C   LIG    1      -41.797  70.220  22.147  0.00  0.00    +0.074 A 
ATOM     25  N   LIG    1      -42.556  69.381  22.897  0.00  0.00    -0.255 NA
ATOM     26  C   LIG    1      -42.370  68.050  22.742  0.00  0.00    +0.111 A 
ATOM     27  C   LIG    1      -41.444  67.497  21.878  0.00  0.00    +0.020 A 
ATOM     28  C   LIG    1      -40.655  68.359  21.131  0.00  0.00    +0.004 A 
ATOM     29  C   LIG    1      -40.829  69.736  21.266  0.00  0.00    +0.028 A 
ENDBRANCH  22  24
ENDBRANCH  14  16
ENDBRANCH   4  12
BRANCH   1  31
ATOM     30  N   LIG    1      -35.325  77.462  27.289  0.00  0.00    -0.208 NA
ATOM     31  C   LIG    1      -35.852  76.355  26.879  0.00  0.00    +0.241 C 
BRANCH  30  34
ATOM     32  C   LIG    1      -32.164  77.650  26.398  0.00  0.00    +0.070 C 
ATOM     33  C   LIG    1      -32.804  77.466  27.724  0.00  0.00    +0.085 A 
ATOM     34  C   LIG    1      -34.176  77.437  28.080  0.00  0.00    +0.108 A 
ATOM     35  C   LIG    1      -34.200  77.158  29.421  0.00  0.00    +0.133 A 
ATOM     36  N   LIG    1      -32.894  77.066  29.803  0.00  0.00    -0.282 N 
ATOM     37  H   LIG    1      -32.521  76.830  30.718  0.00  0.00    +0.188 HD
ATOM     38  N   LIG    1      -32.026  77.302  28.805  0.00  0.00    -0.177 NA
ENDBRANCH  30  34
BRANCH  31  39
ATOM     39  O   LIG    1      -35.355  75.111  27.063  0.00  0.00    -0.491 OA
ATOM     40  H   LIG    1      -34.495  75.134  27.505  0.00  0.00    +0.294 HD
ENDBRANCH  31  39
ENDBRANCH   1  31
TORSDOF 7
ENDMDL
MODEL 2
REMARK VINA RESULT:      -6.4      3.717     10.231
REMARK  Name = pdb/CHEMBL3975127.pdb
REMARK                            x       y       z     vdW  Elec       q    Type
REMARK                         _______ _______ _______ _____ _____    ______ ____
ROOT
ATOM      1  C   LIG    1      -39.815  72.780  24.199  0.00  0.00    +0.149 A 
ATOM      2  N   LIG    1      -40.400  73.987  24.214  0.00  0.00    -0.160 NA
ATOM      3  N   LIG    1      -39.463  74.850  24.682  0.00  0.00    -0.218 N 
ATOM      4  C   LIG    1      -38.285  74.178  25.056  0.00  0.00    +0.129 A 
ATOM      5  C   LIG    1      -38.510  72.855  24.743  0.00  0.00    +0.078 A 
ENDROOT
BRANCH   3   6
ATOM      6  C   LIG    1      -39.788  76.239  24.765  0.00  0.00    +0.067 A 
ATOM      7  C   LIG    1      -40.056  76.862  25.986  0.00  0.00    +0.028 A 
ATOM      8  C   LIG    1      -40.393  78.220  26.038  0.00  0.00    +0.002 A 
ATOM      9  C   LIG    1      -40.439  78.975  24.870  0.00  0.00    +0.000 A 
ATOM     10  C   LIG    1      -40.134  78.378  23.650  0.00  0.00    +0.002 A 
ATOM     11  C   LIG    1      -39.798  77.020  23.596  0.00  0.00    +0.028 A 
ENDBRANCH   3   6
BRANCH   4  12
ATOM     12  N   LIG    1      -37.147  74.697  25.692  0.00  0.00    -0.266 N 
ATOM     13  H   LIG    1      -36.392  75.022  25.100  0.00  0.00    +0.157 HD
ATOM     14  C   LIG    1      -36.991  74.845  27.119  0.00  0.00    +0.251 C 
ATOM     15  O   LIG    1      -37.891  74.533  27.891  0.00  0.00    -0.270 OA
BRANCH  14  16
ATOM     16  C   LIG    1      -35.742  75.475  27.622  0.00  0.00    +0.056 A 
ATOM     17  C   LIG    1      -34.583  74.757  27.933  0.00  0.00    +0.056 A 
ATOM     18 CL   LIG    1      -34.516  73.040  27.993  0.00  0.00    -0.083 Cl
ATOM     19  C   LIG    1      -33.420  75.428  28.301  0.00  0.00    +0.059 A 
ATOM     20  C   LIG    1      -33.426  76.812  28.444  0.00  0.00    +0.134 A 
ATOM     21  F   LIG    1      -32.283  77.389  28.839  0.00  0.00    -0.205 F 
ATOM     22  C   LIG    1      -34.586  77.568  28.245  0.00  0.00    +0.036 A 
ATOM     23  C   LIG    1      -35.737  76.873  27.808  0.00  0.00    +0.027 A 
BRANCH  22  24
ATOM     24  C   LIG    1      -34.642  79.010  28.551  0.00  0.00    +0.074 A 
ATOM     25  N   LIG    1      -34.725  79.815  27.461  0.00  0.00    -0.255 NA
ATOM     26  C   LIG    1      -34.866  81.144  27.664  0.00  0.00    +0.111 A 
ATOM     27  C   LIG    1      -34.914  81.731  28.915  0.00  0.00    +0.020 A 
ATOM     28  C   LIG    1      -34.805  80.907  30.025  0.00  0.00    +0.004 A 
ATOM     29  C   LIG    1      -34.664  79.531  29.845  0.00  0.00    +0.028 A 
ENDBRANCH  22  24
ENDBRANCH  14  16
ENDBRANCH   4  12
BRANCH   1  31
ATOM     30  N   LIG    1      -41.139  71.639  22.590  0.00  0.00    -0.208 NA
ATOM     31  C   LIG    1      -40.486  71.571  23.705  0.00  0.00    +0.241 C 
BRANCH  30  34
ATOM     32  C   LIG    1      -39.730  69.058  21.117  0.00  0.00    +0.070 C 
ATOM     33  C   LIG    1      -41.153  69.389  21.371  0.00  0.00    +0.085 A 
ATOM     34  C   LIG    1      -41.726  70.493  22.054  0.00  0.00    +0.108 A 
ATOM     35  C   LIG    1      -43.081  70.342  21.921  0.00  0.00    +0.133 A 
ATOM     36  N   LIG    1      -43.257  69.185  21.220  0.00  0.00    -0.282 N 
ATOM     37  H   LIG    1      -44.127  68.772  20.896  0.00  0.00    +0.188 HD
ATOM     38  N   LIG    1      -42.106  68.560  20.921  0.00  0.00    -0.177 NA
ENDBRANCH  30  34
BRANCH  31  39
ATOM     39  O   LIG    1      -40.365  70.484  24.500  0.00  0.00    -0.491 OA
ATOM     40  H   LIG    1      -39.504  70.060  24.391  0.00  0.00    +0.294 HD
ENDBRANCH  31  39
ENDBRANCH   1  31
TORSDOF 7
ENDMDL
MODEL 3
REMARK VINA RESULT:      -6.4      8.075     11.960
REMARK  Name = pdb/CHEMBL3975127.pdb
REMARK                            x       y       z     vdW  Elec       q    Type
REMARK                         _______ _______ _______ _____ _____    ______ ____
ROOT
ATOM      1  C   LIG    1      -39.064  84.352  22.809  0.00  0.00    +0.149 A 
ATOM      2  N   LIG    1      -38.984  85.537  23.433  0.00  0.00    -0.160 NA
ATOM      3  N   LIG    1      -38.326  85.301  24.596  0.00  0.00    -0.218 N 
ATOM      4  C   LIG    1      -38.054  83.932  24.766  0.00  0.00    +0.129 A 
ATOM      5  C   LIG    1      -38.523  83.326  23.621  0.00  0.00    +0.078 A 
ENDROOT
BRANCH   3   6
ATOM      6  C   LIG    1      -38.046  86.403  25.463  0.00  0.00    +0.067 A 
ATOM      7  C   LIG    1      -38.712  86.572  26.679  0.00  0.00    +0.028 A 
ATOM      8  C   LIG    1      -38.434  87.672  27.499  0.00  0.00    +0.002 A 
ATOM      9  C   LIG    1      -37.468  88.600  27.124  0.00  0.00    +0.000 A 
ATOM     10  C   LIG    1      -36.766  88.422  25.935  0.00  0.00    +0.002 A 
ATOM     11  C   LIG    1      -37.044  87.324  25.112  0.00  0.00    +0.028 A 
ENDBRANCH   3   6
BRANCH   4  12
ATOM     12  N   LIG    1      -37.506  83.281  25.883  0.00  0.00    -0.266 N 
ATOM     13  H   LIG    1      -38.123  82.684  26.421  0.00  0.00    +0.157 HD
ATOM     14  C   LIG    1      -36.126  83.363  26.293  0.00  0.00    +0.251 C 
ATOM     15  O   LIG    1      -35.310  84.015  25.651  0.00  0.00    -0.270 OA
BRANCH  14  16
ATOM     16  C   LIG    1      -35.698  82.555  27.467  0.00  0.00    +0.056 A 
ATOM     17  C   LIG    1      -35.674  83.045  28.776  0.00  0.00    +0.056 A 
ATOM     18 CL   LIG    1      -35.915  84.699  29.177  0.00  0.00    -0.083 Cl
ATOM     19  C   LIG    1      -35.361  82.198  29.836  0.00  0.00    +0.059 A 
ATOM     20  C   LIG    1      -34.986  80.880  29.592  0.00  0.00    +0.134 A 
ATOM     21  F   LIG    1      -34.659  80.132  30.654  0.00  0.00    -0.205 F 
ATOM     22  C   LIG    1      -34.894  80.370  28.292  0.00  0.00    +0.036 A 
ATOM     23  C   LIG    1      -35.281  81.228  27.237  0.00  0.00    +0.027 A 
BRANCH  22  24
ATOM     24  C   LIG    1      -34.345  79.029  28.016  0.00  0.00    +0.074 A 
ATOM     25  N   LIG    1      -35.277  78.088  27.718  0.00  0.00    -0.255 NA
ATOM     26  C   LIG    1      -34.843  76.855  27.370  0.00  0.00    +0.111 A 
ATOM     27  C   LIG    1      -33.510  76.495  27.314  0.00  0.00    +0.020 A 
ATOM     28  C   LIG    1      -32.563  77.454  27.642  0.00  0.00    +0.004 A 
ATOM     29  C   LIG    1      -32.981  78.735  27.999  0.00  0.00    +0.028 A 
ENDBRANCH  22  24
ENDBRANCH  14  16
ENDBRANCH   4  12
BRANCH   1  31
ATOM     30  N   LIG    1      -40.948  84.308  21.362  0.00  0.00    -0.208 NA
ATOM     31  C   LIG    1      -39.666  84.187  21.480  0.00  0.00    +0.241 C 
BRANCH  30  34
ATOM     32  C   LIG    1      -41.052  86.545  18.954  0.00  0.00    +0.070 C 
ATOM     33  C   LIG    1      -41.649  85.192  19.066  0.00  0.00    +0.085 A 
ATOM     34  C   LIG    1      -41.545  84.231  20.104  0.00  0.00    +0.108 A 
ATOM     35  C   LIG    1      -42.359  83.196  19.727  0.00  0.00    +0.133 A 
ATOM     36  N   LIG    1      -42.872  83.551  18.514  0.00  0.00    -0.282 N 
ATOM     37  H   LIG    1      -43.548  83.050  17.945  0.00  0.00    +0.188 HD
ATOM     38  N   LIG    1      -42.416  84.733  18.065  0.00  0.00    -0.177 NA
ENDBRANCH  30  34
BRANCH  31  39
ATOM     39  O   LIG    1      -38.792  83.898  20.489  0.00  0.00    -0.491 OA
ATOM     40  H   LIG    1      -39.003  83.056  20.064  0.00  0.00    +0.294 HD
ENDBRANCH  31  39
ENDBRANCH   1  31
TORSDOF 7
ENDMDL
MODEL 4
REMARK VINA RESULT:      -6.4      3.914      4.925
REMARK  Name = pdb/CHEMBL3975127.pdb
REMARK                            x       y       z     vdW  Elec       q    Type
REMARK                         _______ _______ _______ _____ _____    ______ ____
ROOT
ATOM      1  C   LIG    1      -37.329  77.425  26.875  0.00  0.00    +0.149 A 
ATOM      2  N   LIG    1      -38.417  77.425  26.089  0.00  0.00    -0.160 NA
ATOM      3  N   LIG    1      -38.528  76.161  25.608  0.00  0.00    -0.218 N 
ATOM      4  C   LIG    1      -37.450  75.357  26.018  0.00  0.00    +0.129 A 
ATOM      5  C   LIG    1      -36.686  76.165  26.831  0.00  0.00    +0.078 A 
ENDROOT
BRANCH   3   6
ATOM      6  C   LIG    1      -39.638  75.841  24.767  0.00  0.00    +0.067 A 
ATOM      7  C   LIG    1      -40.062  74.524  24.575  0.00  0.00    +0.028 A 
ATOM      8  C   LIG    1      -41.139  74.235  23.728  0.00  0.00    +0.002 A 
ATOM      9  C   LIG    1      -41.820  75.264  23.085  0.00  0.00    +0.000 A 
ATOM     10  C   LIG    1      -41.435  76.585  23.299  0.00  0.00    +0.002 A 
ATOM     11  C   LIG    1      -40.357  76.876  24.144  0.00  0.00    +0.028 A 
ENDBRANCH   3   6
BRANCH   4  12
ATOM     12  N   LIG    1      -37.142  74.043  25.632  0.00  0.00    -0.266 N 
ATOM     13  H   LIG    1      -36.595  73.923  24.788  0.00  0.00    +0.157 HD
ATOM     14  C   LIG    1      -37.506  72.857  26.370  0.00  0.00    +0.251 C 
ATOM     15  O   LIG    1      -38.112  72.932  27.433  0.00  0.00    -0.270 OA
BRANCH  14  16
ATOM     16  C   LIG    1      -37.043  71.544  25.850  0.00  0.00    +0.056 A 
ATOM     17  C   LIG    1      -35.947  70.848  26.370  0.00  0.00    +0.056 A 
ATOM     18 CL   LIG    1      -34.856  71.514  27.520  0.00  0.00    -0.083 Cl
ATOM     19  C   LIG    1      -35.636  69.575  25.898  0.00  0.00    +0.059 A 
ATOM     20  C   LIG    1      -36.361  69.022  24.848  0.00  0.00    +0.134 A 
ATOM     21  F   LIG    1      -35.983  67.811  24.416  0.00  0.00    -0.205 F 
ATOM     22  C   LIG    1      -37.402  69.719  24.223  0.00  0.00    +0.036 A 
ATOM     23  C   LIG    1      -37.742  70.981  24.762  0.00  0.00    +0.027 A 
BRANCH  22  24
ATOM     24  C   LIG    1      -38.066  69.209  23.009  0.00  0.00    +0.074 A 
ATOM     25  N   LIG    1      -39.368  68.865  23.182  0.00  0.00    -0.255 NA
ATOM     26  C   LIG    1      -40.068  68.470  22.094  0.00  0.00    +0.111 A 
ATOM     27  C   LIG    1      -39.532  68.381  20.823  0.00  0.00    +0.020 A 
ATOM     28  C   LIG    1      -38.195  68.711  20.657  0.00  0.00    +0.004 A 
ATOM     29  C   LIG    1      -37.451  69.128  21.760  0.00  0.00    +0.028 A 
ENDBRANCH  22  24
ENDBRANCH  14  16
ENDBRANCH   4  12
BRANCH   1  31
ATOM     30  N   LIG    1      -35.639  78.931  27.597  0.00  0.00    -0.208 NA
ATOM     31  C   LIG    1      -36.890  78.605  27.632  0.00  0.00    +0.241 C 
BRANCH  30  34
ATOM     32  C   LIG    1      -34.884  79.402  30.764  0.00  0.00    +0.070 C 
ATOM     33  C   LIG    1      -34.915  80.334  29.611  0.00  0.00    +0.085 A 
ATOM     34  C   LIG    1      -35.201  80.087  28.244  0.00  0.00    +0.108 A 
ATOM     35  C   LIG    1      -35.167  81.314  27.635  0.00  0.00    +0.133 A 
ATOM     36  N   LIG    1      -34.846  82.205  28.617  0.00  0.00    -0.282 N 
ATOM     37  H   LIG    1      -34.770  83.215  28.549  0.00  0.00    +0.188 HD
ATOM     38  N   LIG    1      -34.635  81.630  29.813  0.00  0.00    -0.177 NA
ENDBRANCH  30  34
BRANCH  31  39
ATOM     39  O   LIG    1      -37.866  79.235  28.324  0.00  0.00    -0.491 OA
ATOM     40  H   LIG    1      -38.339  78.626  28.905  0.00  0.00    +0.294 HD
ENDBRANCH  31  39
ENDBRANCH   1  31
TORSDOF 7
ENDMDL
MODEL 5
REMARK VINA RESULT:      -6.4      1.976      3.565
REMARK  Name = pdb/CHEMBL3975127.pdb
REMARK                            x       y       z     vdW  Elec       q    Type
REMARK                         _______ _______ _______ _____ _____    ______ ____
ROOT
ATOM      1  C   LIG    1      -37.175  76.523  26.081  0.00  0.00    +0.149 A 
ATOM      2  N   LIG    1      -37.854  77.671  25.939  0.00  0.00    -0.160 NA
ATOM      3  N   LIG    1      -38.967  77.360  25.226  0.00  0.00    -0.218 N 
ATOM      4  C   LIG    1      -38.963  76.012  24.827  0.00  0.00    +0.129 A 
ATOM      5  C   LIG    1      -37.819  75.476  25.377  0.00  0.00    +0.078 A 
ENDROOT
BRANCH   3   6
ATOM      6  C   LIG    1      -39.920  78.390  24.956  0.00  0.00    +0.067 A 
ATOM      7  C   LIG    1      -41.180  78.404  25.559  0.00  0.00    +0.028 A 
ATOM      8  C   LIG    1      -42.105  79.412  25.262  0.00  0.00    +0.002 A 
ATOM      9  C   LIG    1      -41.768  80.432  24.377  0.00  0.00    +0.000 A 
ATOM     10  C   LIG    1      -40.501  80.454  23.800  0.00  0.00    +0.002 A 
ATOM     11  C   LIG    1      -39.576  79.446  24.095  0.00  0.00    +0.028 A 
ENDBRANCH   3   6
BRANCH   4  12
ATOM     12  N   LIG    1      -39.864  75.347  23.981  0.00  0.00    -0.266 N 
ATOM     13  H   LIG    1      -39.598  75.242  23.009  0.00  0.00    +0.157 HD
ATOM     14  C   LIG    1      -41.116  74.765  24.401  0.00  0.00    +0.251 C 
ATOM     15  O   LIG    1      -41.470  74.798  25.574  0.00  0.00    -0.270 OA
BRANCH  14  16
ATOM     16  C   LIG    1      -41.922  74.039  23.383  0.00  0.00    +0.056 A 
ATOM     17  C   LIG    1      -41.720  72.697  23.049  0.00  0.00    +0.056 A 
ATOM     18 CL   LIG    1      -40.378  71.772  23.597  0.00  0.00    -0.083 Cl
ATOM     19  C   LIG    1      -42.582  72.057  22.161  0.00  0.00    +0.059 A 
ATOM     20  C   LIG    1      -43.598  72.772  21.535  0.00  0.00    +0.134 A 
ATOM     21  F   LIG    1      -44.365  72.105  20.662  0.00  0.00    -0.205 F 
ATOM     22  C   LIG    1      -43.779  74.142  21.756  0.00  0.00    +0.036 A 
ATOM     23  C   LIG    1      -42.935  74.754  22.711  0.00  0.00    +0.027 A 
BRANCH  22  24
ATOM     24  C   LIG    1      -44.746  74.939  20.978  0.00  0.00    +0.074 A 
ATOM     25  N   LIG    1      -45.859  75.304  21.666  0.00  0.00    -0.255 NA
ATOM     26  C   LIG    1      -46.751  76.108  21.045  0.00  0.00    +0.111 A 
ATOM     27  C   LIG    1      -46.605  76.565  19.749  0.00  0.00    +0.020 A 
ATOM     28  C   LIG    1      -45.478  76.169  19.043  0.00  0.00    +0.004 A 
ATOM     29  C   LIG    1      -44.538  75.346  19.660  0.00  0.00    +0.028 A 
ENDBRANCH  22  24
ENDBRANCH  14  16
ENDBRANCH   4  12
BRANCH   1  31
ATOM     30  N   LIG    1      -35.373  77.510  27.274  0.00  0.00    -0.208 NA
ATOM     31  C   LIG    1      -35.925  76.422  26.845  0.00  0.00    +0.241 C 
BRANCH  30  34
ATOM     32  C   LIG    1      -32.208  77.632  26.389  0.00  0.00    +0.070 C 
ATOM     33  C   LIG    1      -32.853  77.446  27.712  0.00  0.00    +0.085 A 
ATOM     34  C   LIG    1      -34.227  77.446  28.066  0.00  0.00    +0.108 A 
ATOM     35  C   LIG    1      -34.260  77.150  29.403  0.00  0.00    +0.133 A 
ATOM     36  N   LIG    1      -32.957  77.020  29.785  0.00  0.00    -0.282 N 
ATOM     37  H   LIG    1      -32.591  76.762  30.697  0.00  0.00    +0.188 HD
ATOM     38  N   LIG    1      -32.082  77.248  28.791  0.00  0.00    -0.177 NA
ENDBRANCH  30  34
BRANCH  31  39
ATOM     39  O   LIG    1      -35.455  75.164  27.008  0.00  0.00    -0.491 OA
ATOM     40  H   LIG    1      -34.776  75.126  27.694  0.00  0.00    +0.294 HD
ENDBRANCH  31  39
ENDBRANCH   1  31
TORSDOF 7
ENDMDL
MODEL 6
REMARK VINA RESULT:      -6.3      5.054      7.552
REMARK  Name = pdb/CHEMBL3975127.pdb
REMARK                            x       y       z     vdW  Elec       q    Type
REMARK                         _______ _______ _______ _____ _____    ______ ____
ROOT
ATOM      1  C   LIG    1      -35.002  82.461  29.224  0.00  0.00    +0.149 A 
ATOM      2  N   LIG    1      -34.198  81.394  29.113  0.00  0.00    -0.160 NA
ATOM      3  N   LIG    1      -34.757  80.603  28.162  0.00  0.00    -0.218 N 
ATOM      4  C   LIG    1      -35.986  81.123  27.717  0.00  0.00    +0.129 A 
ATOM      5  C   LIG    1      -36.139  82.314  28.394  0.00  0.00    +0.078 A 
ENDROOT
BRANCH   3   6
ATOM      6  C   LIG    1      -34.087  79.397  27.788  0.00  0.00    +0.067 A 
ATOM      7  C   LIG    1      -32.919  79.411  27.022  0.00  0.00    +0.028 A 
ATOM      8  C   LIG    1      -32.293  78.215  26.651  0.00  0.00    +0.002 A 
ATOM      9  C   LIG    1      -32.815  76.993  27.065  0.00  0.00    +0.000 A 
ATOM     10  C   LIG    1      -33.955  76.966  27.864  0.00  0.00    +0.002 A 
ATOM     11  C   LIG    1      -34.584  78.161  28.235  0.00  0.00    +0.028 A 
ENDBRANCH   3   6
BRANCH   4  12
ATOM     12  N   LIG    1      -36.916  80.542  26.842  0.00  0.00    -0.266 N 
ATOM     13  H   LIG    1      -36.853  80.792  25.863  0.00  0.00    +0.157 HD
ATOM     14  C   LIG    1      -37.924  79.582  27.225  0.00  0.00    +0.251 C 
ATOM     15  O   LIG    1      -38.016  79.185  28.381  0.00  0.00    -0.270 OA
BRANCH  14  16
ATOM     16  C   LIG    1      -38.789  79.016  26.156  0.00  0.00    +0.056 A 
ATOM     17  C   LIG    1      -39.733  79.765  25.447  0.00  0.00    +0.056 A 
ATOM     18 CL   LIG    1      -40.180  81.372  25.864  0.00  0.00    -0.083 Cl
ATOM     19  C   LIG    1      -40.434  79.190  24.389  0.00  0.00    +0.059 A 
ATOM     20  C   LIG    1      -40.262  77.843  24.086  0.00  0.00    +0.134 A 
ATOM     21  F   LIG    1      -40.997  77.345  23.083  0.00  0.00    -0.205 F 
ATOM     22  C   LIG    1      -39.406  77.024  24.831  0.00  0.00    +0.036 A 
ATOM     23  C   LIG    1      -38.656  77.645  25.857  0.00  0.00    +0.027 A 
BRANCH  22  24
ATOM     24  C   LIG    1      -39.340  75.566  24.621  0.00  0.00    +0.074 A 
ATOM     25  N   LIG    1      -38.170  74.993  25.006  0.00  0.00    -0.255 NA
ATOM     26  C   LIG    1      -38.067  73.647  24.923  0.00  0.00    +0.111 A 
ATOM     27  C   LIG    1      -39.074  72.824  24.455  0.00  0.00    +0.020 A 
ATOM     28  C   LIG    1      -40.258  73.417  24.041  0.00  0.00    +0.004 A 
ATOM     29  C   LIG    1      -40.395  74.802  24.121  0.00  0.00    +0.028 A 
ENDBRANCH  22  24
ENDBRANCH  14  16
ENDBRANCH   4  12
BRANCH   1  31
ATOM     30  N   LIG    1      -33.728  83.485  30.949  0.00  0.00    -0.208 NA
ATOM     31  C   LIG    1      -34.716  83.589  30.120  0.00  0.00    +0.241 C 
BRANCH  30  34
ATOM     32  C   LIG    1      -31.578  85.913  30.405  0.00  0.00    +0.070 C 
ATOM     33  C   LIG    1      -32.428  85.596  31.578  0.00  0.00    +0.085 A 
ATOM     34  C   LIG    1      -33.382  84.564  31.762  0.00  0.00    +0.108 A 
ATOM     35  C   LIG    1      -33.809  84.687  33.058  0.00  0.00    +0.133 A 
ATOM     36  N   LIG    1      -33.143  85.763  33.566  0.00  0.00    -0.282 N 
ATOM     37  H   LIG    1      -33.172  86.132  34.512  0.00  0.00    +0.188 HD
ATOM     38  N   LIG    1      -32.339  86.365  32.674  0.00  0.00    -0.177 NA
ENDBRANCH  30  34
BRANCH  31  39
ATOM     39  O   LIG    1      -35.553  84.644  29.997  0.00  0.00    -0.491 OA
ATOM     40  H   LIG    1      -36.108  84.566  29.210  0.00  0.00    +0.294 HD
ENDBRANCH  31  39
ENDBRANCH   1  31
TORSDOF 7
ENDMDL
MODEL 7
REMARK VINA RESULT:      -6.3     16.244     20.056
REMARK  Name = pdb/CHEMBL3975127.pdb
REMARK                            x       y       z     vdW  Elec       q    Type
REMARK                         _______ _______ _______ _____ _____    ______ ____
ROOT
ATOM      1  C   LIG    1      -24.820  73.770  31.624  0.00  0.00    +0.149 A 
ATOM      2  N   LIG    1      -23.738  74.089  30.898  0.00  0.00    -0.160 NA
ATOM      3  N   LIG    1      -23.136  75.113  31.556  0.00  0.00    -0.218 N 
ATOM      4  C   LIG    1      -23.886  75.518  32.674  0.00  0.00    +0.129 A 
ATOM      5  C   LIG    1      -24.961  74.656  32.719  0.00  0.00    +0.078 A 
ENDROOT
BRANCH   3   6
ATOM      6  C   LIG    1      -21.913  75.639  31.036  0.00  0.00    +0.067 A 
ATOM      7  C   LIG    1      -21.893  76.539  29.968  0.00  0.00    +0.028 A 
ATOM      8  C   LIG    1      -20.680  77.023  29.464  0.00  0.00    +0.002 A 
ATOM      9  C   LIG    1      -19.475  76.632  30.041  0.00  0.00    +0.000 A 
ATOM     10  C   LIG    1      -19.482  75.768  31.133  0.00  0.00    +0.002 A 
ATOM     11  C   LIG    1      -20.694  75.281  31.637  0.00  0.00    +0.028 A 
ENDBRANCH   3   6
BRANCH   4  12
ATOM     12  N   LIG    1      -23.664  76.610  33.526  0.00  0.00    -0.266 N 
ATOM     13  H   LIG    1      -23.290  76.413  34.447  0.00  0.00    +0.157 HD
ATOM     14  C   LIG    1      -23.886  77.992  33.175  0.00  0.00    +0.251 C 
ATOM     15  O   LIG    1      -24.277  78.308  32.057  0.00  0.00    -0.270 OA
BRANCH  14  16
ATOM     16  C   LIG    1      -23.537  79.032  34.180  0.00  0.00    +0.056 A 
ATOM     17  C   LIG    1      -22.246  79.542  34.349  0.00  0.00    +0.056 A 
ATOM     18 CL   LIG    1      -20.855  78.883  33.584  0.00  0.00    -0.083 Cl
ATOM     19  C   LIG    1      -22.017  80.587  35.240  0.00  0.00    +0.059 A 
ATOM     20  C   LIG    1      -23.053  81.074  36.030  0.00  0.00    +0.134 A 
ATOM     21  F   LIG    1      -22.754  82.053  36.895  0.00  0.00    -0.205 F 
ATOM     22  C   LIG    1      -24.341  80.528  35.974  0.00  0.00    +0.036 A 
ATOM     23  C   LIG    1      -24.566  79.513  35.015  0.00  0.00    +0.027 A 
BRANCH  22  24
ATOM     24  C   LIG    1      -25.401  80.926  36.919  0.00  0.00    +0.074 A 
ATOM     25  N   LIG    1      -25.966  82.133  36.656  0.00  0.00    -0.255 NA
ATOM     26  C   LIG    1      -27.004  82.527  37.428  0.00  0.00    +0.111 A 
ATOM     27  C   LIG    1      -27.511  81.783  38.477  0.00  0.00    +0.020 A 
ATOM     28  C   LIG    1      -26.914  80.562  38.756  0.00  0.00    +0.004 A 
ATOM     29  C   LIG    1      -25.846  80.127  37.972  0.00  0.00    +0.028 A 
ENDBRANCH  22  24
ENDBRANCH  14  16
ENDBRANCH   4  12
BRANCH   1  31
ATOM     30  N   LIG    1      -25.204  71.523  30.954  0.00  0.00    -0.208 NA
ATOM     31  C   LIG    1      -25.721  72.665  31.274  0.00  0.00    +0.241 C 
BRANCH  30  34
ATOM     32  C   LIG    1      -26.863  69.596  33.040  0.00  0.00    +0.070 C 
ATOM     33  C   LIG    1      -26.718  69.554  31.565  0.00  0.00    +0.085 A 
ATOM     34  C   LIG    1      -26.031  70.432  30.689  0.00  0.00    +0.108 A 
ATOM     35  C   LIG    1      -26.154  69.877  29.442  0.00  0.00    +0.133 A 
ATOM     36  N   LIG    1      -26.907  68.752  29.612  0.00  0.00    -0.282 N 
ATOM     37  H   LIG    1      -27.171  68.060  28.916  0.00  0.00    +0.188 HD
ATOM     38  N   LIG    1      -27.307  68.561  30.880  0.00  0.00    -0.177 NA
ENDBRANCH  30  34
BRANCH  31  39
ATOM     39  O   LIG    1      -27.038  72.969  31.305  0.00  0.00    -0.491 OA
ATOM     40  H   LIG    1      -27.580  72.233  30.994  0.00  0.00    +0.294 HD
ENDBRANCH  31  39
ENDBRANCH   1  31
TORSDOF 7
ENDMDL
MODEL 8
REMARK VINA RESULT:      -6.3      4.112      5.832
REMARK  Name = pdb/CHEMBL3975127.pdb
REMARK                            x       y       z     vdW  Elec       q    Type
REMARK                         _______ _______ _______ _____ _____    ______ ____
ROOT
ATOM      1  C   LIG    1      -37.179  79.935  27.602  0.00  0.00    +0.149 A 
ATOM      2  N   LIG    1      -36.218  79.154  28.118  0.00  0.00    -0.160 NA
ATOM      3  N   LIG    1      -36.475  77.899  27.668  0.00  0.00    -0.218 N 
ATOM      4  C   LIG    1      -37.668  77.854  26.924  0.00  0.00    +0.129 A 
ATOM      5  C   LIG    1      -38.115  79.157  26.879  0.00  0.00    +0.078 A 
ENDROOT
BRANCH   3   6
ATOM      6  C   LIG    1      -35.578  76.845  28.020  0.00  0.00    +0.067 A 
ATOM      7  C   LIG    1      -35.851  75.963  29.068  0.00  0.00    +0.028 A 
ATOM      8  C   LIG    1      -34.945  74.951  29.407  0.00  0.00    +0.002 A 
ATOM      9  C   LIG    1      -33.767  74.795  28.683  0.00  0.00    +0.000 A 
ATOM     10  C   LIG    1      -33.500  75.640  27.610  0.00  0.00    +0.002 A 
ATOM     11  C   LIG    1      -34.404  76.654  27.270  0.00  0.00    +0.028 A 
ENDBRANCH   3   6
BRANCH   4  12
ATOM     12  N   LIG    1      -38.331  76.733  26.403  0.00  0.00    -0.266 N 
ATOM     13  H   LIG    1      -39.099  76.353  26.945  0.00  0.00    +0.157 HD
ATOM     14  C   LIG    1      -38.033  76.110  25.136  0.00  0.00    +0.251 C 
ATOM     15  O   LIG    1      -37.161  76.556  24.399  0.00  0.00    -0.270 OA
BRANCH  14  16
ATOM     16  C   LIG    1      -38.879  74.965  24.705  0.00  0.00    +0.056 A 
ATOM     17  C   LIG    1      -40.167  75.108  24.181  0.00  0.00    +0.056 A 
ATOM     18 CL   LIG    1      -41.031  76.595  24.173  0.00  0.00    -0.083 Cl
ATOM     19  C   LIG    1      -40.858  73.998  23.704  0.00  0.00    +0.059 A 
ATOM     20  C   LIG    1      -40.307  72.726  23.825  0.00  0.00    +0.134 A 
ATOM     21  F   LIG    1      -41.043  71.697  23.383  0.00  0.00    -0.205 F 
ATOM     22  C   LIG    1      -39.066  72.516  24.436  0.00  0.00    +0.036 A 
ATOM     23  C   LIG    1      -38.353  73.665  24.852  0.00  0.00    +0.027 A 
BRANCH  22  24
ATOM     24  C   LIG    1      -38.549  71.163  24.712  0.00  0.00    +0.074 A 
ATOM     25  N   LIG    1      -39.007  70.609  25.864  0.00  0.00    -0.255 NA
ATOM     26  C   LIG    1      -38.644  69.336  26.143  0.00  0.00    +0.111 A 
ATOM     27  C   LIG    1      -37.823  68.574  25.333  0.00  0.00    +0.020 A 
ATOM     28  C   LIG    1      -37.338  69.154  24.169  0.00  0.00    +0.004 A 
ATOM     29  C   LIG    1      -37.701  70.463  23.854  0.00  0.00    +0.028 A 
ENDBRANCH  22  24
ENDBRANCH  14  16
ENDBRANCH   4  12
BRANCH   1  31
ATOM     30  N   LIG    1      -36.250  82.109  27.367  0.00  0.00    -0.208 NA
ATOM     31  C   LIG    1      -37.227  81.387  27.811  0.00  0.00    +0.241 C 
BRANCH  30  34
ATOM     32  C   LIG    1      -37.456  84.344  25.277  0.00  0.00    +0.070 C 
ATOM     33  C   LIG    1      -36.766  84.489  26.582  0.00  0.00    +0.085 A 
ATOM     34  C   LIG    1      -36.299  83.498  27.483  0.00  0.00    +0.108 A 
ATOM     35  C   LIG    1      -35.670  84.185  28.488  0.00  0.00    +0.133 A 
ATOM     36  N   LIG    1      -35.807  85.506  28.175  0.00  0.00    -0.282 N 
ATOM     37  H   LIG    1      -35.432  86.311  28.667  0.00  0.00    +0.188 HD
ATOM     38  N   LIG    1      -36.514  85.720  27.053  0.00  0.00    -0.177 NA
ENDBRANCH  30  34
BRANCH  31  39
ATOM     39  O   LIG    1      -38.312  81.832  28.485  0.00  0.00    -0.491 OA
ATOM     40  H   LIG    1      -38.195  82.742  28.787  0.00  0.00    +0.294 HD
ENDBRANCH  31  39
ENDBRANCH   1  31
TORSDOF 7
ENDMDL
MODEL 9
REMARK VINA RESULT:      -6.3      4.304      7.606
REMARK  Name = pdb/CHEMBL3975127.pdb
REMARK                            x       y       z     vdW  Elec       q    Type
REMARK                         _______ _______ _______ _____ _____    ______ ____
ROOT
ATOM      1  C   LIG    1      -32.335  73.672  29.508  0.00  0.00    +0.149 A 
ATOM      2  N   LIG    1      -32.100  74.978  29.311  0.00  0.00    -0.160 NA
ATOM      3  N   LIG    1      -33.113  75.424  28.524  0.00  0.00    -0.218 N 
ATOM      4  C   LIG    1      -33.964  74.374  28.137  0.00  0.00    +0.129 A 
ATOM      5  C   LIG    1      -33.468  73.255  28.770  0.00  0.00    +0.078 A 
ENDROOT
BRANCH   3   6
ATOM      6  C   LIG    1      -33.157  76.810  28.181  0.00  0.00    +0.067 A 
ATOM      7  C   LIG    1      -33.905  77.729  28.921  0.00  0.00    +0.028 A 
ATOM      8  C   LIG    1      -33.949  79.078  28.551  0.00  0.00    +0.002 A 
ATOM      9  C   LIG    1      -33.224  79.527  27.451  0.00  0.00    +0.000 A 
ATOM     10  C   LIG    1      -32.441  78.631  26.729  0.00  0.00    +0.002 A 
ATOM     11  C   LIG    1      -32.397  77.281  27.096  0.00  0.00    +0.028 A 
ENDBRANCH   3   6
BRANCH   4  12
ATOM     12  N   LIG    1      -35.039  74.407  27.235  0.00  0.00    -0.266 N 
ATOM     13  H   LIG    1      -34.817  74.505  26.251  0.00  0.00    +0.157 HD
ATOM     14  C   LIG    1      -36.429  74.268  27.599  0.00  0.00    +0.251 C 
ATOM     15  O   LIG    1      -36.765  74.081  28.763  0.00  0.00    -0.270 OA
BRANCH  14  16
ATOM     16  C   LIG    1      -37.438  74.262  26.506  0.00  0.00    +0.056 A 
ATOM     17  C   LIG    1      -37.781  73.121  25.775  0.00  0.00    +0.056 A 
ATOM     18 CL   LIG    1      -36.930  71.631  25.883  0.00  0.00    -0.083 Cl
ATOM     19  C   LIG    1      -38.809  73.172  24.837  0.00  0.00    +0.059 A 
ATOM     20  C   LIG    1      -39.444  74.379  24.559  0.00  0.00    +0.134 A 
ATOM     21  F   LIG    1      -40.396  74.364  23.617  0.00  0.00    -0.205 F 
ATOM     22  C   LIG    1      -39.067  75.571  25.188  0.00  0.00    +0.036 A 
ATOM     23  C   LIG    1      -38.068  75.482  26.185  0.00  0.00    +0.027 A 
BRANCH  22  24
ATOM     24  C   LIG    1      -39.621  76.877  24.785  0.00  0.00    +0.074 A 
ATOM     25  N   LIG    1      -40.755  77.235  25.441  0.00  0.00    -0.255 NA
ATOM     26  C   LIG    1      -41.274  78.458  25.186  0.00  0.00    +0.111 A 
ATOM     27  C   LIG    1      -40.728  79.354  24.287  0.00  0.00    +0.020 A 
ATOM     28  C   LIG    1      -39.583  78.973  23.601  0.00  0.00    +0.004 A 
ATOM     29  C   LIG    1      -39.023  77.720  23.849  0.00  0.00    +0.028 A 
ENDBRANCH  22  24
ENDBRANCH  14  16
ENDBRANCH   4  12
BRANCH   1  31
ATOM     30  N   LIG    1      -30.371  72.386  29.875  0.00  0.00    -0.208 NA
ATOM     31  C   LIG    1      -31.487  72.826  30.358  0.00  0.00    +0.241 C 
BRANCH  30  34
ATOM     32  C   LIG    1      -28.204  73.410  32.128  0.00  0.00    +0.070 C 
ATOM     33  C   LIG    1      -28.530  72.055  31.621  0.00  0.00    +0.085 A 
ATOM     34  C   LIG    1      -29.507  71.643  30.679  0.00  0.00    +0.108 A 
ATOM     35  C   LIG    1      -29.319  70.295  30.523  0.00  0.00    +0.133 A 
ATOM     36  N   LIG    1      -28.299  69.964  31.366  0.00  0.00    -0.282 N 
ATOM     37  H   LIG    1      -27.855  69.059  31.492  0.00  0.00    +0.188 HD
ATOM     38  N   LIG    1      -27.838  71.003  32.083  0.00  0.00    -0.177 NA
ENDBRANCH  30  34
BRANCH  31  39
ATOM     39  O   LIG    1      -31.986  72.571  31.589  0.00  0.00    -0.491 OA
ATOM     40  H   LIG    1      -32.901  72.265  31.545  0.00  0.00    +0.294 HD
ENDBRANCH  31  39
ENDBRANCH   1  31
TORSDOF 7
ENDMDL
