MODEL 1
REMARK VINA RESULT:      -6.2      0.000      0.000
REMARK  Name = pdb/CHEMBL3895227.pdb
REMARK                            x       y       z     vdW  Elec       q    Type
REMARK                         _______ _______ _______ _____ _____    ______ ____
ROOT
ATOM      1  C   LIG    1      -39.668  79.485  25.296  0.00  0.00    +0.098 A 
ATOM      2  C   LIG    1      -38.796  79.914  26.280  0.00  0.00    +0.179 A 
ATOM      3  N   LIG    1      -38.080  79.245  27.248  0.00  0.00    -0.211 NA
ATOM      4  C   LIG    1      -37.226  79.942  27.970  0.00  0.00    +0.126 A 
ATOM      5  C   LIG    1      -37.010  81.422  27.743  0.00  0.00    +0.063 A 
ATOM      6  C   LIG    1      -37.792  82.030  26.845  0.00  0.00    +0.118 A 
ATOM      7  N   LIG    1      -38.710  81.297  26.115  0.00  0.00    -0.220 N 
ATOM      8  N   LIG    1      -39.573  81.762  25.179  0.00  0.00    -0.171 NA
ATOM      9  C   LIG    1      -40.145  80.660  24.688  0.00  0.00    +0.160 A 
ENDROOT
BRANCH   4  10
ATOM     10  N   LIG    1      -36.505  79.325  28.979  0.00  0.00    -0.308 N 
ATOM     11  C   LIG    1      -35.098  79.611  29.276  0.00  0.00    +0.105 C 
ATOM     12  C   LIG    1      -34.883  79.080  30.711  0.00  0.00    +0.029 C 
ATOM     13  C   LIG    1      -36.271  78.715  31.219  0.00  0.00    +0.021 C 
ATOM     14  C   LIG    1      -37.063  78.411  29.960  0.00  0.00    +0.107 C 
BRANCH  11  15
ATOM     15  C   LIG    1      -34.182  78.901  28.285  0.00  0.00    -0.024 A 
ATOM     16  C   LIG    1      -34.199  77.503  28.135  0.00  0.00    +0.043 A 
ATOM     17  C   LIG    1      -33.338  76.872  27.243  0.00  0.00    +0.124 A 
ATOM     18  F   LIG    1      -33.374  75.537  27.129  0.00  0.00    -0.205 F 
ATOM     19  C   LIG    1      -32.441  77.602  26.480  0.00  0.00    +0.038 A 
ATOM     20  C   LIG    1      -32.408  78.988  26.609  0.00  0.00    +0.003 A 
ATOM     21  C   LIG    1      -33.274  79.632  27.504  0.00  0.00    +0.005 A 
ENDBRANCH  11  15
ENDBRANCH   4  10
BRANCH   1  23
ATOM     22  C   LIG    1      -39.128  77.286  24.354  0.00  0.00    +0.254 C 
ATOM     23  N   LIG    1      -39.946  78.155  25.051  0.00  0.00    -0.277 N 
ATOM     24  H   LIG    1      -40.843  77.838  25.407  0.00  0.00    +0.155 HD
ATOM     25  O   LIG    1      -38.026  77.555  23.897  0.00  0.00    -0.270 OA
BRANCH  22  27
ATOM     26  C   LIG    1      -40.883  75.604  23.614  0.00  0.00    +0.227 A 
ATOM     27  C   LIG    1      -39.654  75.898  24.197  0.00  0.00    +0.098 A 
ATOM     28  C   LIG    1      -38.877  74.819  24.645  0.00  0.00    +0.020 A 
ATOM     29  C   LIG    1      -39.357  73.517  24.508  0.00  0.00    +0.021 A 
ATOM     30  C   LIG    1      -40.597  73.335  23.922  0.00  0.00    +0.114 A 
ATOM     31  N   LIG    1      -41.368  74.345  23.474  0.00  0.00    -0.221 NA
BRANCH  26  33
ATOM     32  C   LIG    1      -43.015  76.290  22.912  0.00  0.00    +0.279 C 
ATOM     33  O   LIG    1      -41.663  76.650  23.162  0.00  0.00    -0.479 OA
ENDBRANCH  26  33
ENDBRANCH  22  27
ENDBRANCH   1  23
TORSDOF 5
ENDMDL
MODEL 2
REMARK VINA RESULT:      -6.2      3.513      7.806
REMARK  Name = pdb/CHEMBL3895227.pdb
REMARK                            x       y       z     vdW  Elec       q    Type
REMARK                         _______ _______ _______ _____ _____    ______ ____
ROOT
ATOM      1  C   LIG    1      -37.601  76.230  25.193  0.00  0.00    +0.098 A 
ATOM      2  C   LIG    1      -38.136  74.991  24.892  0.00  0.00    +0.179 A 
ATOM      3  N   LIG    1      -37.673  73.707  25.071  0.00  0.00    -0.211 NA
ATOM      4  C   LIG    1      -38.491  72.715  24.782  0.00  0.00    +0.126 A 
ATOM      5  C   LIG    1      -39.901  72.960  24.293  0.00  0.00    +0.063 A 
ATOM      6  C   LIG    1      -40.264  74.225  24.063  0.00  0.00    +0.118 A 
ATOM      7  N   LIG    1      -39.388  75.260  24.336  0.00  0.00    -0.220 N 
ATOM      8  N   LIG    1      -39.601  76.586  24.155  0.00  0.00    -0.171 NA
ATOM      9  C   LIG    1      -38.518  77.164  24.678  0.00  0.00    +0.160 A 
ENDROOT
BRANCH   4  10
ATOM     10  N   LIG    1      -38.064  71.403  24.912  0.00  0.00    -0.308 N 
ATOM     11  C   LIG    1      -38.053  70.665  26.178  0.00  0.00    +0.105 C 
ATOM     12  C   LIG    1      -37.972  69.178  25.765  0.00  0.00    +0.029 C 
ATOM     13  C   LIG    1      -38.163  69.166  24.255  0.00  0.00    +0.021 C 
ATOM     14  C   LIG    1      -37.690  70.538  23.807  0.00  0.00    +0.107 C 
BRANCH  11  15
ATOM     15  C   LIG    1      -36.851  71.065  27.027  0.00  0.00    -0.024 A 
ATOM     16  C   LIG    1      -36.962  72.005  28.066  0.00  0.00    +0.043 A 
ATOM     17  C   LIG    1      -35.848  72.375  28.813  0.00  0.00    +0.124 A 
ATOM     18  F   LIG    1      -35.984  73.279  29.792  0.00  0.00    -0.205 F 
ATOM     19  C   LIG    1      -34.600  71.829  28.553  0.00  0.00    +0.038 A 
ATOM     20  C   LIG    1      -34.468  70.893  27.530  0.00  0.00    +0.003 A 
ATOM     21  C   LIG    1      -35.585  70.513  26.774  0.00  0.00    +0.005 A 
ENDBRANCH  11  15
ENDBRANCH   4  10
BRANCH   1  23
ATOM     22  C   LIG    1      -36.221  76.253  27.221  0.00  0.00    +0.254 C 
ATOM     23  N   LIG    1      -36.403  76.402  25.859  0.00  0.00    -0.277 N 
ATOM     24  H   LIG    1      -35.626  76.682  25.267  0.00  0.00    +0.155 HD
ATOM     25  O   LIG    1      -37.078  75.906  28.021  0.00  0.00    -0.270 OA
BRANCH  22  27
ATOM     26  C   LIG    1      -34.298  77.790  27.851  0.00  0.00    +0.227 A 
ATOM     27  C   LIG    1      -34.837  76.514  27.715  0.00  0.00    +0.098 A 
ATOM     28  C   LIG    1      -34.025  75.428  28.075  0.00  0.00    +0.020 A 
ATOM     29  C   LIG    1      -32.728  75.656  28.535  0.00  0.00    +0.021 A 
ATOM     30  C   LIG    1      -32.286  76.964  28.624  0.00  0.00    +0.114 A 
ATOM     31  N   LIG    1      -33.039  78.033  28.294  0.00  0.00    -0.221 NA
BRANCH  26  33
ATOM     32  C   LIG    1      -34.444  80.128  27.710  0.00  0.00    +0.279 C 
ATOM     33  O   LIG    1      -35.080  78.874  27.507  0.00  0.00    -0.479 OA
ENDBRANCH  26  33
ENDBRANCH  22  27
ENDBRANCH   1  23
TORSDOF 5
ENDMDL
MODEL 3
REMARK VINA RESULT:      -6.1     13.426     16.988
REMARK  Name = pdb/CHEMBL3895227.pdb
REMARK                            x       y       z     vdW  Elec       q    Type
REMARK                         _______ _______ _______ _____ _____    ______ ____
ROOT
ATOM      1  C   LIG    1      -24.099  78.762  34.766  0.00  0.00    +0.098 A 
ATOM      2  C   LIG    1      -22.798  79.211  34.901  0.00  0.00    +0.179 A 
ATOM      3  N   LIG    1      -21.584  78.677  34.528  0.00  0.00    -0.211 NA
ATOM      4  C   LIG    1      -20.510  79.422  34.693  0.00  0.00    +0.126 A 
ATOM      5  C   LIG    1      -20.591  80.827  35.248  0.00  0.00    +0.063 A 
ATOM      6  C   LIG    1      -21.786  81.258  35.665  0.00  0.00    +0.118 A 
ATOM      7  N   LIG    1      -22.903  80.456  35.521  0.00  0.00    -0.220 N 
ATOM      8  N   LIG    1      -24.173  80.743  35.896  0.00  0.00    -0.171 NA
ATOM      9  C   LIG    1      -24.889  79.716  35.433  0.00  0.00    +0.160 A 
ENDROOT
BRANCH   4  10
ATOM     10  N   LIG    1      -19.261  78.921  34.366  0.00  0.00    -0.308 N 
ATOM     11  C   LIG    1      -18.685  78.967  33.019  0.00  0.00    +0.105 C 
ATOM     12  C   LIG    1      -17.169  78.752  33.233  0.00  0.00    +0.029 C 
ATOM     13  C   LIG    1      -16.960  78.816  34.739  0.00  0.00    +0.021 C 
ATOM     14  C   LIG    1      -18.299  78.399  35.321  0.00  0.00    +0.107 C 
BRANCH  11  15
ATOM     15  C   LIG    1      -19.276  77.869  32.141  0.00  0.00    -0.024 A 
ATOM     16  C   LIG    1      -20.348  78.120  31.266  0.00  0.00    +0.043 A 
ATOM     17  C   LIG    1      -20.889  77.099  30.492  0.00  0.00    +0.124 A 
ATOM     18  F   LIG    1      -21.915  77.369  29.673  0.00  0.00    -0.205 F 
ATOM     19  C   LIG    1      -20.388  75.808  30.562  0.00  0.00    +0.038 A 
ATOM     20  C   LIG    1      -19.324  75.537  31.419  0.00  0.00    +0.003 A 
ATOM     21  C   LIG    1      -18.772  76.560  32.201  0.00  0.00    +0.005 A 
ENDBRANCH  11  15
ENDBRANCH   4  10
BRANCH   1  23
ATOM     22  C   LIG    1      -24.429  77.436  32.730  0.00  0.00    +0.254 C 
ATOM     23  N   LIG    1      -24.440  77.601  34.102  0.00  0.00    -0.277 N 
ATOM     24  H   LIG    1      -24.740  76.840  34.705  0.00  0.00    +0.155 HD
ATOM     25  O   LIG    1      -24.074  78.275  31.914  0.00  0.00    -0.270 OA
BRANCH  22  27
ATOM     26  C   LIG    1      -26.177  75.644  32.298  0.00  0.00    +0.227 A 
ATOM     27  C   LIG    1      -24.862  76.094  32.242  0.00  0.00    +0.098 A 
ATOM     28  C   LIG    1      -23.907  75.230  31.685  0.00  0.00    +0.020 A 
ATOM     29  C   LIG    1      -24.296  73.971  31.227  0.00  0.00    +0.021 A 
ATOM     30  C   LIG    1      -25.629  73.618  31.338  0.00  0.00    +0.114 A 
ATOM     31  N   LIG    1      -26.575  74.422  31.861  0.00  0.00    -0.221 NA
BRANCH  26  33
ATOM     32  C   LIG    1      -28.342  76.528  32.088  0.00  0.00    +0.279 C 
ATOM     33  O   LIG    1      -27.136  76.478  32.838  0.00  0.00    -0.479 OA
ENDBRANCH  26  33
ENDBRANCH  22  27
ENDBRANCH   1  23
TORSDOF 5
ENDMDL
MODEL 4
REMARK VINA RESULT:      -6.1     14.611     18.709
REMARK  Name = pdb/CHEMBL3895227.pdb
REMARK                            x       y       z     vdW  Elec       q    Type
REMARK                         _______ _______ _______ _____ _____    ______ ____
ROOT
ATOM      1  C   LIG    1      -19.220  78.978  33.032  0.00  0.00    +0.098 A 
ATOM      2  C   LIG    1      -19.940  78.131  32.210  0.00  0.00    +0.179 A 
ATOM      3  N   LIG    1      -21.288  77.890  32.070  0.00  0.00    -0.211 NA
ATOM      4  C   LIG    1      -21.671  77.095  31.091  0.00  0.00    +0.126 A 
ATOM      5  C   LIG    1      -20.679  76.478  30.130  0.00  0.00    +0.063 A 
ATOM      6  C   LIG    1      -19.380  76.685  30.366  0.00  0.00    +0.118 A 
ATOM      7  N   LIG    1      -18.985  77.493  31.417  0.00  0.00    -0.220 N 
ATOM      8  N   LIG    1      -17.717  77.794  31.788  0.00  0.00    -0.171 NA
ATOM      9  C   LIG    1      -17.869  78.694  32.762  0.00  0.00    +0.160 A 
ENDROOT
BRANCH   4  10
ATOM     10  N   LIG    1      -23.013  76.793  30.928  0.00  0.00    -0.308 N 
ATOM     11  C   LIG    1      -23.808  76.036  31.900  0.00  0.00    +0.105 C 
ATOM     12  C   LIG    1      -25.277  76.359  31.542  0.00  0.00    +0.029 C 
ATOM     13  C   LIG    1      -25.206  77.471  30.506  0.00  0.00    +0.021 C 
ATOM     14  C   LIG    1      -23.851  77.283  29.847  0.00  0.00    +0.107 C 
BRANCH  11  15
ATOM     15  C   LIG    1      -23.530  74.541  31.777  0.00  0.00    -0.024 A 
ATOM     16  C   LIG    1      -24.316  73.708  30.962  0.00  0.00    +0.043 A 
ATOM     17  C   LIG    1      -24.062  72.343  30.884  0.00  0.00    +0.124 A 
ATOM     18  F   LIG    1      -24.834  71.575  30.103  0.00  0.00    -0.205 F 
ATOM     19  C   LIG    1      -23.028  71.767  31.606  0.00  0.00    +0.038 A 
ATOM     20  C   LIG    1      -22.234  72.573  32.418  0.00  0.00    +0.003 A 
ATOM     21  C   LIG    1      -22.483  73.950  32.501  0.00  0.00    +0.005 A 
ENDBRANCH  11  15
ENDBRANCH   4  10
BRANCH   1  23
ATOM     22  C   LIG    1      -20.237  79.570  35.184  0.00  0.00    +0.254 C 
ATOM     23  N   LIG    1      -19.806  79.872  33.906  0.00  0.00    -0.277 N 
ATOM     24  H   LIG    1      -19.934  80.808  33.531  0.00  0.00    +0.155 HD
ATOM     25  O   LIG    1      -20.121  78.487  35.738  0.00  0.00    -0.270 OA
BRANCH  22  27
ATOM     26  C   LIG    1      -22.134  81.193  35.657  0.00  0.00    +0.227 A 
ATOM     27  C   LIG    1      -20.863  80.700  35.933  0.00  0.00    +0.098 A 
ATOM     28  C   LIG    1      -20.150  81.301  36.980  0.00  0.00    +0.020 A 
ATOM     29  C   LIG    1      -20.720  82.360  37.687  0.00  0.00    +0.021 A 
ATOM     30  C   LIG    1      -21.988  82.780  37.326  0.00  0.00    +0.114 A 
ATOM     31  N   LIG    1      -22.706  82.223  36.330  0.00  0.00    -0.221 NA
BRANCH  26  33
ATOM     32  C   LIG    1      -23.987  79.874  35.075  0.00  0.00    +0.279 C 
ATOM     33  O   LIG    1      -22.857  80.613  34.633  0.00  0.00    -0.479 OA
ENDBRANCH  26  33
ENDBRANCH  22  27
ENDBRANCH   1  23
TORSDOF 5
ENDMDL
MODEL 5
REMARK VINA RESULT:      -5.9     16.995     19.145
REMARK  Name = pdb/CHEMBL3895227.pdb
REMARK                            x       y       z     vdW  Elec       q    Type
REMARK                         _______ _______ _______ _____ _____    ______ ____
ROOT
ATOM      1  C   LIG    1      -23.179  79.725  15.271  0.00  0.00    +0.098 A 
ATOM      2  C   LIG    1      -21.995  79.038  15.466  0.00  0.00    +0.179 A 
ATOM      3  N   LIG    1      -21.558  77.798  15.057  0.00  0.00    -0.211 NA
ATOM      4  C   LIG    1      -20.305  77.475  15.308  0.00  0.00    +0.126 A 
ATOM      5  C   LIG    1      -19.359  78.432  16.000  0.00  0.00    +0.063 A 
ATOM      6  C   LIG    1      -19.863  79.587  16.443  0.00  0.00    +0.118 A 
ATOM      7  N   LIG    1      -21.188  79.904  16.205  0.00  0.00    -0.220 N 
ATOM      8  N   LIG    1      -21.846  81.024  16.591  0.00  0.00    -0.171 NA
ATOM      9  C   LIG    1      -23.047  80.908  16.019  0.00  0.00    +0.160 A 
ENDROOT
BRANCH   4  10
ATOM     10  N   LIG    1      -19.825  76.227  14.949  0.00  0.00    -0.308 N 
ATOM     11  C   LIG    1      -20.679  75.069  14.666  0.00  0.00    +0.105 C 
ATOM     12  C   LIG    1      -19.774  74.099  13.874  0.00  0.00    +0.029 C 
ATOM     13  C   LIG    1      -18.506  74.884  13.570  0.00  0.00    +0.021 C 
ATOM     14  C   LIG    1      -18.431  75.918  14.679  0.00  0.00    +0.107 C 
BRANCH  11  15
ATOM     15  C   LIG    1      -21.167  74.430  15.961  0.00  0.00    -0.024 A 
ATOM     16  C   LIG    1      -20.291  73.749  16.826  0.00  0.00    +0.043 A 
ATOM     17  C   LIG    1      -20.761  73.151  17.990  0.00  0.00    +0.124 A 
ATOM     18  F   LIG    1      -19.902  72.504  18.789  0.00  0.00    -0.205 F 
ATOM     19  C   LIG    1      -22.104  73.208  18.330  0.00  0.00    +0.038 A 
ATOM     20  C   LIG    1      -22.990  73.880  17.491  0.00  0.00    +0.003 A 
ATOM     21  C   LIG    1      -22.524  74.487  16.317  0.00  0.00    +0.005 A 
ENDBRANCH  11  15
ENDBRANCH   4  10
BRANCH   1  23
ATOM     22  C   LIG    1      -25.393  78.712  14.972  0.00  0.00    +0.254 C 
ATOM     23  N   LIG    1      -24.215  79.252  14.490  0.00  0.00    -0.277 N 
ATOM     24  H   LIG    1      -24.047  79.300  13.490  0.00  0.00    +0.155 HD
ATOM     25  O   LIG    1      -25.705  78.619  16.151  0.00  0.00    -0.270 OA
BRANCH  22  27
ATOM     26  C   LIG    1      -26.659  78.972  12.785  0.00  0.00    +0.227 A 
ATOM     27  C   LIG    1      -26.357  78.246  13.932  0.00  0.00    +0.098 A 
ATOM     28  C   LIG    1      -26.994  77.007  14.099  0.00  0.00    +0.020 A 
ATOM     29  C   LIG    1      -27.900  76.559  13.138  0.00  0.00    +0.021 A 
ATOM     30  C   LIG    1      -28.136  77.364  12.037  0.00  0.00    +0.114 A 
ATOM     31  N   LIG    1      -27.538  78.556  11.839  0.00  0.00    -0.221 NA
BRANCH  26  33
ATOM     32  C   LIG    1      -25.593  80.409  11.265  0.00  0.00    +0.279 C 
ATOM     33  O   LIG    1      -26.041  80.192  12.597  0.00  0.00    -0.479 OA
ENDBRANCH  26  33
ENDBRANCH  22  27
ENDBRANCH   1  23
TORSDOF 5
ENDMDL
MODEL 6
REMARK VINA RESULT:      -5.8     11.802     14.924
REMARK  Name = pdb/CHEMBL3895227.pdb
REMARK                            x       y       z     vdW  Elec       q    Type
REMARK                         _______ _______ _______ _____ _____    ______ ____
ROOT
ATOM      1  C   LIG    1      -32.864  65.678  18.914  0.00  0.00    +0.098 A 
ATOM      2  C   LIG    1      -31.580  66.137  18.684  0.00  0.00    +0.179 A 
ATOM      3  N   LIG    1      -30.989  67.371  18.835  0.00  0.00    -0.211 NA
ATOM      4  C   LIG    1      -29.688  67.456  18.642  0.00  0.00    +0.126 A 
ATOM      5  C   LIG    1      -28.854  66.246  18.288  0.00  0.00    +0.063 A 
ATOM      6  C   LIG    1      -29.496  65.093  18.077  0.00  0.00    +0.118 A 
ATOM      7  N   LIG    1      -30.866  65.019  18.248  0.00  0.00    -0.220 N 
ATOM      8  N   LIG    1      -31.659  63.935  18.069  0.00  0.00    -0.171 NA
ATOM      9  C   LIG    1      -32.863  64.342  18.477  0.00  0.00    +0.160 A 
ENDROOT
BRANCH   4  10
ATOM     10  N   LIG    1      -29.050  68.681  18.748  0.00  0.00    -0.308 N 
ATOM     11  C   LIG    1      -29.729  69.974  18.624  0.00  0.00    +0.105 C 
ATOM     12  C   LIG    1      -28.761  70.990  19.271  0.00  0.00    +0.029 C 
ATOM     13  C   LIG    1      -27.672  70.152  19.924  0.00  0.00    +0.021 C 
ATOM     14  C   LIG    1      -27.658  68.864  19.120  0.00  0.00    +0.107 C 
BRANCH  11  15
ATOM     15  C   LIG    1      -29.981  70.313  17.159  0.00  0.00    -0.024 A 
ATOM     16  C   LIG    1      -28.923  70.519  16.256  0.00  0.00    +0.043 A 
ATOM     17  C   LIG    1      -29.173  70.852  14.929  0.00  0.00    +0.124 A 
ATOM     18  F   LIG    1      -28.143  71.049  14.095  0.00  0.00    -0.205 F 
ATOM     19  C   LIG    1      -30.471  70.990  14.460  0.00  0.00    +0.038 A 
ATOM     20  C   LIG    1      -31.535  70.787  15.335  0.00  0.00    +0.003 A 
ATOM     21  C   LIG    1      -31.291  70.450  16.673  0.00  0.00    +0.005 A 
ENDBRANCH  11  15
ENDBRANCH   4  10
BRANCH   1  23
ATOM     22  C   LIG    1      -34.609  66.133  20.576  0.00  0.00    +0.254 C 
ATOM     23  N   LIG    1      -33.866  66.458  19.457  0.00  0.00    -0.277 N 
ATOM     24  H   LIG    1      -34.055  67.318  18.950  0.00  0.00    +0.155 HD
ATOM     25  O   LIG    1      -34.457  65.137  21.269  0.00  0.00    -0.270 OA
BRANCH  22  27
ATOM     26  C   LIG    1      -35.609  67.875  22.133  0.00  0.00    +0.227 A 
ATOM     27  C   LIG    1      -35.655  67.126  20.961  0.00  0.00    +0.098 A 
ATOM     28  C   LIG    1      -36.746  67.335  20.104  0.00  0.00    +0.020 A 
ATOM     29  C   LIG    1      -37.733  68.257  20.452  0.00  0.00    +0.021 A 
ATOM     30  C   LIG    1      -37.595  68.944  21.645  0.00  0.00    +0.114 A 
ATOM     31  N   LIG    1      -36.559  68.774  22.491  0.00  0.00    -0.221 NA
BRANCH  26  33
ATOM     32  C   LIG    1      -34.910  67.159  24.257  0.00  0.00    +0.279 C 
ATOM     33  O   LIG    1      -34.542  67.689  22.991  0.00  0.00    -0.479 OA
ENDBRANCH  26  33
ENDBRANCH  22  27
ENDBRANCH   1  23
TORSDOF 5
ENDMDL
MODEL 7
REMARK VINA RESULT:      -5.7      2.679      5.284
REMARK  Name = pdb/CHEMBL3895227.pdb
REMARK                            x       y       z     vdW  Elec       q    Type
REMARK                         _______ _______ _______ _____ _____    ______ ____
ROOT
ATOM      1  C   LIG    1      -36.222  76.442  26.955  0.00  0.00    +0.098 A 
ATOM      2  C   LIG    1      -36.332  77.741  27.417  0.00  0.00    +0.179 A 
ATOM      3  N   LIG    1      -37.347  78.670  27.355  0.00  0.00    -0.211 NA
ATOM      4  C   LIG    1      -37.184  79.800  28.011  0.00  0.00    +0.126 A 
ATOM      5  C   LIG    1      -35.942  80.076  28.830  0.00  0.00    +0.063 A 
ATOM      6  C   LIG    1      -34.960  79.171  28.786  0.00  0.00    +0.118 A 
ATOM      7  N   LIG    1      -35.125  78.001  28.066  0.00  0.00    -0.220 N 
ATOM      8  N   LIG    1      -34.229  76.995  27.919  0.00  0.00    -0.171 NA
ATOM      9  C   LIG    1      -34.902  76.056  27.249  0.00  0.00    +0.160 A 
ENDROOT
BRANCH   4  10
ATOM     10  N   LIG    1      -38.159  80.783  27.954  0.00  0.00    -0.308 N 
ATOM     11  C   LIG    1      -39.501  80.576  27.399  0.00  0.00    +0.105 C 
ATOM     12  C   LIG    1      -40.345  81.737  27.971  0.00  0.00    +0.029 C 
ATOM     13  C   LIG    1      -39.456  82.414  29.004  0.00  0.00    +0.021 C 
ATOM     14  C   LIG    1      -38.043  82.105  28.542  0.00  0.00    +0.107 C 
BRANCH  11  15
ATOM     15  C   LIG    1      -39.467  80.620  25.875  0.00  0.00    -0.024 A 
ATOM     16  C   LIG    1      -39.195  81.810  25.177  0.00  0.00    +0.043 A 
ATOM     17  C   LIG    1      -39.194  81.835  23.786  0.00  0.00    +0.124 A 
ATOM     18  F   LIG    1      -38.938  82.986  23.150  0.00  0.00    -0.205 F 
ATOM     19  C   LIG    1      -39.461  80.690  23.051  0.00  0.00    +0.038 A 
ATOM     20  C   LIG    1      -39.730  79.500  23.722  0.00  0.00    +0.003 A 
ATOM     21  C   LIG    1      -39.732  79.466  25.123  0.00  0.00    +0.005 A 
ENDBRANCH  11  15
ENDBRANCH   4  10
BRANCH   1  23
ATOM     22  C   LIG    1      -37.677  75.962  25.039  0.00  0.00    +0.254 C 
ATOM     23  N   LIG    1      -37.254  75.761  26.340  0.00  0.00    -0.277 N 
ATOM     24  H   LIG    1      -37.729  75.087  26.933  0.00  0.00    +0.155 HD
ATOM     25  O   LIG    1      -37.171  76.734  24.237  0.00  0.00    -0.270 OA
BRANCH  22  27
ATOM     26  C   LIG    1      -38.823  73.731  24.637  0.00  0.00    +0.227 A 
ATOM     27  C   LIG    1      -38.831  75.122  24.603  0.00  0.00    +0.098 A 
ATOM     28  C   LIG    1      -39.996  75.751  24.141  0.00  0.00    +0.020 A 
ATOM     29  C   LIG    1      -41.082  74.978  23.727  0.00  0.00    +0.021 A 
ATOM     30  C   LIG    1      -40.967  73.601  23.792  0.00  0.00    +0.114 A 
ATOM     31  N   LIG    1      -39.866  72.962  24.236  0.00  0.00    -0.221 NA
BRANCH  26  33
ATOM     32  C   LIG    1      -37.940  72.133  26.112  0.00  0.00    +0.279 C 
ATOM     33  O   LIG    1      -37.688  73.090  25.092  0.00  0.00    -0.479 OA
ENDBRANCH  26  33
ENDBRANCH  22  27
ENDBRANCH   1  23
TORSDOF 5
ENDMDL
MODEL 8
REMARK VINA RESULT:      -5.7      6.633     10.338
REMARK  Name = pdb/CHEMBL3895227.pdb
REMARK                            x       y       z     vdW  Elec       q    Type
REMARK                         _______ _______ _______ _____ _____    ______ ____
ROOT
ATOM      1  C   LIG    1      -35.396  69.047  24.945  0.00  0.00    +0.098 A 
ATOM      2  C   LIG    1      -36.541  69.639  25.445  0.00  0.00    +0.179 A 
ATOM      3  N   LIG    1      -37.758  69.944  24.877  0.00  0.00    -0.211 NA
ATOM      4  C   LIG    1      -38.706  70.404  25.667  0.00  0.00    +0.126 A 
ATOM      5  C   LIG    1      -38.492  70.574  27.155  0.00  0.00    +0.063 A 
ATOM      6  C   LIG    1      -37.267  70.337  27.634  0.00  0.00    +0.118 A 
ATOM      7  N   LIG    1      -36.267  69.887  26.791  0.00  0.00    -0.220 N 
ATOM      8  N   LIG    1      -34.981  69.609  27.118  0.00  0.00    -0.171 NA
ATOM      9  C   LIG    1      -34.464  69.099  25.998  0.00  0.00    +0.160 A 
ENDROOT
BRANCH   4  10
ATOM     10  N   LIG    1      -39.937  70.759  25.140  0.00  0.00    -0.308 N 
ATOM     11  C   LIG    1      -40.110  71.501  23.888  0.00  0.00    +0.105 C 
ATOM     12  C   LIG    1      -41.578  71.244  23.479  0.00  0.00    +0.029 C 
ATOM     13  C   LIG    1      -42.084  70.175  24.437  0.00  0.00    +0.021 C 
ATOM     14  C   LIG    1      -41.222  70.344  25.675  0.00  0.00    +0.107 C 
BRANCH  11  15
ATOM     15  C   LIG    1      -39.853  72.989  24.102  0.00  0.00    -0.024 A 
ATOM     16  C   LIG    1      -38.655  73.457  24.671  0.00  0.00    +0.043 A 
ATOM     17  C   LIG    1      -38.450  74.816  24.880  0.00  0.00    +0.124 A 
ATOM     18  F   LIG    1      -37.301  75.230  25.431  0.00  0.00    -0.205 F 
ATOM     19  C   LIG    1      -39.419  75.746  24.535  0.00  0.00    +0.038 A 
ATOM     20  C   LIG    1      -40.612  75.306  23.967  0.00  0.00    +0.003 A 
ATOM     21  C   LIG    1      -40.826  73.938  23.751  0.00  0.00    +0.005 A 
ENDBRANCH  11  15
ENDBRANCH   4  10
BRANCH   1  23
ATOM     22  C   LIG    1      -35.133  67.215  23.336  0.00  0.00    +0.254 C 
ATOM     23  N   LIG    1      -35.293  68.549  23.662  0.00  0.00    -0.277 N 
ATOM     24  H   LIG    1      -35.318  69.254  22.931  0.00  0.00    +0.155 HD
ATOM     25  O   LIG    1      -35.106  66.285  24.129  0.00  0.00    -0.270 OA
BRANCH  22  27
ATOM     26  C   LIG    1      -36.057  67.131  20.970  0.00  0.00    +0.227 A 
ATOM     27  C   LIG    1      -35.022  66.921  21.877  0.00  0.00    +0.098 A 
ATOM     28  C   LIG    1      -33.815  66.414  21.373  0.00  0.00    +0.020 A 
ATOM     29  C   LIG    1      -33.698  66.131  20.012  0.00  0.00    +0.021 A 
ATOM     30  C   LIG    1      -34.791  66.368  19.198  0.00  0.00    +0.114 A 
ATOM     31  N   LIG    1      -35.964  66.861  19.644  0.00  0.00    -0.221 NA
BRANCH  26  33
ATOM     32  C   LIG    1      -37.643  68.856  20.831  0.00  0.00    +0.279 C 
ATOM     33  O   LIG    1      -37.253  67.634  21.443  0.00  0.00    -0.479 OA
ENDBRANCH  26  33
ENDBRANCH  22  27
ENDBRANCH   1  23
TORSDOF 5
ENDMDL
MODEL 9
REMARK VINA RESULT:      -5.7     19.742     22.501
REMARK  Name = pdb/CHEMBL3895227.pdb
REMARK                            x       y       z     vdW  Elec       q    Type
REMARK                         _______ _______ _______ _____ _____    ______ ____
ROOT
ATOM      1  C   LIG    1      -20.666  85.708  13.651  0.00  0.00    +0.098 A 
ATOM      2  C   LIG    1      -21.287  86.666  12.871  0.00  0.00    +0.179 A 
ATOM      3  N   LIG    1      -22.506  86.700  12.230  0.00  0.00    -0.211 NA
ATOM      4  C   LIG    1      -22.866  87.831  11.657  0.00  0.00    +0.126 A 
ATOM      5  C   LIG    1      -21.993  89.065  11.711  0.00  0.00    +0.063 A 
ATOM      6  C   LIG    1      -20.789  88.947  12.278  0.00  0.00    +0.118 A 
ATOM      7  N   LIG    1      -20.404  87.746  12.847  0.00  0.00    -0.220 N 
ATOM      8  N   LIG    1      -19.224  87.465  13.451  0.00  0.00    -0.171 NA
ATOM      9  C   LIG    1      -19.392  86.233  13.936  0.00  0.00    +0.160 A 
ENDROOT
BRANCH   4  10
ATOM     10  N   LIG    1      -24.066  87.909  10.970  0.00  0.00    -0.308 N 
ATOM     11  C   LIG    1      -24.348  88.895   9.922  0.00  0.00    +0.105 C 
ATOM     12  C   LIG    1      -25.553  88.311   9.149  0.00  0.00    +0.029 C 
ATOM     13  C   LIG    1      -25.737  86.901   9.691  0.00  0.00    +0.021 C 
ATOM     14  C   LIG    1      -25.158  86.960  11.093  0.00  0.00    +0.107 C 
BRANCH  11  15
ATOM     15  C   LIG    1      -24.692  90.249  10.533  0.00  0.00    -0.024 A 
ATOM     16  C   LIG    1      -25.523  90.360  11.662  0.00  0.00    +0.043 A 
ATOM     17  C   LIG    1      -25.845  91.606  12.189  0.00  0.00    +0.124 A 
ATOM     18  F   LIG    1      -26.645  91.678  13.262  0.00  0.00    -0.205 F 
ATOM     19  C   LIG    1      -25.357  92.771  11.617  0.00  0.00    +0.038 A 
ATOM     20  C   LIG    1      -24.530  92.685  10.500  0.00  0.00    +0.003 A 
ATOM     21  C   LIG    1      -24.199  91.433   9.964  0.00  0.00    +0.005 A 
ENDBRANCH  11  15
ENDBRANCH   4  10
BRANCH   1  23
ATOM     22  C   LIG    1      -22.192  84.361  15.019  0.00  0.00    +0.254 C 
ATOM     23  N   LIG    1      -21.260  84.514  14.010  0.00  0.00    -0.277 N 
ATOM     24  H   LIG    1      -20.941  83.707  13.482  0.00  0.00    +0.155 HD
ATOM     25  O   LIG    1      -22.656  85.261  15.704  0.00  0.00    -0.270 OA
BRANCH  22  27
ATOM     26  C   LIG    1      -23.505  82.292  14.347  0.00  0.00    +0.227 A 
ATOM     27  C   LIG    1      -22.676  82.966  15.238  0.00  0.00    +0.098 A 
ATOM     28  C   LIG    1      -22.275  82.279  16.393  0.00  0.00    +0.020 A 
ATOM     29  C   LIG    1      -22.722  80.976  16.613  0.00  0.00    +0.021 A 
ATOM     30  C   LIG    1      -23.552  80.401  15.668  0.00  0.00    +0.114 A 
ATOM     31  N   LIG    1      -23.952  81.027  14.543  0.00  0.00    -0.221 NA
BRANCH  26  33
ATOM     32  C   LIG    1      -24.856  82.222  12.428  0.00  0.00    +0.279 C 
ATOM     33  O   LIG    1      -23.909  82.947  13.200  0.00  0.00    -0.479 OA
ENDBRANCH  26  33
ENDBRANCH  22  27
ENDBRANCH   1  23
TORSDOF 5
ENDMDL
