MODEL 1
REMARK VINA RESULT:      -6.3      0.000      0.000
REMARK  Name = pdb/CHEMBL3545365.pdb
REMARK                            x       y       z     vdW  Elec       q    Type
REMARK                         _______ _______ _______ _____ _____    ______ ____
ROOT
ATOM      1  C   LIG    1      -34.393  70.625  27.757  0.00  0.00    +0.072 A 
ATOM      2  C   LIG    1      -33.383  70.648  28.728  0.00  0.00    +0.148 A 
ATOM      3  F   LIG    1      -32.551  69.607  28.875  0.00  0.00    -0.203 F 
ATOM      4  C   LIG    1      -33.250  71.717  29.615  0.00  0.00    +0.089 A 
ATOM      5  C   LIG    1      -34.097  72.824  29.515  0.00  0.00    +0.166 A 
ATOM      6  C   LIG    1      -35.151  72.772  28.593  0.00  0.00    +0.167 A 
ATOM      7  F   LIG    1      -36.013  73.795  28.491  0.00  0.00    -0.202 F 
ATOM      8  C   LIG    1      -35.314  71.675  27.731  0.00  0.00    +0.068 A 
ENDROOT
BRANCH   1  10
ATOM      9  C   LIG    1      -35.445  68.566  26.968  0.00  0.00    +0.232 C 
ATOM     10  N   LIG    1      -34.498  69.571  26.811  0.00  0.00    -0.282 N 
ATOM     11  H   LIG    1      -33.679  69.328  26.264  0.00  0.00    +0.155 HD
ATOM     12  O   LIG    1      -36.230  68.475  27.910  0.00  0.00    -0.274 OA
BRANCH   9  13
ATOM     13  C   LIG    1      -35.452  67.474  25.925  0.00  0.00    +0.123 C 
ATOM     14  C   LIG    1      -34.655  66.209  26.273  0.00  0.00    +0.027 C 
ATOM     15  C   LIG    1      -36.148  66.157  26.289  0.00  0.00    +0.027 C 
BRANCH  13  18
ATOM     16  N   LIG    1      -36.420  67.305  23.679  0.00  0.00    -0.285 N 
ATOM     17  H   LIG    1      -36.942  66.539  24.078  0.00  0.00    +0.155 HD
ATOM     18  C   LIG    1      -35.452  67.878  24.482  0.00  0.00    +0.232 C 
ATOM     19  O   LIG    1      -34.563  68.674  24.120  0.00  0.00    -0.274 OA
BRANCH  16  24
ATOM     20  F   LIG    1      -37.594  68.159  18.323  0.00  0.00    -0.205 F 
ATOM     21  C   LIG    1      -37.237  67.996  19.603  0.00  0.00    +0.124 A 
ATOM     22  C   LIG    1      -37.752  68.842  20.577  0.00  0.00    +0.040 A 
ATOM     23  C   LIG    1      -37.413  68.641  21.922  0.00  0.00    +0.026 A 
ATOM     24  C   LIG    1      -36.600  67.564  22.293  0.00  0.00    +0.034 A 
ATOM     25  C   LIG    1      -36.038  66.763  21.289  0.00  0.00    +0.026 A 
ATOM     26  C   LIG    1      -36.360  66.976  19.945  0.00  0.00    +0.040 A 
ENDBRANCH  16  24
ENDBRANCH  13  18
ENDBRANCH   9  13
ENDBRANCH   1  10
BRANCH   5  27
ATOM     27  O   LIG    1      -33.945  73.949  30.309  0.00  0.00    -0.453 OA
BRANCH  27  28
ATOM     28  C   LIG    1      -32.978  74.879  29.952  0.00  0.00    +0.133 A 
ATOM     29  C   LIG    1      -33.025  75.586  28.744  0.00  0.00    +0.090 A 
ATOM     30  C   LIG    1      -31.988  76.446  28.444  0.00  0.00    +0.128 A 
ATOM     31  N   LIG    1      -30.976  76.646  29.302  0.00  0.00    -0.240 NA
ATOM     32  C   LIG    1      -30.946  75.987  30.465  0.00  0.00    +0.116 A 
ATOM     33  C   LIG    1      -31.937  75.114  30.852  0.00  0.00    +0.066 A 
BRANCH  30  34
ATOM     34  N   LIG    1      -31.982  77.117  27.225  0.00  0.00    -0.270 N 
ATOM     35  H   LIG    1      -31.520  76.687  26.434  0.00  0.00    +0.156 HD
ATOM     36  C   LIG    1      -32.563  78.343  26.932  0.00  0.00    +0.221 C 
ATOM     37  O   LIG    1      -32.456  78.814  25.815  0.00  0.00    -0.275 OA
BRANCH  36  38
ATOM     38  C   LIG    1      -33.305  79.073  28.009  0.00  0.00    +0.075 C 
ATOM     39  C   LIG    1      -34.799  78.912  28.104  0.00  0.00    +0.013 C 
ATOM     40  C   LIG    1      -34.199  80.245  27.743  0.00  0.00    +0.013 C 
ENDBRANCH  36  38
ENDBRANCH  30  34
ENDBRANCH  27  28
ENDBRANCH   5  27
TORSDOF 8
ENDMDL
MODEL 2
REMARK VINA RESULT:      -6.1     17.027     20.840
REMARK  Name = pdb/CHEMBL3545365.pdb
REMARK                            x       y       z     vdW  Elec       q    Type
REMARK                         _______ _______ _______ _____ _____    ______ ____
ROOT
ATOM      1  C   LIG    1      -25.753  78.918  12.782  0.00  0.00    +0.072 A 
ATOM      2  C   LIG    1      -25.949  79.167  11.417  0.00  0.00    +0.148 A 
ATOM      3  F   LIG    1      -25.120  79.977  10.744  0.00  0.00    -0.203 F 
ATOM      4  C   LIG    1      -27.044  78.641  10.731  0.00  0.00    +0.089 A 
ATOM      5  C   LIG    1      -27.946  77.798  11.386  0.00  0.00    +0.166 A 
ATOM      6  C   LIG    1      -27.792  77.605  12.765  0.00  0.00    +0.167 A 
ATOM      7  F   LIG    1      -28.659  76.837  13.443  0.00  0.00    -0.202 F 
ATOM      8  C   LIG    1      -26.716  78.173  13.467  0.00  0.00    +0.068 A 
ENDROOT
BRANCH   1  10
ATOM      9  C   LIG    1      -24.534  80.722  13.889  0.00  0.00    +0.232 C 
ATOM     10  N   LIG    1      -24.609  79.398  13.475  0.00  0.00    -0.282 N 
ATOM     11  H   LIG    1      -23.723  78.925  13.332  0.00  0.00    +0.155 HD
ATOM     12  O   LIG    1      -25.392  81.578  13.683  0.00  0.00    -0.274 OA
BRANCH   9  13
ATOM     13  C   LIG    1      -23.261  81.141  14.587  0.00  0.00    +0.123 C 
ATOM     14  C   LIG    1      -23.187  80.833  16.089  0.00  0.00    +0.027 C 
ATOM     15  C   LIG    1      -22.362  80.028  15.138  0.00  0.00    +0.027 C 
BRANCH  13  18
ATOM     16  N   LIG    1      -23.244  83.588  14.446  0.00  0.00    -0.285 N 
ATOM     17  H   LIG    1      -24.188  83.508  14.794  0.00  0.00    +0.155 HD
ATOM     18  C   LIG    1      -22.596  82.406  14.139  0.00  0.00    +0.232 C 
ATOM     19  O   LIG    1      -21.530  82.288  13.503  0.00  0.00    -0.274 OA
BRANCH  16  24
ATOM     20  F   LIG    1      -21.841  88.854  13.400  0.00  0.00    -0.205 F 
ATOM     21  C   LIG    1      -22.099  87.560  13.630  0.00  0.00    +0.124 A 
ATOM     22  C   LIG    1      -22.063  87.070  14.930  0.00  0.00    +0.040 A 
ATOM     23  C   LIG    1      -22.379  85.728  15.175  0.00  0.00    +0.026 A 
ATOM     24  C   LIG    1      -22.777  84.891  14.126  0.00  0.00    +0.034 A 
ATOM     25  C   LIG    1      -22.743  85.388  12.815  0.00  0.00    +0.026 A 
ATOM     26  C   LIG    1      -22.408  86.723  12.568  0.00  0.00    +0.040 A 
ENDBRANCH  16  24
ENDBRANCH  13  18
ENDBRANCH   9  13
ENDBRANCH   1  10
BRANCH   5  27
ATOM     27  O   LIG    1      -28.993  77.175  10.726  0.00  0.00    -0.453 OA
BRANCH  27  28
ATOM     28  C   LIG    1      -30.259  77.735  10.828  0.00  0.00    +0.133 A 
ATOM     29  C   LIG    1      -30.461  79.090  11.122  0.00  0.00    +0.090 A 
ATOM     30  C   LIG    1      -31.756  79.547  11.265  0.00  0.00    +0.128 A 
ATOM     31  N   LIG    1      -32.807  78.734  11.079  0.00  0.00    -0.240 NA
ATOM     32  C   LIG    1      -32.612  77.447  10.775  0.00  0.00    +0.116 A 
ATOM     33  C   LIG    1      -31.359  76.904  10.608  0.00  0.00    +0.066 A 
BRANCH  30  34
ATOM     34  N   LIG    1      -31.981  80.874  11.614  0.00  0.00    -0.270 N 
ATOM     35  H   LIG    1      -31.934  81.136  12.590  0.00  0.00    +0.156 HD
ATOM     36  C   LIG    1      -32.260  81.936  10.765  0.00  0.00    +0.221 C 
ATOM     37  O   LIG    1      -32.454  83.046  11.225  0.00  0.00    -0.275 OA
BRANCH  36  38
ATOM     38  C   LIG    1      -32.330  81.689   9.289  0.00  0.00    +0.075 C 
ATOM     39  C   LIG    1      -31.105  81.935   8.449  0.00  0.00    +0.013 C 
ATOM     40  C   LIG    1      -32.333  82.788   8.271  0.00  0.00    +0.013 C 
ENDBRANCH  36  38
ENDBRANCH  30  34
ENDBRANCH  27  28
ENDBRANCH   5  27
TORSDOF 8
ENDMDL
MODEL 3
REMARK VINA RESULT:      -6.1      3.855     11.348
REMARK  Name = pdb/CHEMBL3545365.pdb
REMARK                            x       y       z     vdW  Elec       q    Type
REMARK                         _______ _______ _______ _____ _____    ______ ____
ROOT
ATOM      1  C   LIG    1      -38.058  72.554  24.764  0.00  0.00    +0.072 A 
ATOM      2  C   LIG    1      -39.274  72.180  24.176  0.00  0.00    +0.148 A 
ATOM      3  F   LIG    1      -40.178  73.107  23.827  0.00  0.00    -0.203 F 
ATOM      4  C   LIG    1      -39.614  70.839  23.995  0.00  0.00    +0.089 A 
ATOM      5  C   LIG    1      -38.714  69.831  24.351  0.00  0.00    +0.166 A 
ATOM      6  C   LIG    1      -37.530  70.198  25.004  0.00  0.00    +0.167 A 
ATOM      7  F   LIG    1      -36.656  69.261  25.399  0.00  0.00    -0.202 F 
ATOM      8  C   LIG    1      -37.208  71.547  25.228  0.00  0.00    +0.068 A 
ENDROOT
BRANCH   1  10
ATOM      9  C   LIG    1      -38.193  74.702  25.918  0.00  0.00    +0.232 C 
ATOM     10  N   LIG    1      -37.676  73.915  24.896  0.00  0.00    -0.282 N 
ATOM     11  H   LIG    1      -37.359  74.411  24.069  0.00  0.00    +0.155 HD
ATOM     12  O   LIG    1      -39.015  74.328  26.753  0.00  0.00    -0.274 OA
BRANCH   9  13
ATOM     13  C   LIG    1      -37.750  76.146  25.949  0.00  0.00    +0.123 C 
ATOM     14  C   LIG    1      -37.796  76.891  24.608  0.00  0.00    +0.027 C 
ATOM     15  C   LIG    1      -38.809  77.215  25.657  0.00  0.00    +0.027 C 
BRANCH  13  18
ATOM     16  N   LIG    1      -35.505  75.717  26.837  0.00  0.00    -0.285 N 
ATOM     17  H   LIG    1      -35.583  74.852  26.323  0.00  0.00    +0.155 HD
ATOM     18  C   LIG    1      -36.631  76.519  26.873  0.00  0.00    +0.232 C 
ATOM     19  O   LIG    1      -36.818  77.502  27.617  0.00  0.00    -0.274 OA
BRANCH  16  24
ATOM     20  F   LIG    1      -30.667  76.324  29.487  0.00  0.00    -0.205 F 
ATOM     21  C   LIG    1      -31.873  76.216  28.915  0.00  0.00    +0.124 A 
ATOM     22  C   LIG    1      -32.267  77.139  27.954  0.00  0.00    +0.040 A 
ATOM     23  C   LIG    1      -33.510  76.998  27.323  0.00  0.00    +0.026 A 
ATOM     24  C   LIG    1      -34.334  75.906  27.619  0.00  0.00    +0.034 A 
ATOM     25  C   LIG    1      -33.948  75.024  28.638  0.00  0.00    +0.026 A 
ATOM     26  C   LIG    1      -32.716  75.176  29.283  0.00  0.00    +0.040 A 
ENDBRANCH  16  24
ENDBRANCH  13  18
ENDBRANCH   9  13
ENDBRANCH   1  10
BRANCH   5  27
ATOM     27  O   LIG    1      -38.966  68.491  24.104  0.00  0.00    -0.453 OA
BRANCH  27  28
ATOM     28  C   LIG    1      -39.244  68.104  22.801  0.00  0.00    +0.133 A 
ATOM     29  C   LIG    1      -38.347  68.315  21.746  0.00  0.00    +0.090 A 
ATOM     30  C   LIG    1      -38.734  67.953  20.471  0.00  0.00    +0.128 A 
ATOM     31  N   LIG    1      -39.918  67.367  20.241  0.00  0.00    -0.240 NA
ATOM     32  C   LIG    1      -40.763  67.146  21.253  0.00  0.00    +0.116 A 
ATOM     33  C   LIG    1      -40.462  67.468  22.557  0.00  0.00    +0.066 A 
BRANCH  30  34
ATOM     34  N   LIG    1      -37.885  68.205  19.399  0.00  0.00    -0.270 N 
ATOM     35  H   LIG    1      -38.003  69.062  18.873  0.00  0.00    +0.156 HD
ATOM     36  C   LIG    1      -36.842  67.411  18.941  0.00  0.00    +0.221 C 
ATOM     37  O   LIG    1      -36.195  67.759  17.970  0.00  0.00    -0.275 OA
BRANCH  36  38
ATOM     38  C   LIG    1      -36.541  66.126  19.649  0.00  0.00    +0.075 C 
ATOM     39  C   LIG    1      -35.455  66.105  20.692  0.00  0.00    +0.013 C 
ATOM     40  C   LIG    1      -35.295  65.329  19.412  0.00  0.00    +0.013 C 
ENDBRANCH  36  38
ENDBRANCH  30  34
ENDBRANCH  27  28
ENDBRANCH   5  27
TORSDOF 8
ENDMDL
MODEL 4
REMARK VINA RESULT:      -6.0      7.692     14.061
REMARK  Name = pdb/CHEMBL3545365.pdb
REMARK                            x       y       z     vdW  Elec       q    Type
REMARK                         _______ _______ _______ _____ _____    ______ ____
ROOT
ATOM      1  C   LIG    1      -27.049  75.873  32.409  0.00  0.00    +0.072 A 
ATOM      2  C   LIG    1      -27.756  74.727  32.020  0.00  0.00    +0.148 A 
ATOM      3  F   LIG    1      -27.107  73.637  31.588  0.00  0.00    -0.203 F 
ATOM      4  C   LIG    1      -29.151  74.704  32.004  0.00  0.00    +0.089 A 
ATOM      5  C   LIG    1      -29.879  75.816  32.434  0.00  0.00    +0.166 A 
ATOM      6  C   LIG    1      -29.176  76.985  32.754  0.00  0.00    +0.167 A 
ATOM      7  F   LIG    1      -29.836  78.090  33.132  0.00  0.00    -0.202 F 
ATOM      8  C   LIG    1      -27.772  77.025  32.726  0.00  0.00    +0.068 A 
ENDROOT
BRANCH   1  10
ATOM      9  C   LIG    1      -24.863  76.295  31.403  0.00  0.00    +0.232 C 
ATOM     10  N   LIG    1      -25.630  75.888  32.487  0.00  0.00    -0.282 N 
ATOM     11  H   LIG    1      -25.176  75.262  33.144  0.00  0.00    +0.155 HD
ATOM     12  O   LIG    1      -25.308  76.640  30.310  0.00  0.00    -0.274 OA
BRANCH   9  13
ATOM     13  C   LIG    1      -23.363  76.241  31.578  0.00  0.00    +0.123 C 
ATOM     14  C   LIG    1      -22.675  74.966  31.070  0.00  0.00    +0.027 C 
ATOM     15  C   LIG    1      -22.506  76.240  30.307  0.00  0.00    +0.027 C 
BRANCH  13  18
ATOM     16  N   LIG    1      -21.932  77.943  32.610  0.00  0.00    -0.285 N 
ATOM     17  H   LIG    1      -21.643  78.122  31.659  0.00  0.00    +0.155 HD
ATOM     18  C   LIG    1      -22.775  76.864  32.806  0.00  0.00    +0.232 C 
ATOM     19  O   LIG    1      -23.070  76.344  33.900  0.00  0.00    -0.274 OA
BRANCH  16  24
ATOM     20  F   LIG    1      -19.371  80.397  36.877  0.00  0.00    -0.205 F 
ATOM     21  C   LIG    1      -19.978  79.878  35.803  0.00  0.00    +0.124 A 
ATOM     22  C   LIG    1      -19.269  79.050  34.942  0.00  0.00    +0.040 A 
ATOM     23  C   LIG    1      -19.918  78.470  33.844  0.00  0.00    +0.026 A 
ATOM     24  C   LIG    1      -21.285  78.681  33.637  0.00  0.00    +0.034 A 
ATOM     25  C   LIG    1      -21.967  79.572  34.478  0.00  0.00    +0.026 A 
ATOM     26  C   LIG    1      -21.314  80.168  35.563  0.00  0.00    +0.040 A 
ENDBRANCH  16  24
ENDBRANCH  13  18
ENDBRANCH   9  13
ENDBRANCH   1  10
BRANCH   5  27
ATOM     27  O   LIG    1      -31.261  75.808  32.526  0.00  0.00    -0.453 OA
BRANCH  27  28
ATOM     28  C   LIG    1      -31.997  75.687  31.356  0.00  0.00    +0.133 A 
ATOM     29  C   LIG    1      -31.623  76.319  30.164  0.00  0.00    +0.090 A 
ATOM     30  C   LIG    1      -32.449  76.192  29.065  0.00  0.00    +0.128 A 
ATOM     31  N   LIG    1      -33.561  75.443  29.109  0.00  0.00    -0.240 NA
ATOM     32  C   LIG    1      -33.903  74.821  30.242  0.00  0.00    +0.116 A 
ATOM     33  C   LIG    1      -33.140  74.886  31.386  0.00  0.00    +0.066 A 
BRANCH  30  34
ATOM     34  N   LIG    1      -32.130  76.858  27.886  0.00  0.00    -0.270 N 
ATOM     35  H   LIG    1      -31.527  76.400  27.215  0.00  0.00    +0.156 HD
ATOM     36  C   LIG    1      -32.557  78.116  27.483  0.00  0.00    +0.221 C 
ATOM     37  O   LIG    1      -32.174  78.577  26.424  0.00  0.00    -0.275 OA
BRANCH  36  38
ATOM     38  C   LIG    1      -33.479  78.891  28.373  0.00  0.00    +0.075 C 
ATOM     39  C   LIG    1      -34.964  78.799  28.145  0.00  0.00    +0.013 C 
ATOM     40  C   LIG    1      -34.240  80.099  27.919  0.00  0.00    +0.013 C 
ENDBRANCH  36  38
ENDBRANCH  30  34
ENDBRANCH  27  28
ENDBRANCH   5  27
TORSDOF 8
ENDMDL
MODEL 5
REMARK VINA RESULT:      -6.0      8.700     14.348
REMARK  Name = pdb/CHEMBL3545365.pdb
REMARK                            x       y       z     vdW  Elec       q    Type
REMARK                         _______ _______ _______ _____ _____    ______ ____
ROOT
ATOM      1  C   LIG    1      -32.471  85.182  31.023  0.00  0.00    +0.072 A 
ATOM      2  C   LIG    1      -32.379  85.515  32.381  0.00  0.00    +0.148 A 
ATOM      3  F   LIG    1      -33.232  84.991  33.273  0.00  0.00    -0.203 F 
ATOM      4  C   LIG    1      -31.450  86.449  32.840  0.00  0.00    +0.089 A 
ATOM      5  C   LIG    1      -30.544  87.035  31.953  0.00  0.00    +0.166 A 
ATOM      6  C   LIG    1      -30.680  86.758  30.586  0.00  0.00    +0.167 A 
ATOM      7  F   LIG    1      -29.858  87.331  29.694  0.00  0.00    -0.202 F 
ATOM      8  C   LIG    1      -31.646  85.853  30.117  0.00  0.00    +0.068 A 
ENDROOT
BRANCH   1  10
ATOM      9  C   LIG    1      -34.314  84.487  29.578  0.00  0.00    +0.232 C 
ATOM     10  N   LIG    1      -33.371  84.188  30.554  0.00  0.00    -0.282 N 
ATOM     11  H   LIG    1      -33.595  83.411  31.166  0.00  0.00    +0.155 HD
ATOM     12  O   LIG    1      -34.477  85.593  29.067  0.00  0.00    -0.274 OA
BRANCH   9  13
ATOM     13  C   LIG    1      -35.246  83.369  29.174  0.00  0.00    +0.123 C 
ATOM     14  C   LIG    1      -36.722  83.558  29.550  0.00  0.00    +0.027 C 
ATOM     15  C   LIG    1      -36.312  83.688  28.120  0.00  0.00    +0.027 C 
BRANCH  13  18
ATOM     16  N   LIG    1      -34.751  81.252  28.041  0.00  0.00    -0.285 N 
ATOM     17  H   LIG    1      -35.267  81.663  27.277  0.00  0.00    +0.155 HD
ATOM     18  C   LIG    1      -34.726  81.965  29.225  0.00  0.00    +0.232 C 
ATOM     19  O   LIG    1      -34.340  81.547  30.335  0.00  0.00    -0.274 OA
BRANCH  16  24
ATOM     20  F   LIG    1      -33.036  76.101  26.894  0.00  0.00    -0.205 F 
ATOM     21  C   LIG    1      -33.420  77.333  27.251  0.00  0.00    +0.124 A 
ATOM     22  C   LIG    1      -32.623  78.425  26.929  0.00  0.00    +0.040 A 
ATOM     23  C   LIG    1      -33.049  79.717  27.262  0.00  0.00    +0.026 A 
ATOM     24  C   LIG    1      -34.292  79.918  27.873  0.00  0.00    +0.034 A 
ATOM     25  C   LIG    1      -35.049  78.799  28.248  0.00  0.00    +0.026 A 
ATOM     26  C   LIG    1      -34.615  77.507  27.934  0.00  0.00    +0.040 A 
ENDBRANCH  16  24
ENDBRANCH  13  18
ENDBRANCH   9  13
ENDBRANCH   1  10
BRANCH   5  27
ATOM     27  O   LIG    1      -29.542  87.895  32.374  0.00  0.00    -0.453 OA
BRANCH  27  28
ATOM     28  C   LIG    1      -29.150  87.843  33.705  0.00  0.00    +0.133 A 
ATOM     29  C   LIG    1      -28.168  86.956  34.165  0.00  0.00    +0.090 A 
ATOM     30  C   LIG    1      -27.885  86.931  35.516  0.00  0.00    +0.128 A 
ATOM     31  N   LIG    1      -28.493  87.766  36.372  0.00  0.00    -0.240 NA
ATOM     32  C   LIG    1      -29.413  88.628  35.926  0.00  0.00    +0.116 A 
ATOM     33  C   LIG    1      -29.757  88.728  34.597  0.00  0.00    +0.066 A 
BRANCH  30  34
ATOM     34  N   LIG    1      -26.957  86.019  36.006  0.00  0.00    -0.270 N 
ATOM     35  H   LIG    1      -25.995  86.314  36.117  0.00  0.00    +0.156 HD
ATOM     36  C   LIG    1      -27.184  84.706  36.394  0.00  0.00    +0.221 C 
ATOM     37  O   LIG    1      -26.259  84.020  36.787  0.00  0.00    -0.275 OA
BRANCH  36  38
ATOM     38  C   LIG    1      -28.574  84.152  36.307  0.00  0.00    +0.075 C 
ATOM     39  C   LIG    1      -29.466  84.225  37.518  0.00  0.00    +0.013 C 
ATOM     40  C   LIG    1      -29.002  82.892  36.994  0.00  0.00    +0.013 C 
ENDBRANCH  36  38
ENDBRANCH  30  34
ENDBRANCH  27  28
ENDBRANCH   5  27
TORSDOF 8
ENDMDL
MODEL 6
REMARK VINA RESULT:      -5.9     16.877     21.091
REMARK  Name = pdb/CHEMBL3545365.pdb
REMARK                            x       y       z     vdW  Elec       q    Type
REMARK                         _______ _______ _______ _____ _____    ______ ____
ROOT
ATOM      1  C   LIG    1      -25.254  79.731  13.854  0.00  0.00    +0.072 A 
ATOM      2  C   LIG    1      -25.988  78.852  14.662  0.00  0.00    +0.148 A 
ATOM      3  F   LIG    1      -25.937  78.946  15.998  0.00  0.00    -0.203 F 
ATOM      4  C   LIG    1      -26.739  77.812  14.111  0.00  0.00    +0.089 A 
ATOM      5  C   LIG    1      -26.819  77.660  12.724  0.00  0.00    +0.166 A 
ATOM      6  C   LIG    1      -26.030  78.492  11.919  0.00  0.00    +0.167 A 
ATOM      7  F   LIG    1      -26.044  78.354  10.584  0.00  0.00    -0.202 F 
ATOM      8  C   LIG    1      -25.237  79.509  12.475  0.00  0.00    +0.068 A 
ENDROOT
BRANCH   1  10
ATOM      9  C   LIG    1      -23.169  80.740  14.631  0.00  0.00    +0.232 C 
ATOM     10  N   LIG    1      -24.536  80.828  14.401  0.00  0.00    -0.282 N 
ATOM     11  H   LIG    1      -25.041  81.501  14.969  0.00  0.00    +0.155 HD
ATOM     12  O   LIG    1      -22.479  79.743  14.424  0.00  0.00    -0.274 OA
BRANCH   9  13
ATOM     13  C   LIG    1      -22.507  81.950  15.247  0.00  0.00    +0.123 C 
ATOM     14  C   LIG    1      -22.603  82.062  16.775  0.00  0.00    +0.027 C 
ATOM     15  C   LIG    1      -21.293  81.705  16.151  0.00  0.00    +0.027 C 
BRANCH  13  18
ATOM     16  N   LIG    1      -21.801  84.284  14.994  0.00  0.00    -0.285 N 
ATOM     17  H   LIG    1      -21.417  84.156  15.919  0.00  0.00    +0.155 HD
ATOM     18  C   LIG    1      -22.553  83.240  14.487  0.00  0.00    +0.232 C 
ATOM     19  O   LIG    1      -23.284  83.274  13.478  0.00  0.00    -0.274 OA
BRANCH  16  24
ATOM     20  F   LIG    1      -21.050  89.445  13.098  0.00  0.00    -0.205 F 
ATOM     21  C   LIG    1      -21.277  88.183  13.484  0.00  0.00    +0.124 A 
ATOM     22  C   LIG    1      -20.299  87.215  13.288  0.00  0.00    +0.040 A 
ATOM     23  C   LIG    1      -20.519  85.905  13.735  0.00  0.00    +0.026 A 
ATOM     24  C   LIG    1      -21.696  85.579  14.419  0.00  0.00    +0.034 A 
ATOM     25  C   LIG    1      -22.696  86.553  14.547  0.00  0.00    +0.026 A 
ATOM     26  C   LIG    1      -22.485  87.856  14.083  0.00  0.00    +0.040 A 
ENDBRANCH  16  24
ENDBRANCH  13  18
ENDBRANCH   9  13
ENDBRANCH   1  10
BRANCH   5  27
ATOM     27  O   LIG    1      -27.625  76.705  12.127  0.00  0.00    -0.453 OA
BRANCH  27  28
ATOM     28  C   LIG    1      -28.753  77.133  11.441  0.00  0.00    +0.133 A 
ATOM     29  C   LIG    1      -29.426  78.317  11.766  0.00  0.00    +0.090 A 
ATOM     30  C   LIG    1      -30.575  78.633  11.070  0.00  0.00    +0.128 A 
ATOM     31  N   LIG    1      -31.021  77.858  10.069  0.00  0.00    -0.240 NA
ATOM     32  C   LIG    1      -30.363  76.740   9.746  0.00  0.00    +0.116 A 
ATOM     33  C   LIG    1      -29.207  76.347  10.380  0.00  0.00    +0.066 A 
BRANCH  30  34
ATOM     34  N   LIG    1      -31.294  79.774  11.412  0.00  0.00    -0.270 N 
ATOM     35  H   LIG    1      -31.766  79.803  12.306  0.00  0.00    +0.156 HD
ATOM     36  C   LIG    1      -31.446  80.934  10.665  0.00  0.00    +0.221 C 
ATOM     37  O   LIG    1      -32.127  81.847  11.094  0.00  0.00    -0.275 OA
BRANCH  36  38
ATOM     38  C   LIG    1      -30.773  81.033   9.331  0.00  0.00    +0.075 C 
ATOM     39  C   LIG    1      -29.414  81.678   9.244  0.00  0.00    +0.013 C 
ATOM     40  C   LIG    1      -30.605  82.323   8.588  0.00  0.00    +0.013 C 
ENDBRANCH  36  38
ENDBRANCH  30  34
ENDBRANCH  27  28
ENDBRANCH   5  27
TORSDOF 8
ENDMDL
MODEL 7
REMARK VINA RESULT:      -5.9      8.034     14.670
REMARK  Name = pdb/CHEMBL3545365.pdb
REMARK                            x       y       z     vdW  Elec       q    Type
REMARK                         _______ _______ _______ _____ _____    ______ ____
ROOT
ATOM      1  C   LIG    1      -25.881  75.744  31.716  0.00  0.00    +0.072 A 
ATOM      2  C   LIG    1      -26.366  74.434  31.824  0.00  0.00    +0.148 A 
ATOM      3  F   LIG    1      -25.541  73.386  31.688  0.00  0.00    -0.203 F 
ATOM      4  C   LIG    1      -27.725  74.173  32.005  0.00  0.00    +0.089 A 
ATOM      5  C   LIG    1      -28.631  75.227  32.142  0.00  0.00    +0.166 A 
ATOM      6  C   LIG    1      -28.161  76.535  31.964  0.00  0.00    +0.167 A 
ATOM      7  F   LIG    1      -29.004  77.575  32.046  0.00  0.00    -0.202 F 
ATOM      8  C   LIG    1      -26.800  76.796  31.734  0.00  0.00    +0.068 A 
ENDROOT
BRANCH   1  10
ATOM      9  C   LIG    1      -23.691  76.148  32.720  0.00  0.00    +0.232 C 
ATOM     10  N   LIG    1      -24.493  76.022  31.593  0.00  0.00    -0.282 N 
ATOM     11  H   LIG    1      -24.169  76.500  30.759  0.00  0.00    +0.155 HD
ATOM     12  O   LIG    1      -24.085  76.065  33.882  0.00  0.00    -0.274 OA
BRANCH   9  13
ATOM     13  C   LIG    1      -22.236  76.478  32.481  0.00  0.00    +0.123 C 
ATOM     14  C   LIG    1      -21.270  75.285  32.481  0.00  0.00    +0.027 C 
ATOM     15  C   LIG    1      -21.600  75.957  31.188  0.00  0.00    +0.027 C 
BRANCH  13  18
ATOM     16  N   LIG    1      -22.230  78.170  34.255  0.00  0.00    -0.285 N 
ATOM     17  H   LIG    1      -23.045  77.673  34.584  0.00  0.00    +0.155 HD
ATOM     18  C   LIG    1      -21.704  77.760  33.045  0.00  0.00    +0.232 C 
ATOM     19  O   LIG    1      -20.852  78.364  32.363  0.00  0.00    -0.274 OA
BRANCH  16  24
ATOM     20  F   LIG    1      -20.679  82.966  36.575  0.00  0.00    -0.205 F 
ATOM     21  C   LIG    1      -21.080  81.783  36.093  0.00  0.00    +0.124 A 
ATOM     22  C   LIG    1      -22.313  81.675  35.464  0.00  0.00    +0.040 A 
ATOM     23  C   LIG    1      -22.711  80.447  34.919  0.00  0.00    +0.026 A 
ATOM     24  C   LIG    1      -21.853  79.342  34.963  0.00  0.00    +0.034 A 
ATOM     25  C   LIG    1      -20.642  79.454  35.661  0.00  0.00    +0.026 A 
ATOM     26  C   LIG    1      -20.254  80.675  36.223  0.00  0.00    +0.040 A 
ENDBRANCH  16  24
ENDBRANCH  13  18
ENDBRANCH   9  13
ENDBRANCH   1  10
BRANCH   5  27
ATOM     27  O   LIG    1      -29.973  75.021  32.418  0.00  0.00    -0.453 OA
BRANCH  27  28
ATOM     28  C   LIG    1      -30.862  74.965  31.354  0.00  0.00    +0.133 A 
ATOM     29  C   LIG    1      -31.774  75.993  31.082  0.00  0.00    +0.090 A 
ATOM     30  C   LIG    1      -32.663  75.825  30.039  0.00  0.00    +0.128 A 
ATOM     31  N   LIG    1      -32.633  74.729  29.265  0.00  0.00    -0.240 NA
ATOM     32  C   LIG    1      -31.746  73.760  29.513  0.00  0.00    +0.116 A 
ATOM     33  C   LIG    1      -30.818  73.842  30.527  0.00  0.00    +0.066 A 
BRANCH  30  34
ATOM     34  N   LIG    1      -33.616  76.805  29.785  0.00  0.00    -0.270 N 
ATOM     35  H   LIG    1      -34.463  76.818  30.338  0.00  0.00    +0.156 HD
ATOM     36  C   LIG    1      -33.553  77.822  28.841  0.00  0.00    +0.221 C 
ATOM     37  O   LIG    1      -34.483  78.598  28.722  0.00  0.00    -0.275 OA
BRANCH  36  38
ATOM     38  C   LIG    1      -32.338  77.934  27.972  0.00  0.00    +0.075 C 
ATOM     39  C   LIG    1      -32.316  78.967  26.876  0.00  0.00    +0.013 C 
ATOM     40  C   LIG    1      -32.308  77.499  26.539  0.00  0.00    +0.013 C 
ENDBRANCH  36  38
ENDBRANCH  30  34
ENDBRANCH  27  28
ENDBRANCH   5  27
TORSDOF 8
ENDMDL
MODEL 8
REMARK VINA RESULT:      -5.8     16.501     18.604
REMARK  Name = pdb/CHEMBL3545365.pdb
REMARK                            x       y       z     vdW  Elec       q    Type
REMARK                         _______ _______ _______ _____ _____    ______ ____
ROOT
ATOM      1  C   LIG    1      -25.156  80.152  14.450  0.00  0.00    +0.072 A 
ATOM      2  C   LIG    1      -24.422  79.787  15.587  0.00  0.00    +0.148 A 
ATOM      3  F   LIG    1      -24.817  78.762  16.356  0.00  0.00    -0.203 F 
ATOM      4  C   LIG    1      -23.303  80.512  15.995  0.00  0.00    +0.089 A 
ATOM      5  C   LIG    1      -22.852  81.597  15.237  0.00  0.00    +0.166 A 
ATOM      6  C   LIG    1      -23.624  82.007  14.142  0.00  0.00    +0.167 A 
ATOM      7  F   LIG    1      -23.251  83.068  13.411  0.00  0.00    -0.202 F 
ATOM      8  C   LIG    1      -24.778  81.305  13.758  0.00  0.00    +0.068 A 
ENDROOT
BRANCH   1  10
ATOM      9  C   LIG    1      -26.063  78.255  13.208  0.00  0.00    +0.232 C 
ATOM     10  N   LIG    1      -26.260  79.384  13.992  0.00  0.00    -0.282 N 
ATOM     11  H   LIG    1      -27.160  79.842  13.896  0.00  0.00    +0.155 HD
ATOM     12  O   LIG    1      -24.970  77.841  12.824  0.00  0.00    -0.274 OA
BRANCH   9  13
ATOM     13  C   LIG    1      -27.304  77.529  12.744  0.00  0.00    +0.123 C 
ATOM     14  C   LIG    1      -27.142  76.025  12.480  0.00  0.00    +0.027 C 
ATOM     15  C   LIG    1      -27.898  76.476  13.687  0.00  0.00    +0.027 C 
BRANCH  13  18
ATOM     16  N   LIG    1      -29.574  77.856  11.876  0.00  0.00    -0.285 N 
ATOM     17  H   LIG    1      -29.771  76.999  12.371  0.00  0.00    +0.155 HD
ATOM     18  C   LIG    1      -28.251  78.259  11.842  0.00  0.00    +0.232 C 
ATOM     19  O   LIG    1      -27.765  79.149  11.117  0.00  0.00    -0.274 OA
BRANCH  16  24
ATOM     20  F   LIG    1      -34.008  79.803   9.168  0.00  0.00    -0.205 F 
ATOM     21  C   LIG    1      -32.891  79.394   9.783  0.00  0.00    +0.124 A 
ATOM     22  C   LIG    1      -32.636  79.793  11.089  0.00  0.00    +0.040 A 
ATOM     23  C   LIG    1      -31.491  79.327  11.747  0.00  0.00    +0.026 A 
ATOM     24  C   LIG    1      -30.628  78.426  11.113  0.00  0.00    +0.034 A 
ATOM     25  C   LIG    1      -30.868  78.088   9.774  0.00  0.00    +0.026 A 
ATOM     26  C   LIG    1      -32.001  78.570   9.109  0.00  0.00    +0.040 A 
ENDBRANCH  16  24
ENDBRANCH  13  18
ENDBRANCH   9  13
ENDBRANCH   1  10
BRANCH   5  27
ATOM     27  O   LIG    1      -21.693  82.289  15.548  0.00  0.00    -0.453 OA
BRANCH  27  28
ATOM     28  C   LIG    1      -20.478  81.633  15.404  0.00  0.00    +0.133 A 
ATOM     29  C   LIG    1      -20.115  80.539  16.202  0.00  0.00    +0.090 A 
ATOM     30  C   LIG    1      -18.862  79.988  16.030  0.00  0.00    +0.128 A 
ATOM     31  N   LIG    1      -18.019  80.446  15.093  0.00  0.00    -0.240 NA
ATOM     32  C   LIG    1      -18.377  81.474  14.317  0.00  0.00    +0.116 A 
ATOM     33  C   LIG    1      -19.607  82.085  14.412  0.00  0.00    +0.066 A 
BRANCH  30  34
ATOM     34  N   LIG    1      -18.456  78.939  16.849  0.00  0.00    -0.270 N 
ATOM     35  H   LIG    1      -18.037  79.153  17.745  0.00  0.00    +0.156 HD
ATOM     36  C   LIG    1      -18.565  77.578  16.598  0.00  0.00    +0.221 C 
ATOM     37  O   LIG    1      -18.143  76.775  17.409  0.00  0.00    -0.275 OA
BRANCH  36  38
ATOM     38  C   LIG    1      -19.195  77.124  15.317  0.00  0.00    +0.075 C 
ATOM     39  C   LIG    1      -20.684  76.904  15.272  0.00  0.00    +0.013 C 
ATOM     40  C   LIG    1      -19.740  75.743  15.112  0.00  0.00    +0.013 C 
ENDBRANCH  36  38
ENDBRANCH  30  34
ENDBRANCH  27  28
ENDBRANCH   5  27
TORSDOF 8
ENDMDL
MODEL 9
REMARK VINA RESULT:      -5.8     16.095     20.719
REMARK  Name = pdb/CHEMBL3545365.pdb
REMARK                            x       y       z     vdW  Elec       q    Type
REMARK                         _______ _______ _______ _____ _____    ______ ____
ROOT
ATOM      1  C   LIG    1      -24.271  79.272  14.091  0.00  0.00    +0.072 A 
ATOM      2  C   LIG    1      -25.326  78.710  14.822  0.00  0.00    +0.148 A 
ATOM      3  F   LIG    1      -25.394  78.864  16.152  0.00  0.00    -0.203 F 
ATOM      4  C   LIG    1      -26.298  77.920  14.208  0.00  0.00    +0.089 A 
ATOM      5  C   LIG    1      -26.270  77.717  12.826  0.00  0.00    +0.166 A 
ATOM      6  C   LIG    1      -25.178  78.217  12.104  0.00  0.00    +0.167 A 
ATOM      7  F   LIG    1      -25.089  78.010  10.781  0.00  0.00    -0.202 F 
ATOM      8  C   LIG    1      -24.173  78.974  12.729  0.00  0.00    +0.068 A 
ENDROOT
BRANCH   1  10
ATOM      9  C   LIG    1      -23.538  81.495  14.789  0.00  0.00    +0.232 C 
ATOM     10  N   LIG    1      -23.312  80.128  14.695  0.00  0.00    -0.282 N 
ATOM     11  H   LIG    1      -22.340  79.836  14.702  0.00  0.00    +0.155 HD
ATOM     12  O   LIG    1      -24.529  82.080  14.354  0.00  0.00    -0.274 OA
BRANCH   9  13
ATOM     13  C   LIG    1      -22.441  82.321  15.418  0.00  0.00    +0.123 C 
ATOM     14  C   LIG    1      -22.398  82.321  16.953  0.00  0.00    +0.027 C 
ATOM     15  C   LIG    1      -21.353  81.571  16.194  0.00  0.00    +0.027 C 
BRANCH  13  18
ATOM     16  N   LIG    1      -22.939  84.655  14.858  0.00  0.00    -0.285 N 
ATOM     17  H   LIG    1      -23.851  84.439  15.234  0.00  0.00    +0.155 HD
ATOM     18  C   LIG    1      -22.051  83.602  14.746  0.00  0.00    +0.232 C 
ATOM     19  O   LIG    1      -20.973  83.604  14.119  0.00  0.00    -0.274 OA
BRANCH  16  24
ATOM     20  F   LIG    1      -21.855  89.523  12.425  0.00  0.00    -0.205 F 
ATOM     21  C   LIG    1      -22.186  88.385  13.047  0.00  0.00    +0.124 A 
ATOM     22  C   LIG    1      -22.859  87.388  12.352  0.00  0.00    +0.040 A 
ATOM     23  C   LIG    1      -23.164  86.179  12.992  0.00  0.00    +0.026 A 
ATOM     24  C   LIG    1      -22.752  85.952  14.310  0.00  0.00    +0.034 A 
ATOM     25  C   LIG    1      -22.134  86.995  15.014  0.00  0.00    +0.026 A 
ATOM     26  C   LIG    1      -21.848  88.210  14.382  0.00  0.00    +0.040 A 
ENDBRANCH  16  24
ENDBRANCH  13  18
ENDBRANCH   9  13
ENDBRANCH   1  10
BRANCH   5  27
ATOM     27  O   LIG    1      -27.264  77.020  12.157  0.00  0.00    -0.453 OA
BRANCH  27  28
ATOM     28  C   LIG    1      -27.168  75.637  12.095  0.00  0.00    +0.133 A 
ATOM     29  C   LIG    1      -27.717  74.801  13.076  0.00  0.00    +0.090 A 
ATOM     30  C   LIG    1      -27.520  73.439  12.964  0.00  0.00    +0.128 A 
ATOM     31  N   LIG    1      -26.862  72.911  11.920  0.00  0.00    -0.240 NA
ATOM     32  C   LIG    1      -26.360  73.711  10.973  0.00  0.00    +0.116 A 
ATOM     33  C   LIG    1      -26.510  75.078  10.998  0.00  0.00    +0.066 A 
BRANCH  30  34
ATOM     34  N   LIG    1      -28.004  72.592  13.955  0.00  0.00    -0.270 N 
ATOM     35  H   LIG    1      -28.927  72.191  13.846  0.00  0.00    +0.156 HD
ATOM     36  C   LIG    1      -27.359  72.193  15.117  0.00  0.00    +0.221 C 
ATOM     37  O   LIG    1      -27.924  71.457  15.904  0.00  0.00    -0.275 OA
BRANCH  36  38
ATOM     38  C   LIG    1      -25.972  72.692  15.387  0.00  0.00    +0.075 C 
ATOM     39  C   LIG    1      -24.798  71.867  14.930  0.00  0.00    +0.013 C 
ATOM     40  C   LIG    1      -25.057  72.073  16.399  0.00  0.00    +0.013 C 
ENDBRANCH  36  38
ENDBRANCH  30  34
ENDBRANCH  27  28
ENDBRANCH   5  27
TORSDOF 8
ENDMDL
