MODEL 1
REMARK VINA RESULT:      -6.3      0.000      0.000
REMARK  Name = pdb/CHEMBL3977894.pdb
REMARK                            x       y       z     vdW  Elec       q    Type
REMARK                         _______ _______ _______ _____ _____    ______ ____
ROOT
ATOM      1  C   LIG    1      -31.990  73.962  29.837  0.00  0.00    +0.149 A 
ATOM      2  N   LIG    1      -31.892  75.288  29.645  0.00  0.00    -0.160 NA
ATOM      3  N   LIG    1      -32.857  75.593  28.732  0.00  0.00    -0.218 N 
ATOM      4  C   LIG    1      -33.578  74.452  28.353  0.00  0.00    +0.129 A 
ATOM      5  C   LIG    1      -33.098  73.443  29.142  0.00  0.00    +0.078 A 
ENDROOT
BRANCH   3   6
ATOM      6  C   LIG    1      -32.983  76.929  28.254  0.00  0.00    +0.067 A 
ATOM      7  C   LIG    1      -32.258  77.365  27.139  0.00  0.00    +0.028 A 
ATOM      8  C   LIG    1      -32.392  78.678  26.682  0.00  0.00    +0.002 A 
ATOM      9  C   LIG    1      -33.248  79.564  27.332  0.00  0.00    +0.000 A 
ATOM     10  C   LIG    1      -33.963  79.145  28.452  0.00  0.00    +0.002 A 
ATOM     11  C   LIG    1      -33.822  77.835  28.926  0.00  0.00    +0.028 A 
ENDBRANCH   3   6
BRANCH   4  12
ATOM     12  N   LIG    1      -34.634  74.319  27.441  0.00  0.00    -0.266 N 
ATOM     13  H   LIG    1      -34.417  74.085  26.484  0.00  0.00    +0.157 HD
ATOM     14  C   LIG    1      -36.014  74.494  27.833  0.00  0.00    +0.251 C 
ATOM     15  O   LIG    1      -36.322  74.725  28.996  0.00  0.00    -0.270 OA
BRANCH  14  16
ATOM     16  C   LIG    1      -37.078  74.279  26.840  0.00  0.00    +0.056 A 
ATOM     17  C   LIG    1      -37.398  73.009  26.337  0.00  0.00    +0.054 A 
ATOM     18 CL   LIG    1      -36.635  71.545  26.843  0.00  0.00    -0.083 Cl
ATOM     19  C   LIG    1      -38.405  72.899  25.382  0.00  0.00    +0.041 A 
ATOM     20  C   LIG    1      -39.088  74.032  24.899  0.00  0.00    +0.052 A 
ATOM     21 CL   LIG    1      -40.397  73.656  23.832  0.00  0.00    -0.083 Cl
ATOM     22  C   LIG    1      -38.760  75.331  25.336  0.00  0.00    +0.022 A 
ATOM     23  C   LIG    1      -37.736  75.404  26.321  0.00  0.00    +0.026 A 
BRANCH  22  24
ATOM     24  C   LIG    1      -39.415  76.599  24.893  0.00  0.00    +0.107 A 
ATOM     25  C   LIG    1      -38.890  77.504  23.966  0.00  0.00    +0.149 A 
ATOM     26  F   LIG    1      -37.672  77.353  23.431  0.00  0.00    -0.203 F 
ATOM     27  C   LIG    1      -39.603  78.645  23.609  0.00  0.00    +0.042 A 
ATOM     28  C   LIG    1      -40.813  78.913  24.228  0.00  0.00    +0.023 A 
ATOM     29  C   LIG    1      -41.262  78.012  25.176  0.00  0.00    +0.111 A 
ATOM     30  N   LIG    1      -40.604  76.870  25.512  0.00  0.00    -0.252 NA
ENDBRANCH  22  24
ENDBRANCH  14  16
ENDBRANCH   4  12
BRANCH   1  32
ATOM     31  N   LIG    1      -31.066  71.873  30.569  0.00  0.00    -0.247 NA
ATOM     32  C   LIG    1      -31.084  73.151  30.653  0.00  0.00    +0.236 C 
BRANCH  32  33
ATOM     33  O   LIG    1      -30.323  73.890  31.495  0.00  0.00    -0.491 OA
ATOM     34  H   LIG    1      -29.402  73.592  31.490  0.00  0.00    +0.294 HD
ENDBRANCH  32  33
BRANCH  31  35
ATOM     35  C   LIG    1      -30.192  71.057  31.411  0.00  0.00    +0.176 C 
BRANCH  35  37
ATOM     36  C   LIG    1      -27.690  71.312  31.107  0.00  0.00    +0.039 C 
ATOM     37  C   LIG    1      -28.954  70.615  30.620  0.00  0.00    +0.133 C 
BRANCH  37  38
ATOM     38  O   LIG    1      -29.133  70.958  29.241  0.00  0.00    -0.390 OA
ATOM     39  H   LIG    1      -28.423  70.498  28.754  0.00  0.00    +0.210 HD
ENDBRANCH  37  38
ENDBRANCH  35  37
ENDBRANCH  31  35
ENDBRANCH   1  32
TORSDOF 9
ENDMDL
MODEL 2
REMARK VINA RESULT:      -6.2      4.359      7.372
REMARK  Name = pdb/CHEMBL3977894.pdb
REMARK                            x       y       z     vdW  Elec       q    Type
REMARK                         _______ _______ _______ _____ _____    ______ ____
ROOT
ATOM      1  C   LIG    1      -36.504  77.268  27.080  0.00  0.00    +0.149 A 
ATOM      2  N   LIG    1      -37.568  78.007  26.725  0.00  0.00    -0.160 NA
ATOM      3  N   LIG    1      -38.293  77.216  25.885  0.00  0.00    -0.218 N 
ATOM      4  C   LIG    1      -37.689  75.963  25.717  0.00  0.00    +0.129 A 
ATOM      5  C   LIG    1      -36.617  75.962  26.565  0.00  0.00    +0.078 A 
ENDROOT
BRANCH   3   6
ATOM      6  C   LIG    1      -39.471  77.730  25.269  0.00  0.00    +0.067 A 
ATOM      7  C   LIG    1      -39.398  78.760  24.324  0.00  0.00    +0.028 A 
ATOM      8  C   LIG    1      -40.561  79.253  23.730  0.00  0.00    +0.002 A 
ATOM      9  C   LIG    1      -41.803  78.723  24.071  0.00  0.00    +0.000 A 
ATOM     10  C   LIG    1      -41.889  77.707  25.020  0.00  0.00    +0.002 A 
ATOM     11  C   LIG    1      -40.729  77.218  25.633  0.00  0.00    +0.028 A 
ENDBRANCH   3   6
BRANCH   4  12
ATOM     12  N   LIG    1      -38.091  74.869  24.937  0.00  0.00    -0.266 N 
ATOM     13  H   LIG    1      -37.664  74.740  24.033  0.00  0.00    +0.157 HD
ATOM     14  C   LIG    1      -39.082  73.922  25.396  0.00  0.00    +0.251 C 
ATOM     15  O   LIG    1      -39.583  74.014  26.511  0.00  0.00    -0.270 OA
BRANCH  14  16
ATOM     16  C   LIG    1      -39.413  72.761  24.556  0.00  0.00    +0.056 A 
ATOM     17  C   LIG    1      -40.585  72.692  23.787  0.00  0.00    +0.054 A 
ATOM     18 CL   LIG    1      -41.753  73.959  23.686  0.00  0.00    -0.083 Cl
ATOM     19  C   LIG    1      -40.831  71.545  23.038  0.00  0.00    +0.041 A 
ATOM     20  C   LIG    1      -39.942  70.453  23.053  0.00  0.00    +0.052 A 
ATOM     21 CL   LIG    1      -40.362  69.197  21.940  0.00  0.00    -0.083 Cl
ATOM     22  C   LIG    1      -38.782  70.457  23.853  0.00  0.00    +0.022 A 
ATOM     23  C   LIG    1      -38.557  71.650  24.595  0.00  0.00    +0.026 A 
BRANCH  22  24
ATOM     24  C   LIG    1      -37.774  69.358  23.948  0.00  0.00    +0.107 A 
ATOM     25  C   LIG    1      -36.971  68.899  22.899  0.00  0.00    +0.149 A 
ATOM     26  F   LIG    1      -37.094  69.364  21.649  0.00  0.00    -0.203 F 
ATOM     27  C   LIG    1      -36.045  67.882  23.110  0.00  0.00    +0.042 A 
ATOM     28  C   LIG    1      -35.967  67.280  24.355  0.00  0.00    +0.023 A 
ATOM     29  C   LIG    1      -36.820  67.736  25.343  0.00  0.00    +0.111 A 
ATOM     30  N   LIG    1      -37.704  68.756  25.173  0.00  0.00    -0.252 NA
ENDBRANCH  22  24
ENDBRANCH  14  16
ENDBRANCH   4  12
BRANCH   1  32
ATOM     31  N   LIG    1      -34.645  78.718  27.522  0.00  0.00    -0.247 NA
ATOM     32  C   LIG    1      -35.376  77.733  27.890  0.00  0.00    +0.236 C 
BRANCH  32  33
ATOM     33  O   LIG    1      -35.193  77.000  29.014  0.00  0.00    -0.491 OA
ATOM     34  H   LIG    1      -35.174  77.563  29.801  0.00  0.00    +0.294 HD
ENDBRANCH  32  33
BRANCH  31  35
ATOM     35  C   LIG    1      -33.493  79.160  28.307  0.00  0.00    +0.176 C 
BRANCH  35  37
ATOM     36  C   LIG    1      -32.321  78.028  26.369  0.00  0.00    +0.039 C 
ATOM     37  C   LIG    1      -32.221  78.449  27.829  0.00  0.00    +0.133 C 
BRANCH  37  38
ATOM     38  O   LIG    1      -32.025  77.264  28.609  0.00  0.00    -0.390 OA
ATOM     39  H   LIG    1      -32.917  76.927  28.816  0.00  0.00    +0.210 HD
ENDBRANCH  37  38
ENDBRANCH  35  37
ENDBRANCH  31  35
ENDBRANCH   1  32
TORSDOF 9
ENDMDL
MODEL 3
REMARK VINA RESULT:      -6.2      4.483      8.113
REMARK  Name = pdb/CHEMBL3977894.pdb
REMARK                            x       y       z     vdW  Elec       q    Type
REMARK                         _______ _______ _______ _____ _____    ______ ____
ROOT
ATOM      1  C   LIG    1      -37.298  79.809  27.478  0.00  0.00    +0.149 A 
ATOM      2  N   LIG    1      -36.211  79.148  27.911  0.00  0.00    -0.160 NA
ATOM      3  N   LIG    1      -36.440  77.839  27.612  0.00  0.00    -0.218 N 
ATOM      4  C   LIG    1      -37.677  77.671  26.975  0.00  0.00    +0.129 A 
ATOM      5  C   LIG    1      -38.164  78.936  26.792  0.00  0.00    +0.078 A 
ENDROOT
BRANCH   3   6
ATOM      6  C   LIG    1      -35.494  76.847  28.001  0.00  0.00    +0.067 A 
ATOM      7  C   LIG    1      -34.378  76.567  27.204  0.00  0.00    +0.028 A 
ATOM      8  C   LIG    1      -33.460  75.592  27.598  0.00  0.00    +0.002 A 
ATOM      9  C   LIG    1      -33.646  74.892  28.787  0.00  0.00    +0.000 A 
ATOM     10  C   LIG    1      -34.760  75.153  29.581  0.00  0.00    +0.002 A 
ATOM     11  C   LIG    1      -35.694  76.117  29.185  0.00  0.00    +0.028 A 
ENDBRANCH   3   6
BRANCH   4  12
ATOM     12  N   LIG    1      -38.300  76.502  26.515  0.00  0.00    -0.266 N 
ATOM     13  H   LIG    1      -39.014  76.080  27.088  0.00  0.00    +0.157 HD
ATOM     14  C   LIG    1      -37.958  75.898  25.248  0.00  0.00    +0.251 C 
ATOM     15  O   LIG    1      -37.134  76.410  24.499  0.00  0.00    -0.270 OA
BRANCH  14  16
ATOM     16  C   LIG    1      -38.693  74.706  24.796  0.00  0.00    +0.056 A 
ATOM     17  C   LIG    1      -39.925  74.785  24.129  0.00  0.00    +0.054 A 
ATOM     18 CL   LIG    1      -40.708  76.265  23.711  0.00  0.00    -0.083 Cl
ATOM     19  C   LIG    1      -40.564  73.605  23.757  0.00  0.00    +0.041 A 
ATOM     20  C   LIG    1      -40.011  72.345  24.054  0.00  0.00    +0.052 A 
ATOM     21 CL   LIG    1      -40.891  71.020  23.372  0.00  0.00    -0.083 Cl
ATOM     22  C   LIG    1      -38.804  72.219  24.770  0.00  0.00    +0.022 A 
ATOM     23  C   LIG    1      -38.174  73.444  25.122  0.00  0.00    +0.026 A 
BRANCH  22  24
ATOM     24  C   LIG    1      -38.129  70.938  25.139  0.00  0.00    +0.107 A 
ATOM     25  C   LIG    1      -37.426  70.107  24.261  0.00  0.00    +0.149 A 
ATOM     26  F   LIG    1      -37.359  70.350  22.946  0.00  0.00    -0.203 F 
ATOM     27  C   LIG    1      -36.814  68.946  24.724  0.00  0.00    +0.042 A 
ATOM     28  C   LIG    1      -36.959  68.582  26.053  0.00  0.00    +0.023 A 
ATOM     29  C   LIG    1      -37.709  69.412  26.866  0.00  0.00    +0.111 A 
ATOM     30  N   LIG    1      -38.282  70.573  26.448  0.00  0.00    -0.252 NA
ENDBRANCH  22  24
ENDBRANCH  14  16
ENDBRANCH   4  12
BRANCH   1  32
ATOM     31  N   LIG    1      -37.502  82.073  26.712  0.00  0.00    -0.247 NA
ATOM     32  C   LIG    1      -37.565  81.234  27.678  0.00  0.00    +0.236 C 
BRANCH  32  33
ATOM     33  O   LIG    1      -37.844  81.546  28.966  0.00  0.00    -0.491 OA
ATOM     34  H   LIG    1      -38.761  81.839  29.067  0.00  0.00    +0.294 HD
ENDBRANCH  32  33
BRANCH  31  35
ATOM     35  C   LIG    1      -37.727  83.503  26.915  0.00  0.00    +0.176 C 
BRANCH  35  37
ATOM     36  C   LIG    1      -37.184  84.928  24.893  0.00  0.00    +0.039 C 
ATOM     37  C   LIG    1      -36.653  84.319  26.184  0.00  0.00    +0.133 C 
BRANCH  37  38
ATOM     38  O   LIG    1      -35.564  83.455  25.839  0.00  0.00    -0.390 OA
ATOM     39  H   LIG    1      -35.947  82.740  25.298  0.00  0.00    +0.210 HD
ENDBRANCH  37  38
ENDBRANCH  35  37
ENDBRANCH  31  35
ENDBRANCH   1  32
TORSDOF 9
ENDMDL
MODEL 4
REMARK VINA RESULT:      -6.2      5.123      8.744
REMARK  Name = pdb/CHEMBL3977894.pdb
REMARK                            x       y       z     vdW  Elec       q    Type
REMARK                         _______ _______ _______ _____ _____    ______ ____
ROOT
ATOM      1  C   LIG    1      -38.235  76.885  26.108  0.00  0.00    +0.149 A 
ATOM      2  N   LIG    1      -39.407  76.597  25.516  0.00  0.00    -0.160 NA
ATOM      3  N   LIG    1      -39.259  75.337  25.019  0.00  0.00    -0.218 N 
ATOM      4  C   LIG    1      -37.989  74.820  25.308  0.00  0.00    +0.129 A 
ATOM      5  C   LIG    1      -37.387  75.762  26.096  0.00  0.00    +0.078 A 
ENDROOT
BRANCH   3   6
ATOM      6  C   LIG    1      -40.314  74.745  24.265  0.00  0.00    +0.067 A 
ATOM      7  C   LIG    1      -40.337  73.367  24.019  0.00  0.00    +0.028 A 
ATOM      8  C   LIG    1      -41.377  72.802  23.278  0.00  0.00    +0.002 A 
ATOM      9  C   LIG    1      -42.400  73.605  22.779  0.00  0.00    +0.000 A 
ATOM     10  C   LIG    1      -42.380  74.979  23.006  0.00  0.00    +0.002 A 
ATOM     11  C   LIG    1      -41.332  75.556  23.733  0.00  0.00    +0.028 A 
ENDBRANCH   3   6
BRANCH   4  12
ATOM     12  N   LIG    1      -37.426  73.581  24.974  0.00  0.00    -0.266 N 
ATOM     13  H   LIG    1      -36.895  73.508  24.119  0.00  0.00    +0.157 HD
ATOM     14  C   LIG    1      -37.573  72.418  25.819  0.00  0.00    +0.251 C 
ATOM     15  O   LIG    1      -38.164  72.480  26.891  0.00  0.00    -0.270 OA
BRANCH  14  16
ATOM     16  C   LIG    1      -36.905  71.163  25.442  0.00  0.00    +0.056 A 
ATOM     17  C   LIG    1      -35.774  70.675  26.114  0.00  0.00    +0.054 A 
ATOM     18 CL   LIG    1      -35.056  71.442  27.484  0.00  0.00    -0.083 Cl
ATOM     19  C   LIG    1      -35.190  69.490  25.676  0.00  0.00    +0.041 A 
ATOM     20  C   LIG    1      -35.696  68.789  24.565  0.00  0.00    +0.052 A 
ATOM     21 CL   LIG    1      -34.916  67.270  24.284  0.00  0.00    -0.083 Cl
ATOM     22  C   LIG    1      -36.796  69.271  23.827  0.00  0.00    +0.022 A 
ATOM     23  C   LIG    1      -37.374  70.477  24.311  0.00  0.00    +0.026 A 
BRANCH  22  24
ATOM     24  C   LIG    1      -37.414  68.612  22.636  0.00  0.00    +0.107 A 
ATOM     25  C   LIG    1      -38.268  67.506  22.671  0.00  0.00    +0.149 A 
ATOM     26  F   LIG    1      -38.557  66.862  23.809  0.00  0.00    -0.203 F 
ATOM     27  C   LIG    1      -38.806  66.990  21.496  0.00  0.00    +0.042 A 
ATOM     28  C   LIG    1      -38.439  67.542  20.279  0.00  0.00    +0.023 A 
ATOM     29  C   LIG    1      -37.550  68.601  20.298  0.00  0.00    +0.111 A 
ATOM     30  N   LIG    1      -37.043  69.149  21.434  0.00  0.00    -0.252 NA
ENDBRANCH  22  24
ENDBRANCH  14  16
ENDBRANCH   4  12
BRANCH   1  32
ATOM     31  N   LIG    1      -36.753  78.355  27.290  0.00  0.00    -0.247 NA
ATOM     32  C   LIG    1      -37.872  78.178  26.693  0.00  0.00    +0.236 C 
BRANCH  32  33
ATOM     33  O   LIG    1      -38.841  79.113  26.555  0.00  0.00    -0.491 OA
ATOM     34  H   LIG    1      -38.827  79.745  27.288  0.00  0.00    +0.294 HD
ENDBRANCH  32  33
BRANCH  31  35
ATOM     35  C   LIG    1      -36.403  79.632  27.911  0.00  0.00    +0.176 C 
BRANCH  35  37
ATOM     36  C   LIG    1      -34.443  80.273  29.381  0.00  0.00    +0.039 C 
ATOM     37  C   LIG    1      -34.879  79.774  28.010  0.00  0.00    +0.133 C 
BRANCH  37  38
ATOM     38  O   LIG    1      -34.434  80.730  27.040  0.00  0.00    -0.390 OA
ATOM     39  H   LIG    1      -35.151  81.386  26.959  0.00  0.00    +0.210 HD
ENDBRANCH  37  38
ENDBRANCH  35  37
ENDBRANCH  31  35
ENDBRANCH   1  32
TORSDOF 9
ENDMDL
MODEL 5
REMARK VINA RESULT:      -6.2     10.928     13.908
REMARK  Name = pdb/CHEMBL3977894.pdb
REMARK                            x       y       z     vdW  Elec       q    Type
REMARK                         _______ _______ _______ _____ _____    ______ ____
ROOT
ATOM      1  C   LIG    1      -24.329  78.624  34.147  0.00  0.00    +0.149 A 
ATOM      2  N   LIG    1      -23.381  78.730  33.199  0.00  0.00    -0.160 NA
ATOM      3  N   LIG    1      -23.361  77.520  32.572  0.00  0.00    -0.218 N 
ATOM      4  C   LIG    1      -24.311  76.646  33.120  0.00  0.00    +0.129 A 
ATOM      5  C   LIG    1      -24.997  77.389  34.040  0.00  0.00    +0.078 A 
ENDROOT
BRANCH   3   6
ATOM      6  C   LIG    1      -22.409  77.272  31.541  0.00  0.00    +0.067 A 
ATOM      7  C   LIG    1      -22.806  76.738  30.310  0.00  0.00    +0.028 A 
ATOM      8  C   LIG    1      -21.862  76.500  29.309  0.00  0.00    +0.002 A 
ATOM      9  C   LIG    1      -20.518  76.794  29.528  0.00  0.00    +0.000 A 
ATOM     10  C   LIG    1      -20.110  77.312  30.755  0.00  0.00    +0.002 A 
ATOM     11  C   LIG    1      -21.048  77.538  31.769  0.00  0.00    +0.028 A 
ENDBRANCH   3   6
BRANCH   4  12
ATOM     12  N   LIG    1      -24.609  75.318  32.784  0.00  0.00    -0.266 N 
ATOM     13  H   LIG    1      -24.172  74.579  33.312  0.00  0.00    +0.157 HD
ATOM     14  C   LIG    1      -25.527  74.984  31.719  0.00  0.00    +0.251 C 
ATOM     15  O   LIG    1      -26.119  75.854  31.091  0.00  0.00    -0.270 OA
BRANCH  14  16
ATOM     16  C   LIG    1      -25.844  73.571  31.458  0.00  0.00    +0.056 A 
ATOM     17  C   LIG    1      -27.084  73.000  31.786  0.00  0.00    +0.054 A 
ATOM     18 CL   LIG    1      -28.400  73.876  32.481  0.00  0.00    -0.083 Cl
ATOM     19  C   LIG    1      -27.292  71.649  31.525  0.00  0.00    +0.041 A 
ATOM     20  C   LIG    1      -26.281  70.845  30.963  0.00  0.00    +0.052 A 
ATOM     21 CL   LIG    1      -26.798  69.238  30.586  0.00  0.00    -0.083 Cl
ATOM     22  C   LIG    1      -25.004  71.364  30.670  0.00  0.00    +0.022 A 
ATOM     23  C   LIG    1      -24.832  72.750  30.938  0.00  0.00    +0.026 A 
BRANCH  22  24
ATOM     24  C   LIG    1      -23.861  70.605  30.076  0.00  0.00    +0.107 A 
ATOM     25  C   LIG    1      -23.798  70.129  28.763  0.00  0.00    +0.149 A 
ATOM     26  F   LIG    1      -24.824  70.242  27.911  0.00  0.00    -0.203 F 
ATOM     27  C   LIG    1      -22.667  69.455  28.309  0.00  0.00    +0.042 A 
ATOM     28  C   LIG    1      -21.627  69.201  29.188  0.00  0.00    +0.023 A 
ATOM     29  C   LIG    1      -21.764  69.648  30.490  0.00  0.00    +0.111 A 
ATOM     30  N   LIG    1      -22.839  70.345  30.946  0.00  0.00    -0.252 NA
ENDBRANCH  22  24
ENDBRANCH  14  16
ENDBRANCH   4  12
BRANCH   1  32
ATOM     31  N   LIG    1      -23.812  80.569  35.452  0.00  0.00    -0.247 NA
ATOM     32  C   LIG    1      -24.640  79.638  35.156  0.00  0.00    +0.236 C 
BRANCH  32  33
ATOM     33  O   LIG    1      -25.852  79.457  35.733  0.00  0.00    -0.491 OA
ATOM     34  H   LIG    1      -26.530  79.256  35.072  0.00  0.00    +0.294 HD
ENDBRANCH  32  33
BRANCH  31  35
ATOM     35  C   LIG    1      -24.102  81.559  36.488  0.00  0.00    +0.176 C 
BRANCH  35  37
ATOM     36  C   LIG    1      -21.630  82.002  36.164  0.00  0.00    +0.039 C 
ATOM     37  C   LIG    1      -22.974  82.597  36.562  0.00  0.00    +0.133 C 
BRANCH  37  38
ATOM     38  O   LIG    1      -22.858  83.066  37.910  0.00  0.00    -0.390 OA
ATOM     39  H   LIG    1      -22.666  84.020  37.848  0.00  0.00    +0.210 HD
ENDBRANCH  37  38
ENDBRANCH  35  37
ENDBRANCH  31  35
ENDBRANCH   1  32
TORSDOF 9
ENDMDL
MODEL 6
REMARK VINA RESULT:      -6.2     17.580     20.268
REMARK  Name = pdb/CHEMBL3977894.pdb
REMARK                            x       y       z     vdW  Elec       q    Type
REMARK                         _______ _______ _______ _____ _____    ______ ____
ROOT
ATOM      1  C   LIG    1      -26.157  77.738  14.091  0.00  0.00    +0.149 A 
ATOM      2  N   LIG    1      -25.002  77.772  14.776  0.00  0.00    -0.160 NA
ATOM      3  N   LIG    1      -24.542  79.048  14.644  0.00  0.00    -0.218 N 
ATOM      4  C   LIG    1      -25.420  79.830  13.880  0.00  0.00    +0.129 A 
ATOM      5  C   LIG    1      -26.495  79.023  13.628  0.00  0.00    +0.078 A 
ENDROOT
BRANCH   3   6
ATOM      6  C   LIG    1      -23.285  79.410  15.209  0.00  0.00    +0.067 A 
ATOM      7  C   LIG    1      -22.128  78.679  14.916  0.00  0.00    +0.028 A 
ATOM      8  C   LIG    1      -20.903  79.045  15.477  0.00  0.00    +0.002 A 
ATOM      9  C   LIG    1      -20.822  80.142  16.331  0.00  0.00    +0.000 A 
ATOM     10  C   LIG    1      -21.970  80.869  16.641  0.00  0.00    +0.002 A 
ATOM     11  C   LIG    1      -23.205  80.498  16.096  0.00  0.00    +0.028 A 
ENDBRANCH   3   6
BRANCH   4  12
ATOM     12  N   LIG    1      -25.323  81.175  13.496  0.00  0.00    -0.266 N 
ATOM     13  H   LIG    1      -25.899  81.853  13.970  0.00  0.00    +0.157 HD
ATOM     14  C   LIG    1      -24.420  81.613  12.456  0.00  0.00    +0.251 C 
ATOM     15  O   LIG    1      -23.666  80.827  11.895  0.00  0.00    -0.270 OA
BRANCH  14  16
ATOM     16  C   LIG    1      -24.322  83.047  12.144  0.00  0.00    +0.056 A 
ATOM     17  C   LIG    1      -25.238  83.705  11.310  0.00  0.00    +0.054 A 
ATOM     18 CL   LIG    1      -26.611  82.946  10.590  0.00  0.00    -0.083 Cl
ATOM     19  C   LIG    1      -25.057  85.061  11.050  0.00  0.00    +0.041 A 
ATOM     20  C   LIG    1      -23.967  85.773  11.586  0.00  0.00    +0.052 A 
ATOM     21 CL   LIG    1      -24.015  87.471  11.260  0.00  0.00    -0.083 Cl
ATOM     22  C   LIG    1      -22.993  85.139  12.383  0.00  0.00    +0.022 A 
ATOM     23  C   LIG    1      -23.217  83.758  12.639  0.00  0.00    +0.026 A 
BRANCH  22  24
ATOM     24  C   LIG    1      -21.800  85.794  13.002  0.00  0.00    +0.107 A 
ATOM     25  C   LIG    1      -21.833  86.728  14.042  0.00  0.00    +0.149 A 
ATOM     26  F   LIG    1      -22.982  87.198  14.543  0.00  0.00    -0.203 F 
ATOM     27  C   LIG    1      -20.652  87.254  14.558  0.00  0.00    +0.042 A 
ATOM     28  C   LIG    1      -19.441  86.894  13.990  0.00  0.00    +0.023 A 
ATOM     29  C   LIG    1      -19.468  86.008  12.929  0.00  0.00    +0.111 A 
ATOM     30  N   LIG    1      -20.605  85.448  12.434  0.00  0.00    -0.252 NA
ENDBRANCH  22  24
ENDBRANCH  14  16
ENDBRANCH   4  12
BRANCH   1  32
ATOM     31  N   LIG    1      -26.738  75.762  12.861  0.00  0.00    -0.247 NA
ATOM     32  C   LIG    1      -26.968  76.542  13.850  0.00  0.00    +0.236 C 
BRANCH  32  33
ATOM     33  O   LIG    1      -27.970  76.391  14.749  0.00  0.00    -0.491 OA
ATOM     34  H   LIG    1      -28.836  76.507  14.333  0.00  0.00    +0.294 HD
ENDBRANCH  32  33
BRANCH  31  35
ATOM     35  C   LIG    1      -27.570  74.590  12.593  0.00  0.00    +0.176 C 
BRANCH  35  37
ATOM     36  C   LIG    1      -28.155  75.894  10.502  0.00  0.00    +0.039 C 
ATOM     37  C   LIG    1      -28.662  74.936  11.572  0.00  0.00    +0.133 C 
BRANCH  37  38
ATOM     38  O   LIG    1      -29.748  75.580  12.249  0.00  0.00    -0.390 OA
ATOM     39  H   LIG    1      -30.561  75.147  11.926  0.00  0.00    +0.210 HD
ENDBRANCH  37  38
ENDBRANCH  35  37
ENDBRANCH  31  35
ENDBRANCH   1  32
TORSDOF 9
ENDMDL
MODEL 7
REMARK VINA RESULT:      -6.1     13.015     15.966
REMARK  Name = pdb/CHEMBL3977894.pdb
REMARK                            x       y       z     vdW  Elec       q    Type
REMARK                         _______ _______ _______ _____ _____    ______ ____
ROOT
ATOM      1  C   LIG    1      -30.361  66.278  19.332  0.00  0.00    +0.149 A 
ATOM      2  N   LIG    1      -29.287  65.518  19.604  0.00  0.00    -0.160 NA
ATOM      3  N   LIG    1      -28.228  66.184  19.064  0.00  0.00    -0.218 N 
ATOM      4  C   LIG    1      -28.634  67.379  18.456  0.00  0.00    +0.129 A 
ATOM      5  C   LIG    1      -29.970  67.488  18.728  0.00  0.00    +0.078 A 
ENDROOT
BRANCH   3   6
ATOM      6  C   LIG    1      -26.925  65.609  19.123  0.00  0.00    +0.067 A 
ATOM      7  C   LIG    1      -26.637  64.573  20.019  0.00  0.00    +0.028 A 
ATOM      8  C   LIG    1      -25.355  64.020  20.065  0.00  0.00    +0.002 A 
ATOM      9  C   LIG    1      -24.355  64.493  19.220  0.00  0.00    +0.000 A 
ATOM     10  C   LIG    1      -24.628  65.534  18.334  0.00  0.00    +0.002 A 
ATOM     11  C   LIG    1      -25.905  66.105  18.293  0.00  0.00    +0.028 A 
ENDBRANCH   3   6
BRANCH   4  12
ATOM     12  N   LIG    1      -27.876  68.345  17.779  0.00  0.00    -0.266 N 
ATOM     13  H   LIG    1      -27.697  68.214  16.795  0.00  0.00    +0.157 HD
ATOM     14  C   LIG    1      -27.360  69.520  18.444  0.00  0.00    +0.251 C 
ATOM     15  O   LIG    1      -27.602  69.742  19.624  0.00  0.00    -0.270 OA
BRANCH  14  16
ATOM     16  C   LIG    1      -26.625  70.527  17.661  0.00  0.00    +0.056 A 
ATOM     17  C   LIG    1      -27.231  71.292  16.654  0.00  0.00    +0.054 A 
ATOM     18 CL   LIG    1      -28.903  71.195  16.236  0.00  0.00    -0.083 Cl
ATOM     19  C   LIG    1      -26.456  72.207  15.947  0.00  0.00    +0.041 A 
ATOM     20  C   LIG    1      -25.080  72.361  16.208  0.00  0.00    +0.052 A 
ATOM     21 CL   LIG    1      -24.343  73.651  15.322  0.00  0.00    -0.083 Cl
ATOM     22  C   LIG    1      -24.421  71.574  17.172  0.00  0.00    +0.022 A 
ATOM     23  C   LIG    1      -25.246  70.660  17.883  0.00  0.00    +0.026 A 
BRANCH  22  24
ATOM     24  C   LIG    1      -22.971  71.652  17.529  0.00  0.00    +0.107 A 
ATOM     25  C   LIG    1      -22.358  72.707  18.212  0.00  0.00    +0.149 A 
ATOM     26  F   LIG    1      -23.020  73.820  18.549  0.00  0.00    -0.203 F 
ATOM     27  C   LIG    1      -21.000  72.659  18.514  0.00  0.00    +0.042 A 
ATOM     28  C   LIG    1      -20.242  71.585  18.077  0.00  0.00    +0.023 A 
ATOM     29  C   LIG    1      -20.888  70.594  17.360  0.00  0.00    +0.111 A 
ATOM     30  N   LIG    1      -22.220  70.597  17.088  0.00  0.00    -0.252 NA
ENDBRANCH  22  24
ENDBRANCH  14  16
ENDBRANCH   4  12
BRANCH   1  32
ATOM     31  N   LIG    1      -32.548  66.729  20.210  0.00  0.00    -0.247 NA
ATOM     32  C   LIG    1      -31.752  65.919  19.616  0.00  0.00    +0.236 C 
BRANCH  32  33
ATOM     33  O   LIG    1      -32.069  64.665  19.216  0.00  0.00    -0.491 OA
ATOM     34  H   LIG    1      -31.360  64.276  18.683  0.00  0.00    +0.294 HD
ENDBRANCH  32  33
BRANCH  31  35
ATOM     35  C   LIG    1      -33.925  66.359  20.533  0.00  0.00    +0.176 C 
BRANCH  35  37
ATOM     36  C   LIG    1      -35.185  65.454  22.534  0.00  0.00    +0.039 C 
ATOM     37  C   LIG    1      -34.166  66.473  22.044  0.00  0.00    +0.133 C 
BRANCH  37  38
ATOM     38  O   LIG    1      -34.679  67.777  22.339  0.00  0.00    -0.390 OA
ATOM     39  H   LIG    1      -35.434  67.639  22.943  0.00  0.00    +0.210 HD
ENDBRANCH  37  38
ENDBRANCH  35  37
ENDBRANCH  31  35
ENDBRANCH   1  32
TORSDOF 9
ENDMDL
MODEL 8
REMARK VINA RESULT:      -6.1     10.757     15.310
REMARK  Name = pdb/CHEMBL3977894.pdb
REMARK                            x       y       z     vdW  Elec       q    Type
REMARK                         _______ _______ _______ _____ _____    ______ ____
ROOT
ATOM      1  C   LIG    1      -26.615  76.224  31.890  0.00  0.00    +0.149 A 
ATOM      2  N   LIG    1      -25.504  75.764  31.290  0.00  0.00    -0.160 NA
ATOM      3  N   LIG    1      -24.507  76.607  31.682  0.00  0.00    -0.218 N 
ATOM      4  C   LIG    1      -24.989  77.600  32.546  0.00  0.00    +0.129 A 
ATOM      5  C   LIG    1      -26.302  77.284  32.763  0.00  0.00    +0.078 A 
ENDROOT
BRANCH   3   6
ATOM      6  C   LIG    1      -23.191  76.434  31.166  0.00  0.00    +0.067 A 
ATOM      7  C   LIG    1      -22.186  75.842  31.940  0.00  0.00    +0.028 A 
ATOM      8  C   LIG    1      -20.900  75.680  31.421  0.00  0.00    +0.002 A 
ATOM      9  C   LIG    1      -20.607  76.105  30.127  0.00  0.00    +0.000 A 
ATOM     10  C   LIG    1      -21.595  76.710  29.353  0.00  0.00    +0.002 A 
ATOM     11  C   LIG    1      -22.882  76.890  29.872  0.00  0.00    +0.028 A 
ENDBRANCH   3   6
BRANCH   4  12
ATOM     12  N   LIG    1      -24.311  78.661  33.162  0.00  0.00    -0.266 N 
ATOM     13  H   LIG    1      -24.412  79.586  32.775  0.00  0.00    +0.157 HD
ATOM     14  C   LIG    1      -23.488  78.467  34.335  0.00  0.00    +0.251 C 
ATOM     15  O   LIG    1      -23.384  77.368  34.866  0.00  0.00    -0.270 OA
BRANCH  14  16
ATOM     16  C   LIG    1      -22.854  79.633  34.970  0.00  0.00    +0.056 A 
ATOM     17  C   LIG    1      -21.475  79.881  34.892  0.00  0.00    +0.054 A 
ATOM     18 CL   LIG    1      -20.362  78.898  34.012  0.00  0.00    -0.083 Cl
ATOM     19  C   LIG    1      -20.955  80.996  35.543  0.00  0.00    +0.041 A 
ATOM     20  C   LIG    1      -21.778  81.861  36.290  0.00  0.00    +0.052 A 
ATOM     21 CL   LIG    1      -20.956  83.260  36.889  0.00  0.00    -0.083 Cl
ATOM     22  C   LIG    1      -23.157  81.618  36.441  0.00  0.00    +0.022 A 
ATOM     23  C   LIG    1      -23.656  80.478  35.752  0.00  0.00    +0.026 A 
BRANCH  22  24
ATOM     24  C   LIG    1      -24.121  82.465  37.209  0.00  0.00    +0.107 A 
ATOM     25  C   LIG    1      -23.983  82.842  38.548  0.00  0.00    +0.149 A 
ATOM     26  F   LIG    1      -22.981  82.398  39.316  0.00  0.00    -0.203 F 
ATOM     27  C   LIG    1      -24.934  83.658  39.154  0.00  0.00    +0.042 A 
ATOM     28  C   LIG    1      -26.056  84.043  38.439  0.00  0.00    +0.023 A 
ATOM     29  C   LIG    1      -26.169  83.599  37.135  0.00  0.00    +0.111 A 
ATOM     30  N   LIG    1      -25.234  82.836  36.507  0.00  0.00    -0.252 NA
ENDBRANCH  22  24
ENDBRANCH  14  16
ENDBRANCH   4  12
BRANCH   1  32
ATOM     31  N   LIG    1      -28.929  76.470  31.307  0.00  0.00    -0.247 NA
ATOM     32  C   LIG    1      -27.970  75.709  31.683  0.00  0.00    +0.236 C 
BRANCH  32  33
ATOM     33  O   LIG    1      -28.083  74.388  31.959  0.00  0.00    -0.491 OA
ATOM     34  H   LIG    1      -27.397  74.098  32.578  0.00  0.00    +0.294 HD
ENDBRANCH  32  33
BRANCH  31  35
ATOM     35  C   LIG    1      -30.292  75.968  31.138  0.00  0.00    +0.176 C 
BRANCH  35  37
ATOM     36  C   LIG    1      -31.943  74.778  32.644  0.00  0.00    +0.039 C 
ATOM     37  C   LIG    1      -31.035  75.989  32.480  0.00  0.00    +0.133 C 
BRANCH  37  38
ATOM     38  O   LIG    1      -31.858  77.159  32.541  0.00  0.00    -0.390 OA
ATOM     39  H   LIG    1      -32.295  77.228  31.672  0.00  0.00    +0.210 HD
ENDBRANCH  37  38
ENDBRANCH  35  37
ENDBRANCH  31  35
ENDBRANCH   1  32
TORSDOF 9
ENDMDL
MODEL 9
REMARK VINA RESULT:      -6.1      8.302     11.261
REMARK  Name = pdb/CHEMBL3977894.pdb
REMARK                            x       y       z     vdW  Elec       q    Type
REMARK                         _______ _______ _______ _____ _____    ______ ____
ROOT
ATOM      1  C   LIG    1      -32.046  86.990  30.539  0.00  0.00    +0.149 A 
ATOM      2  N   LIG    1      -33.092  87.773  30.225  0.00  0.00    -0.160 NA
ATOM      3  N   LIG    1      -33.998  86.944  29.635  0.00  0.00    -0.218 N 
ATOM      4  C   LIG    1      -33.527  85.625  29.586  0.00  0.00    +0.129 A 
ATOM      5  C   LIG    1      -32.338  85.641  30.261  0.00  0.00    +0.078 A 
ENDROOT
BRANCH   3   6
ATOM      6  C   LIG    1      -35.215  87.477  29.119  0.00  0.00    +0.067 A 
ATOM      7  C   LIG    1      -35.210  88.347  28.022  0.00  0.00    +0.028 A 
ATOM      8  C   LIG    1      -36.411  88.862  27.528  0.00  0.00    +0.002 A 
ATOM      9  C   LIG    1      -37.621  88.513  28.121  0.00  0.00    +0.000 A 
ATOM     10  C   LIG    1      -37.636  87.660  29.222  0.00  0.00    +0.002 A 
ATOM     11  C   LIG    1      -36.436  87.152  29.734  0.00  0.00    +0.028 A 
ENDBRANCH   3   6
BRANCH   4  12
ATOM     12  N   LIG    1      -34.128  84.474  29.057  0.00  0.00    -0.266 N 
ATOM     13  H   LIG    1      -33.891  84.195  28.118  0.00  0.00    +0.157 HD
ATOM     14  C   LIG    1      -35.063  83.678  29.819  0.00  0.00    +0.251 C 
ATOM     15  O   LIG    1      -35.335  83.954  30.982  0.00  0.00    -0.270 OA
BRANCH  14  16
ATOM     16  C   LIG    1      -35.611  82.447  29.228  0.00  0.00    +0.056 A 
ATOM     17  C   LIG    1      -36.989  82.209  29.118  0.00  0.00    +0.054 A 
ATOM     18 CL   LIG    1      -38.208  83.329  29.607  0.00  0.00    -0.083 Cl
ATOM     19  C   LIG    1      -37.421  81.006  28.566  0.00  0.00    +0.041 A 
ATOM     20  C   LIG    1      -36.508  80.024  28.138  0.00  0.00    +0.052 A 
ATOM     21 CL   LIG    1      -37.252  78.676  27.349  0.00  0.00    -0.083 Cl
ATOM     22  C   LIG    1      -35.117  80.199  28.281  0.00  0.00    +0.022 A 
ATOM     23  C   LIG    1      -34.712  81.443  28.837  0.00  0.00    +0.026 A 
BRANCH  22  24
ATOM     24  C   LIG    1      -34.061  79.226  27.865  0.00  0.00    +0.107 A 
ATOM     25  C   LIG    1      -33.739  78.040  28.532  0.00  0.00    +0.149 A 
ATOM     26  F   LIG    1      -34.314  77.694  29.691  0.00  0.00    -0.203 F 
ATOM     27  C   LIG    1      -32.750  77.195  28.036  0.00  0.00    +0.042 A 
ATOM     28  C   LIG    1      -32.038  77.569  26.908  0.00  0.00    +0.023 A 
ATOM     29  C   LIG    1      -32.360  78.777  26.317  0.00  0.00    +0.111 A 
ATOM     30  N   LIG    1      -33.350  79.600  26.758  0.00  0.00    -0.252 NA
ENDBRANCH  22  24
ENDBRANCH  14  16
ENDBRANCH   4  12
BRANCH   1  32
ATOM     31  N   LIG    1      -30.726  88.302  32.052  0.00  0.00    -0.247 NA
ATOM     32  C   LIG    1      -30.772  87.453  31.094  0.00  0.00    +0.236 C 
BRANCH  32  33
ATOM     33  O   LIG    1      -29.696  86.916  30.472  0.00  0.00    -0.491 OA
ATOM     34  H   LIG    1      -29.908  86.656  29.564  0.00  0.00    +0.294 HD
ENDBRANCH  32  33
BRANCH  31  35
ATOM     35  C   LIG    1      -29.456  88.798  32.583  0.00  0.00    +0.176 C 
BRANCH  35  37
ATOM     36  C   LIG    1      -28.180  88.763  34.770  0.00  0.00    +0.039 C 
ATOM     37  C   LIG    1      -29.020  87.956  33.789  0.00  0.00    +0.133 C 
BRANCH  37  38
ATOM     38  O   LIG    1      -28.218  86.862  33.330  0.00  0.00    -0.390 OA
ATOM     39  H   LIG    1      -27.327  87.226  33.177  0.00  0.00    +0.210 HD
ENDBRANCH  37  38
ENDBRANCH  35  37
ENDBRANCH  31  35
ENDBRANCH   1  32
TORSDOF 9
ENDMDL
