MODEL 1
REMARK VINA RESULT:      -7.5      0.000      0.000
REMARK  Name = pdb/CHEMBL3894182.pdb
REMARK                            x       y       z     vdW  Elec       q    Type
REMARK                         _______ _______ _______ _____ _____    ______ ____
ROOT
ATOM      1  C   LIG    1      -39.937  78.283  24.396  0.00  0.00    +0.149 A 
ATOM      2  N   LIG    1      -40.319  77.004  24.258  0.00  0.00    -0.160 NA
ATOM      3  N   LIG    1      -39.266  76.249  24.723  0.00  0.00    -0.218 N 
ATOM      4  C   LIG    1      -38.270  77.078  25.250  0.00  0.00    +0.129 A 
ATOM      5  C   LIG    1      -38.680  78.378  25.029  0.00  0.00    +0.078 A 
ENDROOT
BRANCH   3   6
ATOM      6  C   LIG    1      -39.295  74.827  24.541  0.00  0.00    +0.067 A 
ATOM      7  C   LIG    1      -40.415  74.239  23.931  0.00  0.00    +0.028 A 
ATOM      8  C   LIG    1      -40.500  72.851  23.773  0.00  0.00    +0.002 A 
ATOM      9  C   LIG    1      -39.473  72.029  24.227  0.00  0.00    +0.000 A 
ATOM     10  C   LIG    1      -38.348  72.598  24.811  0.00  0.00    +0.002 A 
ATOM     11  C   LIG    1      -38.248  73.987  24.940  0.00  0.00    +0.028 A 
ENDBRANCH   3   6
BRANCH   4  12
ATOM     12  N   LIG    1      -37.030  76.812  25.830  0.00  0.00    -0.266 N 
ATOM     13  H   LIG    1      -36.212  76.946  25.251  0.00  0.00    +0.157 HD
ATOM     14  C   LIG    1      -36.881  76.707  27.259  0.00  0.00    +0.251 C 
ATOM     15  O   LIG    1      -37.850  76.776  27.974  0.00  0.00    -0.270 OA
BRANCH  14  16
ATOM     16  C   LIG    1      -35.513  76.446  27.789  0.00  0.00    +0.056 A 
ATOM     17  C   LIG    1      -34.617  77.455  28.122  0.00  0.00    +0.054 A 
ATOM     18 CL   LIG    1      -34.988  79.137  28.002  0.00  0.00    -0.083 Cl
ATOM     19  C   LIG    1      -33.350  77.127  28.604  0.00  0.00    +0.041 A 
ATOM     20  C   LIG    1      -32.960  75.789  28.762  0.00  0.00    +0.052 A 
ATOM     21 CL   LIG    1      -31.313  75.570  29.255  0.00  0.00    -0.083 Cl
ATOM     22  C   LIG    1      -33.847  74.732  28.476  0.00  0.00    +0.019 A 
ATOM     23  C   LIG    1      -35.127  75.101  27.973  0.00  0.00    +0.026 A 
BRANCH  22  24
ATOM     24  C   LIG    1      -33.533  73.287  28.639  0.00  0.00    +0.073 A 
ATOM     25  N   LIG    1      -34.338  72.444  27.936  0.00  0.00    -0.252 NA
ATOM     26  C   LIG    1      -34.106  71.108  28.041  0.00  0.00    +0.149 A 
ATOM     27  C   LIG    1      -33.095  70.564  28.807  0.00  0.00    +0.141 A 
ATOM     28  F   LIG    1      -32.905  69.241  28.858  0.00  0.00    -0.204 F 
ATOM     29  C   LIG    1      -32.287  71.415  29.534  0.00  0.00    +0.042 A 
ATOM     30  C   LIG    1      -32.526  72.788  29.473  0.00  0.00    +0.031 A 
ENDBRANCH  22  24
ENDBRANCH  14  16
ENDBRANCH   4  12
BRANCH   1  31
ATOM     31  C   LIG    1      -40.789  79.382  23.942  0.00  0.00    +0.236 C 
ATOM     32  N   LIG    1      -40.271  80.503  23.591  0.00  0.00    -0.248 NA
BRANCH  31  33
ATOM     33  O   LIG    1      -42.116  79.124  23.927  0.00  0.00    -0.491 OA
ATOM     34  H   LIG    1      -42.574  79.812  23.408  0.00  0.00    +0.294 HD
ENDBRANCH  31  33
BRANCH  32  35
ATOM     35  C   LIG    1      -41.215  81.514  23.105  0.00  0.00    +0.162 C 
BRANCH  35  36
ATOM     36  C   LIG    1      -40.422  82.695  22.601  0.00  0.00    +0.052 C 
ATOM     37  C   LIG    1      -39.304  83.156  23.431  0.00  0.00    +0.028 C 
ATOM     38  C   LIG    1      -38.549  84.186  23.020  0.00  0.00    +0.184 C 
ATOM     39  N   LIG    1      -38.804  84.824  21.835  0.00  0.00    -0.210 N 
ATOM     40  H   LIG    1      -38.218  85.591  21.533  0.00  0.00    +0.298 HD
ATOM     41  C   LIG    1      -39.839  84.457  21.017  0.00  0.00    +0.295 C 
ATOM     42  C   LIG    1      -40.719  83.321  21.440  0.00  0.00    +0.083 C 
BRANCH  41  43
ATOM     43  N   LIG    1      -40.031  85.092  19.904  0.00  0.00    -0.071 NA
ATOM     44  H   LIG    1      -39.150  85.194  19.392  0.00  0.00    +0.348 HD
ENDBRANCH  41  43
ENDBRANCH  35  36
ENDBRANCH  32  35
ENDBRANCH   1  31
TORSDOF 9
ENDMDL
MODEL 2
REMARK VINA RESULT:      -7.5      6.410     10.416
REMARK  Name = pdb/CHEMBL3894182.pdb
REMARK                            x       y       z     vdW  Elec       q    Type
REMARK                         _______ _______ _______ _____ _____    ______ ____
ROOT
ATOM      1  C   LIG    1      -35.867  71.864  26.803  0.00  0.00    +0.149 A 
ATOM      2  N   LIG    1      -36.955  72.639  26.671  0.00  0.00    -0.160 NA
ATOM      3  N   LIG    1      -37.528  72.275  25.474  0.00  0.00    -0.218 N 
ATOM      4  C   LIG    1      -36.841  71.191  24.917  0.00  0.00    +0.129 A 
ATOM      5  C   LIG    1      -35.769  70.933  25.747  0.00  0.00    +0.078 A 
ENDROOT
BRANCH   3   6
ATOM      6  C   LIG    1      -38.617  73.053  24.958  0.00  0.00    +0.067 A 
ATOM      7  C   LIG    1      -39.725  72.392  24.401  0.00  0.00    +0.028 A 
ATOM      8  C   LIG    1      -40.789  73.116  23.850  0.00  0.00    +0.002 A 
ATOM      9  C   LIG    1      -40.760  74.507  23.839  0.00  0.00    +0.000 A 
ATOM     10  C   LIG    1      -39.682  75.174  24.407  0.00  0.00    +0.002 A 
ATOM     11  C   LIG    1      -38.634  74.452  24.987  0.00  0.00    +0.028 A 
ENDBRANCH   3   6
BRANCH   4  12
ATOM     12  N   LIG    1      -37.020  70.466  23.739  0.00  0.00    -0.266 N 
ATOM     13  H   LIG    1      -36.347  70.616  23.000  0.00  0.00    +0.157 HD
ATOM     14  C   LIG    1      -37.880  69.310  23.696  0.00  0.00    +0.251 C 
ATOM     15  O   LIG    1      -38.519  68.997  24.670  0.00  0.00    -0.270 OA
BRANCH  14  16
ATOM     16  C   LIG    1      -37.988  68.583  22.399  0.00  0.00    +0.056 A 
ATOM     17  C   LIG    1      -39.168  68.492  21.671  0.00  0.00    +0.054 A 
ATOM     18 CL   LIG    1      -40.648  69.240  22.154  0.00  0.00    -0.083 Cl
ATOM     19  C   LIG    1      -39.189  67.784  20.469  0.00  0.00    +0.041 A 
ATOM     20  C   LIG    1      -38.033  67.161  19.977  0.00  0.00    +0.052 A 
ATOM     21 CL   LIG    1      -38.274  66.228  18.536  0.00  0.00    -0.083 Cl
ATOM     22  C   LIG    1      -36.803  67.259  20.659  0.00  0.00    +0.019 A 
ATOM     23  C   LIG    1      -36.821  67.976  21.889  0.00  0.00    +0.026 A 
BRANCH  22  24
ATOM     24  C   LIG    1      -35.523  66.658  20.201  0.00  0.00    +0.073 A 
ATOM     25  N   LIG    1      -34.926  65.830  21.101  0.00  0.00    -0.252 NA
ATOM     26  C   LIG    1      -33.750  65.246  20.745  0.00  0.00    +0.149 A 
ATOM     27  C   LIG    1      -33.140  65.434  19.522  0.00  0.00    +0.141 A 
ATOM     28  F   LIG    1      -31.990  64.819  19.222  0.00  0.00    -0.204 F 
ATOM     29  C   LIG    1      -33.735  66.286  18.612  0.00  0.00    +0.042 A 
ATOM     30  C   LIG    1      -34.923  66.926  18.965  0.00  0.00    +0.031 A 
ENDBRANCH  22  24
ENDBRANCH  14  16
ENDBRANCH   4  12
BRANCH   1  31
ATOM     31  C   LIG    1      -34.962  72.015  27.941  0.00  0.00    +0.236 C 
ATOM     32  N   LIG    1      -34.078  72.945  27.950  0.00  0.00    -0.248 NA
BRANCH  31  33
ATOM     33  O   LIG    1      -35.130  71.122  28.944  0.00  0.00    -0.491 OA
ATOM     34  H   LIG    1      -35.894  70.550  28.742  0.00  0.00    +0.294 HD
ENDBRANCH  31  33
BRANCH  32  35
ATOM     35  C   LIG    1      -33.261  73.034  29.164  0.00  0.00    +0.162 C 
BRANCH  35  36
ATOM     36  C   LIG    1      -32.662  74.418  29.228  0.00  0.00    +0.052 C 
ATOM     37  C   LIG    1      -33.362  75.486  28.508  0.00  0.00    +0.028 C 
ATOM     38  C   LIG    1      -32.889  76.741  28.551  0.00  0.00    +0.184 C 
ATOM     39  N   LIG    1      -31.755  77.047  29.255  0.00  0.00    -0.210 N 
ATOM     40  H   LIG    1      -31.418  78.000  29.288  0.00  0.00    +0.298 HD
ATOM     41  C   LIG    1      -31.043  76.099  29.939  0.00  0.00    +0.295 C 
ATOM     42  C   LIG    1      -31.524  74.681  29.910  0.00  0.00    +0.083 C 
BRANCH  41  43
ATOM     43  N   LIG    1      -29.980  76.446  30.595  0.00  0.00    -0.071 NA
ATOM     44  H   LIG    1      -29.825  75.815  31.386  0.00  0.00    +0.348 HD
ENDBRANCH  41  43
ENDBRANCH  35  36
ENDBRANCH  32  35
ENDBRANCH   1  31
TORSDOF 9
ENDMDL
MODEL 3
REMARK VINA RESULT:      -7.3      4.056      6.346
REMARK  Name = pdb/CHEMBL3894182.pdb
REMARK                            x       y       z     vdW  Elec       q    Type
REMARK                         _______ _______ _______ _____ _____    ______ ____
ROOT
ATOM      1  C   LIG    1      -37.605  79.908  27.642  0.00  0.00    +0.149 A 
ATOM      2  N   LIG    1      -36.395  79.425  27.964  0.00  0.00    -0.160 NA
ATOM      3  N   LIG    1      -36.443  78.080  27.673  0.00  0.00    -0.218 N 
ATOM      4  C   LIG    1      -37.662  77.757  27.067  0.00  0.00    +0.129 A 
ATOM      5  C   LIG    1      -38.417  78.913  27.060  0.00  0.00    +0.078 A 
ENDROOT
BRANCH   3   6
ATOM      6  C   LIG    1      -35.353  77.240  28.078  0.00  0.00    +0.067 A 
ATOM      7  C   LIG    1      -34.814  77.395  29.366  0.00  0.00    +0.028 A 
ATOM      8  C   LIG    1      -33.722  76.624  29.784  0.00  0.00    +0.002 A 
ATOM      9  C   LIG    1      -33.148  75.695  28.921  0.00  0.00    +0.000 A 
ATOM     10  C   LIG    1      -33.686  75.514  27.653  0.00  0.00    +0.002 A 
ATOM     11  C   LIG    1      -34.797  76.261  27.247  0.00  0.00    +0.028 A 
ENDBRANCH   3   6
BRANCH   4  12
ATOM     12  N   LIG    1      -38.192  76.558  26.593  0.00  0.00    -0.266 N 
ATOM     13  H   LIG    1      -38.948  76.147  27.124  0.00  0.00    +0.157 HD
ATOM     14  C   LIG    1      -37.942  76.111  25.246  0.00  0.00    +0.251 C 
ATOM     15  O   LIG    1      -37.204  76.739  24.529  0.00  0.00    -0.270 OA
BRANCH  14  16
ATOM     16  C   LIG    1      -38.571  74.829  24.821  0.00  0.00    +0.056 A 
ATOM     17  C   LIG    1      -39.847  74.748  24.275  0.00  0.00    +0.054 A 
ATOM     18 CL   LIG    1      -40.848  76.124  23.983  0.00  0.00    -0.083 Cl
ATOM     19  C   LIG    1      -40.369  73.507  23.911  0.00  0.00    +0.041 A 
ATOM     20  C   LIG    1      -39.625  72.331  24.084  0.00  0.00    +0.052 A 
ATOM     21 CL   LIG    1      -40.476  70.874  23.689  0.00  0.00    -0.083 Cl
ATOM     22  C   LIG    1      -38.312  72.366  24.596  0.00  0.00    +0.019 A 
ATOM     23  C   LIG    1      -37.816  73.646  24.971  0.00  0.00    +0.026 A 
BRANCH  22  24
ATOM     24  C   LIG    1      -37.439  71.177  24.787  0.00  0.00    +0.073 A 
ATOM     25  N   LIG    1      -36.560  71.274  25.822  0.00  0.00    -0.252 NA
ATOM     26  C   LIG    1      -35.731  70.221  26.052  0.00  0.00    +0.149 A 
ATOM     27  C   LIG    1      -35.742  69.059  25.308  0.00  0.00    +0.141 A 
ATOM     28  F   LIG    1      -34.913  68.049  25.593  0.00  0.00    -0.204 F 
ATOM     29  C   LIG    1      -36.622  68.963  24.248  0.00  0.00    +0.042 A 
ATOM     30  C   LIG    1      -37.460  70.043  23.967  0.00  0.00    +0.031 A 
ENDBRANCH  22  24
ENDBRANCH  14  16
ENDBRANCH   4  12
BRANCH   1  31
ATOM     31  C   LIG    1      -37.947  81.311  27.876  0.00  0.00    +0.236 C 
ATOM     32  N   LIG    1      -37.179  82.058  28.583  0.00  0.00    -0.248 NA
BRANCH  31  33
ATOM     33  O   LIG    1      -39.099  81.734  27.307  0.00  0.00    -0.491 OA
ATOM     34  H   LIG    1      -39.614  82.244  27.960  0.00  0.00    +0.294 HD
ENDBRANCH  31  33
BRANCH  32  35
ATOM     35  C   LIG    1      -37.595  83.458  28.708  0.00  0.00    +0.162 C 
BRANCH  35  36
ATOM     36  C   LIG    1      -36.524  84.324  28.089  0.00  0.00    +0.052 C 
ATOM     37  C   LIG    1      -35.463  84.814  28.975  0.00  0.00    +0.028 C 
ATOM     38  C   LIG    1      -34.473  85.568  28.475  0.00  0.00    +0.184 C 
ATOM     39  N   LIG    1      -34.433  85.895  27.146  0.00  0.00    -0.210 N 
ATOM     40  H   LIG    1      -33.672  86.453  26.782  0.00  0.00    +0.298 HD
ATOM     41  C   LIG    1      -35.396  85.485  26.264  0.00  0.00    +0.295 C 
ATOM     42  C   LIG    1      -36.530  84.652  26.778  0.00  0.00    +0.083 C 
BRANCH  41  43
ATOM     43  N   LIG    1      -35.305  85.819  25.015  0.00  0.00    -0.071 NA
ATOM     44  H   LIG    1      -35.138  86.825  24.923  0.00  0.00    +0.348 HD
ENDBRANCH  41  43
ENDBRANCH  35  36
ENDBRANCH  32  35
ENDBRANCH   1  31
TORSDOF 9
ENDMDL
MODEL 4
REMARK VINA RESULT:      -7.2      7.744     11.850
REMARK  Name = pdb/CHEMBL3894182.pdb
REMARK                            x       y       z     vdW  Elec       q    Type
REMARK                         _______ _______ _______ _____ _____    ______ ____
ROOT
ATOM      1  C   LIG    1      -29.774  75.625  31.189  0.00  0.00    +0.149 A 
ATOM      2  N   LIG    1      -30.749  76.184  30.455  0.00  0.00    -0.160 NA
ATOM      3  N   LIG    1      -31.561  75.144  30.063  0.00  0.00    -0.218 N 
ATOM      4  C   LIG    1      -31.137  73.948  30.652  0.00  0.00    +0.129 A 
ATOM      5  C   LIG    1      -29.987  74.241  31.357  0.00  0.00    +0.078 A 
ENDROOT
BRANCH   3   6
ATOM      6  C   LIG    1      -32.602  75.395  29.108  0.00  0.00    +0.067 A 
ATOM      7  C   LIG    1      -32.544  76.560  28.325  0.00  0.00    +0.028 A 
ATOM      8  C   LIG    1      -33.561  76.862  27.413  0.00  0.00    +0.002 A 
ATOM      9  C   LIG    1      -34.654  76.011  27.274  0.00  0.00    +0.000 A 
ATOM     10  C   LIG    1      -34.713  74.843  28.024  0.00  0.00    +0.002 A 
ATOM     11  C   LIG    1      -33.681  74.525  28.913  0.00  0.00    +0.028 A 
ENDBRANCH   3   6
BRANCH   4  12
ATOM     12  N   LIG    1      -31.611  72.639  30.576  0.00  0.00    -0.266 N 
ATOM     13  H   LIG    1      -32.544  72.466  30.924  0.00  0.00    +0.157 HD
ATOM     14  C   LIG    1      -30.975  71.662  29.728  0.00  0.00    +0.251 C 
ATOM     15  O   LIG    1      -29.971  71.948  29.124  0.00  0.00    -0.270 OA
BRANCH  14  16
ATOM     16  C   LIG    1      -31.569  70.295  29.692  0.00  0.00    +0.056 A 
ATOM     17  C   LIG    1      -31.187  69.273  30.552  0.00  0.00    +0.054 A 
ATOM     18 CL   LIG    1      -30.006  69.466  31.798  0.00  0.00    -0.083 Cl
ATOM     19  C   LIG    1      -31.785  68.018  30.447  0.00  0.00    +0.041 A 
ATOM     20  C   LIG    1      -32.773  67.765  29.485  0.00  0.00    +0.052 A 
ATOM     21 CL   LIG    1      -33.315  66.121  29.421  0.00  0.00    -0.083 Cl
ATOM     22  C   LIG    1      -33.222  68.781  28.616  0.00  0.00    +0.019 A 
ATOM     23  C   LIG    1      -32.581  70.046  28.740  0.00  0.00    +0.026 A 
BRANCH  22  24
ATOM     24  C   LIG    1      -34.282  68.615  27.586  0.00  0.00    +0.073 A 
ATOM     25  N   LIG    1      -35.527  68.996  27.982  0.00  0.00    -0.252 NA
ATOM     26  C   LIG    1      -36.545  68.870  27.088  0.00  0.00    +0.149 A 
ATOM     27  C   LIG    1      -36.382  68.393  25.804  0.00  0.00    +0.141 A 
ATOM     28  F   LIG    1      -37.419  68.307  24.963  0.00  0.00    -0.204 F 
ATOM     29  C   LIG    1      -35.123  67.990  25.404  0.00  0.00    +0.042 A 
ATOM     30  C   LIG    1      -34.068  68.075  26.313  0.00  0.00    +0.031 A 
ENDBRANCH  22  24
ENDBRANCH  14  16
ENDBRANCH   4  12
BRANCH   1  31
ATOM     31  C   LIG    1      -28.678  76.428  31.730  0.00  0.00    +0.236 C 
ATOM     32  N   LIG    1      -27.574  75.871  32.077  0.00  0.00    -0.248 NA
BRANCH  31  33
ATOM     33  O   LIG    1      -28.919  77.755  31.830  0.00  0.00    -0.491 OA
ATOM     34  H   LIG    1      -29.880  77.914  31.769  0.00  0.00    +0.294 HD
ENDBRANCH  31  33
BRANCH  32  35
ATOM     35  C   LIG    1      -26.528  76.779  32.558  0.00  0.00    +0.162 C 
BRANCH  35  36
ATOM     36  C   LIG    1      -25.309  76.596  31.687  0.00  0.00    +0.052 C 
ATOM     37  C   LIG    1      -24.553  75.349  31.845  0.00  0.00    +0.028 C 
ATOM     38  C   LIG    1      -23.475  75.122  31.080  0.00  0.00    +0.184 C 
ATOM     39  N   LIG    1      -23.060  76.038  30.150  0.00  0.00    -0.210 N 
ATOM     40  H   LIG    1      -22.252  75.846  29.572  0.00  0.00    +0.298 HD
ATOM     41  C   LIG    1      -23.707  77.228  29.958  0.00  0.00    +0.295 C 
ATOM     42  C   LIG    1      -24.909  77.533  30.799  0.00  0.00    +0.083 C 
BRANCH  41  43
ATOM     43  N   LIG    1      -23.275  78.056  29.060  0.00  0.00    -0.071 NA
ATOM     44  H   LIG    1      -22.355  78.421  29.322  0.00  0.00    +0.348 HD
ENDBRANCH  41  43
ENDBRANCH  35  36
ENDBRANCH  32  35
ENDBRANCH   1  31
TORSDOF 9
ENDMDL
MODEL 5
REMARK VINA RESULT:      -7.1      3.324      5.800
REMARK  Name = pdb/CHEMBL3894182.pdb
REMARK                            x       y       z     vdW  Elec       q    Type
REMARK                         _______ _______ _______ _____ _____    ______ ____
ROOT
ATOM      1  C   LIG    1      -37.385  80.122  27.420  0.00  0.00    +0.149 A 
ATOM      2  N   LIG    1      -36.249  79.537  27.829  0.00  0.00    -0.160 NA
ATOM      3  N   LIG    1      -36.416  78.191  27.588  0.00  0.00    -0.218 N 
ATOM      4  C   LIG    1      -37.628  77.964  26.927  0.00  0.00    +0.129 A 
ATOM      5  C   LIG    1      -38.261  79.186  26.832  0.00  0.00    +0.078 A 
ENDROOT
BRANCH   3   6
ATOM      6  C   LIG    1      -35.438  77.268  28.087  0.00  0.00    +0.067 A 
ATOM      7  C   LIG    1      -34.887  76.318  27.212  0.00  0.00    +0.028 A 
ATOM      8  C   LIG    1      -33.961  75.373  27.670  0.00  0.00    +0.002 A 
ATOM      9  C   LIG    1      -33.579  75.356  29.008  0.00  0.00    +0.000 A 
ATOM     10  C   LIG    1      -34.098  76.305  29.880  0.00  0.00    +0.002 A 
ATOM     11  C   LIG    1      -34.999  77.270  29.416  0.00  0.00    +0.028 A 
ENDBRANCH   3   6
BRANCH   4  12
ATOM     12  N   LIG    1      -38.249  76.802  26.471  0.00  0.00    -0.266 N 
ATOM     13  H   LIG    1      -39.064  76.486  26.979  0.00  0.00    +0.157 HD
ATOM     14  C   LIG    1      -37.985  76.281  25.154  0.00  0.00    +0.251 C 
ATOM     15  O   LIG    1      -37.160  76.808  24.450  0.00  0.00    -0.270 OA
BRANCH  14  16
ATOM     16  C   LIG    1      -38.716  75.048  24.744  0.00  0.00    +0.056 A 
ATOM     17  C   LIG    1      -39.975  75.066  24.156  0.00  0.00    +0.054 A 
ATOM     18 CL   LIG    1      -40.835  76.518  23.787  0.00  0.00    -0.083 Cl
ATOM     19  C   LIG    1      -40.597  73.867  23.810  0.00  0.00    +0.041 A 
ATOM     20  C   LIG    1      -39.972  72.634  24.044  0.00  0.00    +0.052 A 
ATOM     21 CL   LIG    1      -40.940  71.248  23.663  0.00  0.00    -0.083 Cl
ATOM     22  C   LIG    1      -38.678  72.566  24.602  0.00  0.00    +0.019 A 
ATOM     23  C   LIG    1      -38.078  73.807  24.956  0.00  0.00    +0.026 A 
BRANCH  22  24
ATOM     24  C   LIG    1      -37.926  71.309  24.860  0.00  0.00    +0.073 A 
ATOM     25  N   LIG    1      -37.512  71.144  26.146  0.00  0.00    -0.252 NA
ATOM     26  C   LIG    1      -36.817  70.015  26.450  0.00  0.00    +0.149 A 
ATOM     27  C   LIG    1      -36.523  69.026  25.535  0.00  0.00    +0.141 A 
ATOM     28  F   LIG    1      -35.849  67.929  25.897  0.00  0.00    -0.204 F 
ATOM     29  C   LIG    1      -36.927  69.197  24.225  0.00  0.00    +0.042 A 
ATOM     30  C   LIG    1      -37.611  70.363  23.878  0.00  0.00    +0.031 A 
ENDBRANCH  22  24
ENDBRANCH  14  16
ENDBRANCH   4  12
BRANCH   1  31
ATOM     31  C   LIG    1      -37.597  81.560  27.579  0.00  0.00    +0.236 C 
ATOM     32  N   LIG    1      -37.382  82.361  26.599  0.00  0.00    -0.248 NA
BRANCH  31  33
ATOM     33  O   LIG    1      -38.021  81.957  28.801  0.00  0.00    -0.491 OA
ATOM     34  H   LIG    1      -37.781  82.892  28.938  0.00  0.00    +0.294 HD
ENDBRANCH  31  33
BRANCH  32  35
ATOM     35  C   LIG    1      -37.677  83.773  26.857  0.00  0.00    +0.162 C 
BRANCH  35  36
ATOM     36  C   LIG    1      -37.888  84.460  25.529  0.00  0.00    +0.052 C 
ATOM     37  C   LIG    1      -37.738  85.919  25.497  0.00  0.00    +0.028 C 
ATOM     38  C   LIG    1      -37.890  86.579  24.339  0.00  0.00    +0.184 C 
ATOM     39  N   LIG    1      -38.189  85.916  23.179  0.00  0.00    -0.210 N 
ATOM     40  H   LIG    1      -38.288  86.427  22.312  0.00  0.00    +0.298 HD
ATOM     41  C   LIG    1      -38.359  84.558  23.137  0.00  0.00    +0.295 C 
ATOM     42  C   LIG    1      -38.212  83.778  24.408  0.00  0.00    +0.083 C 
BRANCH  41  43
ATOM     43  N   LIG    1      -38.635  83.982  22.010  0.00  0.00    -0.071 NA
ATOM     44  H   LIG    1      -38.070  84.382  21.255  0.00  0.00    +0.348 HD
ENDBRANCH  41  43
ENDBRANCH  35  36
ENDBRANCH  32  35
ENDBRANCH   1  31
TORSDOF 9
ENDMDL
MODEL 6
REMARK VINA RESULT:      -7.1     17.537     18.605
REMARK  Name = pdb/CHEMBL3894182.pdb
REMARK                            x       y       z     vdW  Elec       q    Type
REMARK                         _______ _______ _______ _____ _____    ______ ____
ROOT
ATOM      1  C   LIG    1      -23.398  81.665  15.529  0.00  0.00    +0.149 A 
ATOM      2  N   LIG    1      -24.353  81.631  14.587  0.00  0.00    -0.160 NA
ATOM      3  N   LIG    1      -24.627  80.296  14.384  0.00  0.00    -0.218 N 
ATOM      4  C   LIG    1      -23.906  79.510  15.288  0.00  0.00    +0.129 A 
ATOM      5  C   LIG    1      -23.105  80.371  16.010  0.00  0.00    +0.078 A 
ENDROOT
BRANCH   3   6
ATOM      6  C   LIG    1      -25.485  79.920  13.298  0.00  0.00    +0.067 A 
ATOM      7  C   LIG    1      -25.394  80.617  12.082  0.00  0.00    +0.028 A 
ATOM      8  C   LIG    1      -26.243  80.307  11.013  0.00  0.00    +0.002 A 
ATOM      9  C   LIG    1      -27.199  79.304  11.143  0.00  0.00    +0.000 A 
ATOM     10  C   LIG    1      -27.285  78.590  12.332  0.00  0.00    +0.002 A 
ATOM     11  C   LIG    1      -26.415  78.878  13.390  0.00  0.00    +0.028 A 
ENDBRANCH   3   6
BRANCH   4  12
ATOM     12  N   LIG    1      -23.832  78.132  15.490  0.00  0.00    -0.266 N 
ATOM     13  H   LIG    1      -24.498  77.724  16.132  0.00  0.00    +0.157 HD
ATOM     14  C   LIG    1      -23.109  77.281  14.579  0.00  0.00    +0.251 C 
ATOM     15  O   LIG    1      -22.491  77.765  13.663  0.00  0.00    -0.270 OA
BRANCH  14  16
ATOM     16  C   LIG    1      -23.108  75.818  14.861  0.00  0.00    +0.056 A 
ATOM     17  C   LIG    1      -23.916  74.909  14.189  0.00  0.00    +0.054 A 
ATOM     18 CL   LIG    1      -24.995  75.353  12.915  0.00  0.00    -0.083 Cl
ATOM     19  C   LIG    1      -23.863  73.555  14.519  0.00  0.00    +0.041 A 
ATOM     20  C   LIG    1      -23.001  73.089  15.522  0.00  0.00    +0.052 A 
ATOM     21 CL   LIG    1      -23.156  71.401  15.880  0.00  0.00    -0.083 Cl
ATOM     22  C   LIG    1      -22.133  73.966  16.205  0.00  0.00    +0.019 A 
ATOM     23  C   LIG    1      -22.224  75.342  15.853  0.00  0.00    +0.026 A 
BRANCH  22  24
ATOM     24  C   LIG    1      -21.167  73.560  17.260  0.00  0.00    +0.073 A 
ATOM     25  N   LIG    1      -19.905  74.043  17.095  0.00  0.00    -0.252 NA
ATOM     26  C   LIG    1      -18.971  73.708  18.025  0.00  0.00    +0.149 A 
ATOM     27  C   LIG    1      -19.234  72.922  19.129  0.00  0.00    +0.141 A 
ATOM     28  F   LIG    1      -18.276  72.641  20.020  0.00  0.00    -0.204 F 
ATOM     29  C   LIG    1      -20.509  72.418  19.291  0.00  0.00    +0.042 A 
ATOM     30  C   LIG    1      -21.478  72.716  18.332  0.00  0.00    +0.031 A 
ENDBRANCH  22  24
ENDBRANCH  14  16
ENDBRANCH   4  12
BRANCH   1  31
ATOM     31  C   LIG    1      -22.805  82.929  15.962  0.00  0.00    +0.236 C 
ATOM     32  N   LIG    1      -22.906  83.979  15.230  0.00  0.00    -0.248 NA
BRANCH  31  33
ATOM     33  O   LIG    1      -22.167  82.898  17.154  0.00  0.00    -0.491 OA
ATOM     34  H   LIG    1      -21.270  82.533  17.031  0.00  0.00    +0.294 HD
ENDBRANCH  31  33
BRANCH  32  35
ATOM     35  C   LIG    1      -22.319  85.201  15.787  0.00  0.00    +0.162 C 
BRANCH  35  36
ATOM     36  C   LIG    1      -22.224  86.224  14.681  0.00  0.00    +0.052 C 
ATOM     37  C   LIG    1      -23.012  85.977  13.469  0.00  0.00    +0.028 C 
ATOM     38  C   LIG    1      -22.984  86.865  12.464  0.00  0.00    +0.184 C 
ATOM     39  N   LIG    1      -22.228  88.004  12.545  0.00  0.00    -0.210 N 
ATOM     40  H   LIG    1      -22.229  88.670  11.784  0.00  0.00    +0.298 HD
ATOM     41  C   LIG    1      -21.458  88.293  13.638  0.00  0.00    +0.295 C 
ATOM     42  C   LIG    1      -21.445  87.324  14.781  0.00  0.00    +0.083 C 
BRANCH  41  43
ATOM     43  N   LIG    1      -20.767  89.389  13.664  0.00  0.00    -0.071 NA
ATOM     44  H   LIG    1      -20.299  89.539  12.766  0.00  0.00    +0.348 HD
ENDBRANCH  41  43
ENDBRANCH  35  36
ENDBRANCH  32  35
ENDBRANCH   1  31
TORSDOF 9
ENDMDL
MODEL 7
REMARK VINA RESULT:      -7.1      5.308      8.064
REMARK  Name = pdb/CHEMBL3894182.pdb
REMARK                            x       y       z     vdW  Elec       q    Type
REMARK                         _______ _______ _______ _____ _____    ______ ____
ROOT
ATOM      1  C   LIG    1      -37.383  70.242  24.850  0.00  0.00    +0.149 A 
ATOM      2  N   LIG    1      -36.960  69.124  25.461  0.00  0.00    -0.160 NA
ATOM      3  N   LIG    1      -35.853  69.495  26.190  0.00  0.00    -0.218 N 
ATOM      4  C   LIG    1      -35.659  70.878  26.107  0.00  0.00    +0.129 A 
ATOM      5  C   LIG    1      -36.618  71.361  25.240  0.00  0.00    +0.078 A 
ENDROOT
BRANCH   3   6
ATOM      6  C   LIG    1      -35.059  68.479  26.818  0.00  0.00    +0.067 A 
ATOM      7  C   LIG    1      -34.771  67.301  26.107  0.00  0.00    +0.028 A 
ATOM      8  C   LIG    1      -34.036  66.268  26.700  0.00  0.00    +0.002 A 
ATOM      9  C   LIG    1      -33.585  66.390  28.011  0.00  0.00    +0.000 A 
ATOM     10  C   LIG    1      -33.842  67.558  28.718  0.00  0.00    +0.002 A 
ATOM     11  C   LIG    1      -34.549  68.604  28.115  0.00  0.00    +0.028 A 
ENDBRANCH   3   6
BRANCH   4  12
ATOM     12  N   LIG    1      -34.699  71.730  26.653  0.00  0.00    -0.266 N 
ATOM     13  H   LIG    1      -34.019  72.125  26.017  0.00  0.00    +0.157 HD
ATOM     14  C   LIG    1      -34.870  72.309  27.961  0.00  0.00    +0.251 C 
ATOM     15  O   LIG    1      -35.820  72.001  28.637  0.00  0.00    -0.270 OA
BRANCH  14  16
ATOM     16  C   LIG    1      -33.803  73.228  28.450  0.00  0.00    +0.056 A 
ATOM     17  C   LIG    1      -32.685  72.796  29.153  0.00  0.00    +0.054 A 
ATOM     18 CL   LIG    1      -32.368  71.137  29.515  0.00  0.00    -0.083 Cl
ATOM     19  C   LIG    1      -31.736  73.722  29.584  0.00  0.00    +0.041 A 
ATOM     20  C   LIG    1      -31.888  75.090  29.319  0.00  0.00    +0.052 A 
ATOM     21 CL   LIG    1      -30.677  76.104  30.033  0.00  0.00    -0.083 Cl
ATOM     22  C   LIG    1      -32.984  75.572  28.575  0.00  0.00    +0.019 A 
ATOM     23  C   LIG    1      -33.941  74.603  28.163  0.00  0.00    +0.026 A 
BRANCH  22  24
ATOM     24  C   LIG    1      -33.213  76.999  28.221  0.00  0.00    +0.073 A 
ATOM     25  N   LIG    1      -34.308  77.562  28.800  0.00  0.00    -0.252 NA
ATOM     26  C   LIG    1      -34.577  78.866  28.518  0.00  0.00    +0.149 A 
ATOM     27  C   LIG    1      -33.796  79.648  27.692  0.00  0.00    +0.141 A 
ATOM     28  F   LIG    1      -34.101  80.930  27.464  0.00  0.00    -0.204 F 
ATOM     29  C   LIG    1      -32.693  79.075  27.090  0.00  0.00    +0.042 A 
ATOM     30  C   LIG    1      -32.415  77.729  27.334  0.00  0.00    +0.031 A 
ENDBRANCH  22  24
ENDBRANCH  14  16
ENDBRANCH   4  12
BRANCH   1  31
ATOM     31  C   LIG    1      -38.518  70.219  23.928  0.00  0.00    +0.236 C 
ATOM     32  N   LIG    1      -39.565  70.922  24.169  0.00  0.00    -0.248 NA
BRANCH  31  33
ATOM     33  O   LIG    1      -38.375  69.423  22.844  0.00  0.00    -0.491 OA
ATOM     34  H   LIG    1      -38.542  69.943  22.036  0.00  0.00    +0.294 HD
ENDBRANCH  31  33
BRANCH  32  35
ATOM     35  C   LIG    1      -40.619  70.861  23.152  0.00  0.00    +0.162 C 
BRANCH  35  36
ATOM     36  C   LIG    1      -41.286  72.214  23.084  0.00  0.00    +0.052 C 
ATOM     37  C   LIG    1      -42.553  72.300  22.351  0.00  0.00    +0.028 C 
ATOM     38  C   LIG    1      -43.202  73.472  22.278  0.00  0.00    +0.184 C 
ATOM     39  N   LIG    1      -42.702  74.598  22.875  0.00  0.00    -0.210 N 
ATOM     40  H   LIG    1      -43.210  75.471  22.823  0.00  0.00    +0.298 HD
ATOM     41  C   LIG    1      -41.518  74.595  23.563  0.00  0.00    +0.295 C 
ATOM     42  C   LIG    1      -40.749  73.313  23.660  0.00  0.00    +0.083 C 
BRANCH  41  43
ATOM     43  N   LIG    1      -41.094  75.688  24.114  0.00  0.00    -0.071 NA
ATOM     44  H   LIG    1      -40.134  75.890  23.819  0.00  0.00    +0.348 HD
ENDBRANCH  41  43
ENDBRANCH  35  36
ENDBRANCH  32  35
ENDBRANCH   1  31
TORSDOF 9
ENDMDL
MODEL 8
REMARK VINA RESULT:      -7.1      6.194      9.948
REMARK  Name = pdb/CHEMBL3894182.pdb
REMARK                            x       y       z     vdW  Elec       q    Type
REMARK                         _______ _______ _______ _____ _____    ______ ____
ROOT
ATOM      1  C   LIG    1      -37.022  69.924  24.751  0.00  0.00    +0.149 A 
ATOM      2  N   LIG    1      -36.679  68.855  25.487  0.00  0.00    -0.160 NA
ATOM      3  N   LIG    1      -35.637  69.273  26.286  0.00  0.00    -0.218 N 
ATOM      4  C   LIG    1      -35.410  70.642  26.111  0.00  0.00    +0.129 A 
ATOM      5  C   LIG    1      -36.275  71.063  25.121  0.00  0.00    +0.078 A 
ENDROOT
BRANCH   3   6
ATOM      6  C   LIG    1      -34.925  68.302  27.065  0.00  0.00    +0.067 A 
ATOM      7  C   LIG    1      -34.471  67.127  26.443  0.00  0.00    +0.028 A 
ATOM      8  C   LIG    1      -33.809  66.137  27.179  0.00  0.00    +0.002 A 
ATOM      9  C   LIG    1      -33.599  66.299  28.545  0.00  0.00    +0.000 A 
ATOM     10  C   LIG    1      -34.022  67.467  29.169  0.00  0.00    +0.002 A 
ATOM     11  C   LIG    1      -34.655  68.471  28.428  0.00  0.00    +0.028 A 
ENDBRANCH   3   6
BRANCH   4  12
ATOM     12  N   LIG    1      -34.490  71.525  26.674  0.00  0.00    -0.266 N 
ATOM     13  H   LIG    1      -33.760  71.877  26.069  0.00  0.00    +0.157 HD
ATOM     14  C   LIG    1      -34.758  72.187  27.926  0.00  0.00    +0.251 C 
ATOM     15  O   LIG    1      -35.760  71.926  28.543  0.00  0.00    -0.270 OA
BRANCH  14  16
ATOM     16  C   LIG    1      -33.726  73.133  28.436  0.00  0.00    +0.056 A 
ATOM     17  C   LIG    1      -32.619  72.731  29.175  0.00  0.00    +0.054 A 
ATOM     18 CL   LIG    1      -32.278  71.083  29.561  0.00  0.00    -0.083 Cl
ATOM     19  C   LIG    1      -31.703  73.681  29.625  0.00  0.00    +0.041 A 
ATOM     20  C   LIG    1      -31.876  75.044  29.343  0.00  0.00    +0.052 A 
ATOM     21 CL   LIG    1      -30.708  76.089  30.083  0.00  0.00    -0.083 Cl
ATOM     22  C   LIG    1      -32.961  75.496  28.564  0.00  0.00    +0.019 A 
ATOM     23  C   LIG    1      -33.884  74.502  28.132  0.00  0.00    +0.026 A 
BRANCH  22  24
ATOM     24  C   LIG    1      -33.209  76.913  28.190  0.00  0.00    +0.073 A 
ATOM     25  N   LIG    1      -34.301  77.475  28.776  0.00  0.00    -0.252 NA
ATOM     26  C   LIG    1      -34.587  78.771  28.477  0.00  0.00    +0.149 A 
ATOM     27  C   LIG    1      -33.827  79.548  27.627  0.00  0.00    +0.141 A 
ATOM     28  F   LIG    1      -34.149  80.823  27.383  0.00  0.00    -0.204 F 
ATOM     29  C   LIG    1      -32.727  78.976  27.018  0.00  0.00    +0.042 A 
ATOM     30  C   LIG    1      -32.432  77.637  27.279  0.00  0.00    +0.031 A 
ENDBRANCH  22  24
ENDBRANCH  14  16
ENDBRANCH   4  12
BRANCH   1  31
ATOM     31  C   LIG    1      -38.066  69.839  23.732  0.00  0.00    +0.236 C 
ATOM     32  N   LIG    1      -37.806  69.349  22.574  0.00  0.00    -0.248 NA
BRANCH  31  33
ATOM     33  O   LIG    1      -39.282  70.303  24.101  0.00  0.00    -0.491 OA
ATOM     34  H   LIG    1      -39.823  69.563  24.435  0.00  0.00    +0.294 HD
ENDBRANCH  31  33
BRANCH  32  35
ATOM     35  C   LIG    1      -38.940  69.266  21.650  0.00  0.00    +0.162 C 
BRANCH  35  36
ATOM     36  C   LIG    1      -38.607  68.248  20.586  0.00  0.00    +0.052 C 
ATOM     37  C   LIG    1      -39.470  67.066  20.494  0.00  0.00    +0.028 C 
ATOM     38  C   LIG    1      -39.235  66.141  19.551  0.00  0.00    +0.184 C 
ATOM     39  N   LIG    1      -38.197  66.277  18.668  0.00  0.00    -0.210 N 
ATOM     40  H   LIG    1      -38.041  65.577  17.954  0.00  0.00    +0.298 HD
ATOM     41  C   LIG    1      -37.343  67.346  18.704  0.00  0.00    +0.295 C 
ATOM     42  C   LIG    1      -37.556  68.398  19.748  0.00  0.00    +0.083 C 
BRANCH  41  43
ATOM     43  N   LIG    1      -36.381  67.426  17.839  0.00  0.00    -0.071 NA
ATOM     44  H   LIG    1      -35.979  66.501  17.662  0.00  0.00    +0.348 HD
ENDBRANCH  41  43
ENDBRANCH  35  36
ENDBRANCH  32  35
ENDBRANCH   1  31
TORSDOF 9
ENDMDL
MODEL 9
REMARK VINA RESULT:      -7.0     17.968     19.875
REMARK  Name = pdb/CHEMBL3894182.pdb
REMARK                            x       y       z     vdW  Elec       q    Type
REMARK                         _______ _______ _______ _____ _____    ______ ____
ROOT
ATOM      1  C   LIG    1      -22.716  82.324  15.251  0.00  0.00    +0.149 A 
ATOM      2  N   LIG    1      -21.775  81.390  15.463  0.00  0.00    -0.160 NA
ATOM      3  N   LIG    1      -22.262  80.236  14.890  0.00  0.00    -0.218 N 
ATOM      4  C   LIG    1      -23.467  80.494  14.229  0.00  0.00    +0.129 A 
ATOM      5  C   LIG    1      -23.775  81.818  14.469  0.00  0.00    +0.078 A 
ENDROOT
BRANCH   3   6
ATOM      6  C   LIG    1      -21.562  79.003  15.107  0.00  0.00    +0.067 A 
ATOM      7  C   LIG    1      -20.246  79.042  15.599  0.00  0.00    +0.028 A 
ATOM      8  C   LIG    1      -19.515  77.863  15.784  0.00  0.00    +0.002 A 
ATOM      9  C   LIG    1      -20.081  76.630  15.473  0.00  0.00    +0.000 A 
ATOM     10  C   LIG    1      -21.390  76.575  15.009  0.00  0.00    +0.002 A 
ATOM     11  C   LIG    1      -22.132  77.750  14.854  0.00  0.00    +0.028 A 
ENDBRANCH   3   6
BRANCH   4  12
ATOM     12  N   LIG    1      -24.340  79.679  13.509  0.00  0.00    -0.266 N 
ATOM     13  H   LIG    1      -24.077  79.447  12.561  0.00  0.00    +0.157 HD
ATOM     14  C   LIG    1      -25.365  78.912  14.171  0.00  0.00    +0.251 C 
ATOM     15  O   LIG    1      -25.528  79.024  15.361  0.00  0.00    -0.270 OA
BRANCH  14  16
ATOM     16  C   LIG    1      -26.234  78.050  13.321  0.00  0.00    +0.056 A 
ATOM     17  C   LIG    1      -26.039  76.682  13.171  0.00  0.00    +0.054 A 
ATOM     18 CL   LIG    1      -24.793  75.801  13.979  0.00  0.00    -0.083 Cl
ATOM     19  C   LIG    1      -26.892  75.946  12.349  0.00  0.00    +0.041 A 
ATOM     20  C   LIG    1      -27.951  76.563  11.668  0.00  0.00    +0.052 A 
ATOM     21 CL   LIG    1      -28.830  75.519  10.600  0.00  0.00    -0.083 Cl
ATOM     22  C   LIG    1      -28.213  77.940  11.820  0.00  0.00    +0.019 A 
ATOM     23  C   LIG    1      -27.315  78.664  12.654  0.00  0.00    +0.026 A 
BRANCH  22  24
ATOM     24  C   LIG    1      -29.327  78.674  11.162  0.00  0.00    +0.073 A 
ATOM     25  N   LIG    1      -30.424  78.867  11.944  0.00  0.00    -0.252 NA
ATOM     26  C   LIG    1      -31.481  79.531  11.404  0.00  0.00    +0.149 A 
ATOM     27  C   LIG    1      -31.496  80.031  10.118  0.00  0.00    +0.141 A 
ATOM     28  F   LIG    1      -32.559  80.692   9.647  0.00  0.00    -0.204 F 
ATOM     29  C   LIG    1      -30.390  79.825   9.317  0.00  0.00    +0.042 A 
ATOM     30  C   LIG    1      -29.306  79.114   9.834  0.00  0.00    +0.031 A 
ENDBRANCH  22  24
ENDBRANCH  14  16
ENDBRANCH   4  12
BRANCH   1  31
ATOM     31  C   LIG    1      -22.571  83.680  15.780  0.00  0.00    +0.236 C 
ATOM     32  N   LIG    1      -22.553  84.688  14.986  0.00  0.00    -0.248 NA
BRANCH  31  33
ATOM     33  O   LIG    1      -22.460  83.774  17.124  0.00  0.00    -0.491 OA
ATOM     34  H   LIG    1      -22.152  82.920  17.484  0.00  0.00    +0.294 HD
ENDBRANCH  31  33
BRANCH  32  35
ATOM     35  C   LIG    1      -22.455  86.002  15.629  0.00  0.00    +0.162 C 
BRANCH  35  36
ATOM     36  C   LIG    1      -21.671  86.915  14.719  0.00  0.00    +0.052 C 
ATOM     37  C   LIG    1      -22.337  88.139  14.262  0.00  0.00    +0.028 C 
ATOM     38  C   LIG    1      -21.679  89.000  13.471  0.00  0.00    +0.184 C 
ATOM     39  N   LIG    1      -20.391  88.757  13.074  0.00  0.00    -0.210 N 
ATOM     40  H   LIG    1      -19.905  89.422  12.488  0.00  0.00    +0.298 HD
ATOM     41  C   LIG    1      -19.714  87.628  13.449  0.00  0.00    +0.295 C 
ATOM     42  C   LIG    1      -20.411  86.630  14.322  0.00  0.00    +0.083 C 
BRANCH  41  43
ATOM     43  N   LIG    1      -18.494  87.451  13.049  0.00  0.00    -0.071 NA
ATOM     44  H   LIG    1      -18.457  87.383  12.028  0.00  0.00    +0.348 HD
ENDBRANCH  41  43
ENDBRANCH  35  36
ENDBRANCH  32  35
ENDBRANCH   1  31
TORSDOF 9
ENDMDL
