MODEL 1
REMARK VINA RESULT:      -6.9      0.000      0.000
REMARK  Name = pdb/CHEMBL3676064.pdb
REMARK                            x       y       z     vdW  Elec       q    Type
REMARK                         _______ _______ _______ _____ _____    ______ ____
ROOT
ATOM      1  C   LIG    1      -23.673  79.889  35.315  0.00  0.00    +0.126 A 
ATOM      2  N   LIG    1      -23.938  79.103  34.292  0.00  0.00    -0.212 NA
ATOM      3  C   LIG    1      -25.121  78.413  34.289  0.00  0.00    +0.170 A 
ATOM      4  C   LIG    1      -25.692  77.557  33.361  0.00  0.00    +0.100 A 
ATOM      5  C   LIG    1      -26.913  77.174  33.955  0.00  0.00    +0.150 A 
ATOM      6  N   LIG    1      -27.119  77.730  35.149  0.00  0.00    -0.173 NA
ATOM      7  N   LIG    1      -26.025  78.501  35.348  0.00  0.00    -0.221 N 
ATOM      8  C   LIG    1      -25.755  79.316  36.436  0.00  0.00    +0.118 A 
ATOM      9  C   LIG    1      -24.625  80.032  36.480  0.00  0.00    +0.063 A 
ENDROOT
BRANCH   1  11
ATOM     10  C   LIG    1      -21.307  80.075  36.106  0.00  0.00    +0.107 C 
ATOM     11  N   LIG    1      -22.474  80.594  35.334  0.00  0.00    -0.308 N 
ATOM     12  C   LIG    1      -22.491  82.061  35.408  0.00  0.00    +0.107 C 
ATOM     13  C   LIG    1      -21.839  82.369  36.739  0.00  0.00    +0.021 C 
ATOM     14  C   LIG    1      -20.739  81.319  36.825  0.00  0.00    +0.029 C 
BRANCH  10  17
ATOM     15  C   LIG    1      -18.805  78.577  37.155  0.00  0.00    +0.066 C 
ATOM     16  C   LIG    1      -19.135  78.725  35.697  0.00  0.00    +0.043 A 
ATOM     17  C   LIG    1      -20.279  79.391  35.211  0.00  0.00    -0.003 A 
ATOM     18  C   LIG    1      -20.441  79.411  33.812  0.00  0.00    +0.047 A 
ATOM     19  C   LIG    1      -19.523  78.786  32.982  0.00  0.00    +0.142 A 
ATOM     20  F   LIG    1      -19.694  78.795  31.655  0.00  0.00    -0.204 F 
ATOM     21  C   LIG    1      -18.441  78.154  33.548  0.00  0.00    +0.149 A 
ATOM     22  N   LIG    1      -18.229  78.115  34.880  0.00  0.00    -0.257 NA
ENDBRANCH  10  17
ENDBRANCH   1  11
BRANCH   4  23
ATOM     23  C   LIG    1      -25.188  77.130  32.076  0.00  0.00    +0.249 C 
ATOM     24  N   LIG    1      -23.841  76.867  32.006  0.00  0.00    -0.306 N 
ATOM     25  H   LIG    1      -23.298  77.009  32.857  0.00  0.00    +0.149 HD
ATOM     26  O   LIG    1      -25.928  77.023  31.090  0.00  0.00    -0.270 OA
BRANCH  24  27
ATOM     27  C   LIG    1      -23.216  76.376  30.786  0.00  0.00    +0.102 C 
ATOM     28  C   LIG    1      -22.493  77.499  30.008  0.00  0.00    +0.135 C 
ATOM     29  C   LIG    1      -21.286  76.812  29.390  0.00  0.00    +0.033 C 
ATOM     30  C   LIG    1      -20.844  75.856  30.483  0.00  0.00    +0.004 C 
ATOM     31  C   LIG    1      -22.150  75.303  31.049  0.00  0.00    +0.025 C 
BRANCH  28  32
ATOM     32  O   LIG    1      -23.312  78.061  28.994  0.00  0.00    -0.390 OA
ATOM     33  H   LIG    1      -24.130  77.516  28.970  0.00  0.00    +0.210 HD
ENDBRANCH  28  32
ENDBRANCH  24  27
ENDBRANCH   4  23
TORSDOF 5
ENDMDL
MODEL 2
REMARK VINA RESULT:      -6.3     18.880     21.787
REMARK  Name = pdb/CHEMBL3676064.pdb
REMARK                            x       y       z     vdW  Elec       q    Type
REMARK                         _______ _______ _______ _____ _____    ______ ____
ROOT
ATOM      1  C   LIG    1      -22.969  86.261  12.034  0.00  0.00    +0.126 A 
ATOM      2  N   LIG    1      -23.435  85.123  12.506  0.00  0.00    -0.212 NA
ATOM      3  C   LIG    1      -24.311  84.408  11.734  0.00  0.00    +0.170 A 
ATOM      4  C   LIG    1      -24.933  83.185  11.928  0.00  0.00    +0.100 A 
ATOM      5  C   LIG    1      -25.717  83.011  10.768  0.00  0.00    +0.150 A 
ATOM      6  N   LIG    1      -25.611  84.018   9.901  0.00  0.00    -0.173 NA
ATOM      7  N   LIG    1      -24.738  84.869  10.488  0.00  0.00    -0.221 N 
ATOM      8  C   LIG    1      -24.264  86.070   9.983  0.00  0.00    +0.118 A 
ATOM      9  C   LIG    1      -23.387  86.798  10.685  0.00  0.00    +0.063 A 
ENDROOT
BRANCH   1  11
ATOM     10  C   LIG    1      -21.286  86.337  13.883  0.00  0.00    +0.107 C 
ATOM     11  N   LIG    1      -22.080  87.001  12.809  0.00  0.00    -0.308 N 
ATOM     12  C   LIG    1      -22.444  88.357  13.241  0.00  0.00    +0.107 C 
ATOM     13  C   LIG    1      -22.520  88.254  14.748  0.00  0.00    +0.021 C 
ATOM     14  C   LIG    1      -21.370  87.312  15.080  0.00  0.00    +0.029 C 
BRANCH  10  17
ATOM     15  C   LIG    1      -19.993  83.521  13.855  0.00  0.00    +0.066 C 
ATOM     16  C   LIG    1      -19.266  84.773  13.458  0.00  0.00    +0.043 A 
ATOM     17  C   LIG    1      -19.851  86.056  13.452  0.00  0.00    -0.003 A 
ATOM     18  C   LIG    1      -19.025  87.115  13.027  0.00  0.00    +0.047 A 
ATOM     19  C   LIG    1      -17.720  86.879  12.622  0.00  0.00    +0.142 A 
ATOM     20  F   LIG    1      -16.948  87.888  12.202  0.00  0.00    -0.204 F 
ATOM     21  C   LIG    1      -17.239  85.592  12.653  0.00  0.00    +0.149 A 
ATOM     22  N   LIG    1      -17.981  84.541  13.064  0.00  0.00    -0.257 NA
ENDBRANCH  10  17
ENDBRANCH   1  11
BRANCH   4  23
ATOM     23  C   LIG    1      -24.832  82.273  13.044  0.00  0.00    +0.249 C 
ATOM     24  N   LIG    1      -23.812  82.509  13.935  0.00  0.00    -0.306 N 
ATOM     25  H   LIG    1      -23.196  83.295  13.733  0.00  0.00    +0.149 HD
ATOM     26  O   LIG    1      -25.612  81.322  13.179  0.00  0.00    -0.270 OA
BRANCH  24  27
ATOM     27  C   LIG    1      -23.633  81.698  15.130  0.00  0.00    +0.102 C 
ATOM     28  C   LIG    1      -22.893  80.374  14.833  0.00  0.00    +0.135 C 
ATOM     29  C   LIG    1      -22.060  80.120  16.079  0.00  0.00    +0.033 C 
ATOM     30  C   LIG    1      -21.587  81.511  16.460  0.00  0.00    +0.004 C 
ATOM     31  C   LIG    1      -22.802  82.402  16.213  0.00  0.00    +0.025 C 
BRANCH  28  32
ATOM     32  O   LIG    1      -23.790  79.296  14.613  0.00  0.00    -0.390 OA
ATOM     33  H   LIG    1      -24.480  79.368  15.310  0.00  0.00    +0.210 HD
ENDBRANCH  28  32
ENDBRANCH  24  27
ENDBRANCH   4  23
TORSDOF 5
ENDMDL
MODEL 3
REMARK VINA RESULT:      -6.3     14.188     17.618
REMARK  Name = pdb/CHEMBL3676064.pdb
REMARK                            x       y       z     vdW  Elec       q    Type
REMARK                         _______ _______ _______ _____ _____    ______ ____
ROOT
ATOM      1  C   LIG    1      -38.680  74.703  24.935  0.00  0.00    +0.126 A 
ATOM      2  N   LIG    1      -38.169  73.489  24.961  0.00  0.00    -0.212 NA
ATOM      3  C   LIG    1      -38.888  72.468  24.400  0.00  0.00    +0.170 A 
ATOM      4  C   LIG    1      -38.612  71.120  24.238  0.00  0.00    +0.100 A 
ATOM      5  C   LIG    1      -39.758  70.610  23.593  0.00  0.00    +0.150 A 
ATOM      6  N   LIG    1      -40.687  71.536  23.353  0.00  0.00    -0.173 NA
ATOM      7  N   LIG    1      -40.147  72.679  23.836  0.00  0.00    -0.221 N 
ATOM      8  C   LIG    1      -40.701  73.949  23.812  0.00  0.00    +0.118 A 
ATOM      9  C   LIG    1      -40.032  74.988  24.324  0.00  0.00    +0.063 A 
ENDROOT
BRANCH   1  11
ATOM     10  C   LIG    1      -37.754  75.806  26.981  0.00  0.00    +0.107 C 
ATOM     11  N   LIG    1      -37.962  75.751  25.504  0.00  0.00    -0.308 N 
ATOM     12  C   LIG    1      -38.129  77.115  24.986  0.00  0.00    +0.107 C 
ATOM     13  C   LIG    1      -38.734  77.877  26.145  0.00  0.00    +0.021 C 
ATOM     14  C   LIG    1      -38.013  77.285  27.349  0.00  0.00    +0.029 C 
BRANCH  10  17
ATOM     15  C   LIG    1      -37.161  73.067  28.304  0.00  0.00    +0.066 C 
ATOM     16  C   LIG    1      -36.105  74.091  28.004  0.00  0.00    +0.043 A 
ATOM     17  C   LIG    1      -36.363  75.333  27.387  0.00  0.00    -0.003 A 
ATOM     18  C   LIG    1      -35.246  76.160  27.160  0.00  0.00    +0.047 A 
ATOM     19  C   LIG    1      -33.971  75.743  27.513  0.00  0.00    +0.142 A 
ATOM     20  F   LIG    1      -32.913  76.527  27.277  0.00  0.00    -0.204 F 
ATOM     21  C   LIG    1      -33.816  74.511  28.102  0.00  0.00    +0.149 A 
ATOM     22  N   LIG    1      -34.852  73.684  28.355  0.00  0.00    -0.257 NA
ENDBRANCH  10  17
ENDBRANCH   1  11
BRANCH   4  23
ATOM     23  C   LIG    1      -37.438  70.372  24.626  0.00  0.00    +0.249 C 
ATOM     24  N   LIG    1      -37.104  70.409  25.959  0.00  0.00    -0.306 N 
ATOM     25  H   LIG    1      -37.696  70.972  26.567  0.00  0.00    +0.149 HD
ATOM     26  O   LIG    1      -36.763  69.746  23.800  0.00  0.00    -0.270 OA
BRANCH  24  27
ATOM     27  C   LIG    1      -35.978  69.655  26.490  0.00  0.00    +0.102 C 
ATOM     28  C   LIG    1      -34.638  70.405  26.316  0.00  0.00    +0.135 C 
ATOM     29  C   LIG    1      -33.833  70.031  27.550  0.00  0.00    +0.033 C 
ATOM     30  C   LIG    1      -34.881  70.019  28.647  0.00  0.00    +0.004 C 
ATOM     31  C   LIG    1      -36.102  69.375  27.995  0.00  0.00    +0.025 C 
BRANCH  28  32
ATOM     32  O   LIG    1      -33.950  70.006  25.140  0.00  0.00    -0.390 OA
ATOM     33  H   LIG    1      -33.004  69.925  25.391  0.00  0.00    +0.210 HD
ENDBRANCH  28  32
ENDBRANCH  24  27
ENDBRANCH   4  23
TORSDOF 5
ENDMDL
MODEL 4
REMARK VINA RESULT:      -5.8      1.968      3.434
REMARK  Name = pdb/CHEMBL3676064.pdb
REMARK                            x       y       z     vdW  Elec       q    Type
REMARK                         _______ _______ _______ _____ _____    ______ ____
ROOT
ATOM      1  C   LIG    1      -23.257  78.686  36.060  0.00  0.00    +0.126 A 
ATOM      2  N   LIG    1      -23.694  78.263  34.891  0.00  0.00    -0.212 NA
ATOM      3  C   LIG    1      -25.028  77.983  34.756  0.00  0.00    +0.170 A 
ATOM      4  C   LIG    1      -25.782  77.568  33.671  0.00  0.00    +0.100 A 
ATOM      5  C   LIG    1      -27.090  77.451  34.187  0.00  0.00    +0.150 A 
ATOM      6  N   LIG    1      -27.179  77.766  35.480  0.00  0.00    -0.173 NA
ATOM      7  N   LIG    1      -25.916  78.105  35.826  0.00  0.00    -0.221 N 
ATOM      8  C   LIG    1      -25.468  78.538  37.064  0.00  0.00    +0.118 A 
ATOM      9  C   LIG    1      -24.179  78.849  37.245  0.00  0.00    +0.063 A 
ENDROOT
BRANCH   1  11
ATOM     10  C   LIG    1      -21.329  80.222  35.636  0.00  0.00    +0.107 C 
ATOM     11  N   LIG    1      -21.904  78.972  36.213  0.00  0.00    -0.308 N 
ATOM     12  C   LIG    1      -20.915  77.890  36.111  0.00  0.00    +0.107 C 
ATOM     13  C   LIG    1      -20.097  78.254  34.891  0.00  0.00    +0.021 C 
ATOM     14  C   LIG    1      -19.999  79.771  34.992  0.00  0.00    +0.029 C 
BRANCH  10  17
ATOM     15  C   LIG    1      -23.415  82.422  36.278  0.00  0.00    +0.066 C 
ATOM     16  C   LIG    1      -22.083  82.315  36.962  0.00  0.00    +0.043 A 
ATOM     17  C   LIG    1      -21.135  81.308  36.689  0.00  0.00    -0.003 A 
ATOM     18  C   LIG    1      -19.947  81.348  37.445  0.00  0.00    +0.047 A 
ATOM     19  C   LIG    1      -19.756  82.322  38.414  0.00  0.00    +0.142 A 
ATOM     20  F   LIG    1      -18.633  82.342  39.141  0.00  0.00    -0.204 F 
ATOM     21  C   LIG    1      -20.742  83.258  38.617  0.00  0.00    +0.149 A 
ATOM     22  N   LIG    1      -21.893  83.275  37.912  0.00  0.00    -0.257 NA
ENDBRANCH  10  17
ENDBRANCH   1  11
BRANCH   4  23
ATOM     23  C   LIG    1      -25.366  77.302  32.313  0.00  0.00    +0.249 C 
ATOM     24  N   LIG    1      -24.131  76.721  32.156  0.00  0.00    -0.306 N 
ATOM     25  H   LIG    1      -23.596  76.537  33.003  0.00  0.00    +0.149 HD
ATOM     26  O   LIG    1      -26.078  77.599  31.345  0.00  0.00    -0.270 OA
BRANCH  24  27
ATOM     27  C   LIG    1      -23.617  76.352  30.845  0.00  0.00    +0.102 C 
ATOM     28  C   LIG    1      -22.828  77.503  30.181  0.00  0.00    +0.135 C 
ATOM     29  C   LIG    1      -21.724  76.805  29.404  0.00  0.00    +0.033 C 
ATOM     30  C   LIG    1      -21.323  75.671  30.329  0.00  0.00    +0.004 C 
ATOM     31  C   LIG    1      -22.647  75.162  30.896  0.00  0.00    +0.025 C 
BRANCH  28  32
ATOM     32  O   LIG    1      -23.638  78.271  29.303  0.00  0.00    -0.390 OA
ATOM     33  H   LIG    1      -24.539  78.277  29.698  0.00  0.00    +0.210 HD
ENDBRANCH  28  32
ENDBRANCH  24  27
ENDBRANCH   4  23
TORSDOF 5
ENDMDL
MODEL 5
REMARK VINA RESULT:      -5.7     15.244     19.262
REMARK  Name = pdb/CHEMBL3676064.pdb
REMARK                            x       y       z     vdW  Elec       q    Type
REMARK                         _______ _______ _______ _____ _____    ______ ____
ROOT
ATOM      1  C   LIG    1      -38.361  72.795  24.916  0.00  0.00    +0.126 A 
ATOM      2  N   LIG    1      -37.594  73.705  25.479  0.00  0.00    -0.212 NA
ATOM      3  C   LIG    1      -37.979  75.018  25.407  0.00  0.00    +0.170 A 
ATOM      4  C   LIG    1      -37.421  76.177  25.920  0.00  0.00    +0.100 A 
ATOM      5  C   LIG    1      -38.293  77.198  25.488  0.00  0.00    +0.150 A 
ATOM      6  N   LIG    1      -39.322  76.747  24.769  0.00  0.00    -0.173 NA
ATOM      7  N   LIG    1      -39.136  75.407  24.730  0.00  0.00    -0.221 N 
ATOM      8  C   LIG    1      -39.947  74.461  24.124  0.00  0.00    +0.118 A 
ATOM      9  C   LIG    1      -39.631  73.162  24.185  0.00  0.00    +0.063 A 
ENDROOT
BRANCH   1  11
ATOM     10  C   LIG    1      -38.989  70.378  24.771  0.00  0.00    +0.107 C 
ATOM     11  N   LIG    1      -37.981  71.458  24.979  0.00  0.00    -0.308 N 
ATOM     12  C   LIG    1      -37.006  71.024  25.989  0.00  0.00    +0.107 C 
ATOM     13  C   LIG    1      -37.790  70.078  26.872  0.00  0.00    +0.021 C 
ATOM     14  C   LIG    1      -38.676  69.343  25.875  0.00  0.00    +0.029 C 
BRANCH  10  17
ATOM     15  C   LIG    1      -41.392  70.220  22.820  0.00  0.00    +0.066 C 
ATOM     16  C   LIG    1      -40.022  69.701  22.494  0.00  0.00    +0.043 A 
ATOM     17  C   LIG    1      -38.919  69.783  23.369  0.00  0.00    -0.003 A 
ATOM     18  C   LIG    1      -37.701  69.265  22.886  0.00  0.00    +0.047 A 
ATOM     19  C   LIG    1      -37.614  68.728  21.610  0.00  0.00    +0.142 A 
ATOM     20  F   LIG    1      -36.449  68.255  21.153  0.00  0.00    -0.204 F 
ATOM     21  C   LIG    1      -38.742  68.699  20.825  0.00  0.00    +0.149 A 
ATOM     22  N   LIG    1      -39.937  69.169  21.241  0.00  0.00    -0.257 NA
ENDBRANCH  10  17
ENDBRANCH   1  11
BRANCH   4  23
ATOM     23  C   LIG    1      -36.226  76.345  26.715  0.00  0.00    +0.249 C 
ATOM     24  N   LIG    1      -35.668  75.199  27.228  0.00  0.00    -0.306 N 
ATOM     25  H   LIG    1      -36.146  74.322  27.024  0.00  0.00    +0.149 HD
ATOM     26  O   LIG    1      -35.743  77.463  26.935  0.00  0.00    -0.270 OA
BRANCH  24  27
ATOM     27  C   LIG    1      -34.433  75.223  27.998  0.00  0.00    +0.102 C 
ATOM     28  C   LIG    1      -34.678  75.575  29.483  0.00  0.00    +0.135 C 
ATOM     29  C   LIG    1      -33.641  74.762  30.240  0.00  0.00    +0.033 C 
ATOM     30  C   LIG    1      -33.613  73.452  29.475  0.00  0.00    +0.004 C 
ATOM     31  C   LIG    1      -33.707  73.870  28.009  0.00  0.00    +0.025 C 
BRANCH  28  32
ATOM     32  O   LIG    1      -34.502  76.960  29.741  0.00  0.00    -0.390 OA
ATOM     33  H   LIG    1      -33.555  77.076  29.977  0.00  0.00    +0.210 HD
ENDBRANCH  28  32
ENDBRANCH  24  27
ENDBRANCH   4  23
TORSDOF 5
ENDMDL
MODEL 6
REMARK VINA RESULT:      -5.7     18.546     22.200
REMARK  Name = pdb/CHEMBL3676064.pdb
REMARK                            x       y       z     vdW  Elec       q    Type
REMARK                         _______ _______ _______ _____ _____    ______ ____
ROOT
ATOM      1  C   LIG    1      -20.133  81.804  14.107  0.00  0.00    +0.126 A 
ATOM      2  N   LIG    1      -20.174  83.120  14.077  0.00  0.00    -0.212 NA
ATOM      3  C   LIG    1      -19.061  83.797  13.654  0.00  0.00    +0.170 A 
ATOM      4  C   LIG    1      -18.809  85.147  13.478  0.00  0.00    +0.100 A 
ATOM      5  C   LIG    1      -17.473  85.191  13.028  0.00  0.00    +0.150 A 
ATOM      6  N   LIG    1      -16.912  83.987  12.916  0.00  0.00    -0.173 NA
ATOM      7  N   LIG    1      -17.891  83.130  13.288  0.00  0.00    -0.221 N 
ATOM      8  C   LIG    1      -17.831  81.746  13.324  0.00  0.00    +0.118 A 
ATOM      9  C   LIG    1      -18.897  81.034  13.707  0.00  0.00    +0.063 A 
ENDROOT
BRANCH   1  11
ATOM     10  C   LIG    1      -22.611  81.718  14.439  0.00  0.00    +0.107 C 
ATOM     11  N   LIG    1      -21.256  81.103  14.538  0.00  0.00    -0.308 N 
ATOM     12  C   LIG    1      -21.181  80.285  15.756  0.00  0.00    +0.107 C 
ATOM     13  C   LIG    1      -22.147  80.956  16.708  0.00  0.00    +0.021 C 
ATOM     14  C   LIG    1      -23.285  81.381  15.789  0.00  0.00    +0.029 C 
BRANCH  10  17
ATOM     15  C   LIG    1      -22.914  83.233  11.752  0.00  0.00    +0.066 C 
ATOM     16  C   LIG    1      -23.543  81.898  12.029  0.00  0.00    +0.043 A 
ATOM     17  C   LIG    1      -23.398  81.194  13.242  0.00  0.00    -0.003 A 
ATOM     18  C   LIG    1      -24.040  79.943  13.316  0.00  0.00    +0.047 A 
ATOM     19  C   LIG    1      -24.752  79.445  12.235  0.00  0.00    +0.142 A 
ATOM     20  F   LIG    1      -25.343  78.247  12.308  0.00  0.00    -0.204 F 
ATOM     21  C   LIG    1      -24.831  80.200  11.090  0.00  0.00    +0.149 A 
ATOM     22  N   LIG    1      -24.247  81.411  10.967  0.00  0.00    -0.257 NA
ENDBRANCH  10  17
ENDBRANCH   1  11
BRANCH   4  23
ATOM     23  C   LIG    1      -19.682  86.279  13.695  0.00  0.00    +0.249 C 
ATOM     24  N   LIG    1      -20.862  86.282  12.991  0.00  0.00    -0.306 N 
ATOM     25  H   LIG    1      -21.026  85.499  12.360  0.00  0.00    +0.149 HD
ATOM     26  O   LIG    1      -19.373  87.201  14.459  0.00  0.00    -0.270 OA
BRANCH  24  27
ATOM     27  C   LIG    1      -21.854  87.334  13.160  0.00  0.00    +0.102 C 
ATOM     28  C   LIG    1      -21.518  88.593  12.328  0.00  0.00    +0.135 C 
ATOM     29  C   LIG    1      -22.871  89.138  11.904  0.00  0.00    +0.033 C 
ATOM     30  C   LIG    1      -23.665  87.879  11.606  0.00  0.00    +0.004 C 
ATOM     31  C   LIG    1      -23.261  86.908  12.714  0.00  0.00    +0.025 C 
BRANCH  28  32
ATOM     32  O   LIG    1      -20.813  89.563  13.088  0.00  0.00    -0.390 OA
ATOM     33  H   LIG    1      -21.092  90.439  12.740  0.00  0.00    +0.210 HD
ENDBRANCH  28  32
ENDBRANCH  24  27
ENDBRANCH   4  23
TORSDOF 5
ENDMDL
MODEL 7
REMARK VINA RESULT:      -5.6      2.765      5.739
REMARK  Name = pdb/CHEMBL3676064.pdb
REMARK                            x       y       z     vdW  Elec       q    Type
REMARK                         _______ _______ _______ _____ _____    ______ ____
ROOT
ATOM      1  C   LIG    1      -23.958  77.751  32.666  0.00  0.00    +0.126 A 
ATOM      2  N   LIG    1      -22.665  77.531  32.548  0.00  0.00    -0.212 NA
ATOM      3  C   LIG    1      -22.163  77.243  31.306  0.00  0.00    +0.170 A 
ATOM      4  C   LIG    1      -20.873  77.007  30.860  0.00  0.00    +0.100 A 
ATOM      5  C   LIG    1      -21.027  76.765  29.478  0.00  0.00    +0.150 A 
ATOM      6  N   LIG    1      -22.293  76.843  29.065  0.00  0.00    -0.173 NA
ATOM      7  N   LIG    1      -22.988  77.149  30.185  0.00  0.00    -0.221 N 
ATOM      8  C   LIG    1      -24.352  77.369  30.296  0.00  0.00    +0.118 A 
ATOM      9  C   LIG    1      -24.892  77.677  31.481  0.00  0.00    +0.063 A 
ENDROOT
BRANCH   1  11
ATOM     10  C   LIG    1      -23.575  78.230  35.091  0.00  0.00    +0.107 C 
ATOM     11  N   LIG    1      -24.482  78.041  33.922  0.00  0.00    -0.308 N 
ATOM     12  C   LIG    1      -25.717  77.381  34.367  0.00  0.00    +0.107 C 
ATOM     13  C   LIG    1      -25.281  76.552  35.555  0.00  0.00    +0.021 C 
ATOM     14  C   LIG    1      -24.259  77.452  36.237  0.00  0.00    +0.029 C 
BRANCH  10  17
ATOM     15  C   LIG    1      -20.925  79.761  34.599  0.00  0.00    +0.066 C 
ATOM     16  C   LIG    1      -22.145  80.387  35.212  0.00  0.00    +0.043 A 
ATOM     17  C   LIG    1      -23.360  79.703  35.425  0.00  0.00    -0.003 A 
ATOM     18  C   LIG    1      -24.408  80.455  35.989  0.00  0.00    +0.047 A 
ATOM     19  C   LIG    1      -24.236  81.798  36.291  0.00  0.00    +0.142 A 
ATOM     20  F   LIG    1      -25.243  82.510  36.810  0.00  0.00    -0.204 F 
ATOM     21  C   LIG    1      -23.017  82.382  36.040  0.00  0.00    +0.149 A 
ATOM     22  N   LIG    1      -21.974  81.706  35.513  0.00  0.00    -0.257 NA
ENDBRANCH  10  17
ENDBRANCH   1  11
BRANCH   4  23
ATOM     23  C   LIG    1      -19.633  76.997  31.602  0.00  0.00    +0.249 C 
ATOM     24  N   LIG    1      -19.736  76.797  32.958  0.00  0.00    -0.306 N 
ATOM     25  H   LIG    1      -20.674  76.687  33.339  0.00  0.00    +0.149 HD
ATOM     26  O   LIG    1      -18.542  77.177  31.048  0.00  0.00    -0.270 OA
BRANCH  24  27
ATOM     27  C   LIG    1      -18.560  76.710  33.813  0.00  0.00    +0.102 C 
ATOM     28  C   LIG    1      -17.940  78.097  34.094  0.00  0.00    +0.135 C 
ATOM     29  C   LIG    1      -17.411  77.992  35.516  0.00  0.00    +0.033 C 
ATOM     30  C   LIG    1      -18.480  77.172  36.215  0.00  0.00    +0.004 C 
ATOM     31  C   LIG    1      -18.866  76.106  35.191  0.00  0.00    +0.025 C 
BRANCH  28  32
ATOM     32  O   LIG    1      -16.882  78.402  33.198  0.00  0.00    -0.390 OA
ATOM     33  H   LIG    1      -16.878  77.685  32.525  0.00  0.00    +0.210 HD
ENDBRANCH  28  32
ENDBRANCH  24  27
ENDBRANCH   4  23
TORSDOF 5
ENDMDL
MODEL 8
REMARK VINA RESULT:      -5.6     13.348     17.473
REMARK  Name = pdb/CHEMBL3676064.pdb
REMARK                            x       y       z     vdW  Elec       q    Type
REMARK                         _______ _______ _______ _____ _____    ______ ____
ROOT
ATOM      1  C   LIG    1      -37.059  76.362  26.491  0.00  0.00    +0.126 A 
ATOM      2  N   LIG    1      -36.383  77.440  26.831  0.00  0.00    -0.212 NA
ATOM      3  C   LIG    1      -35.382  77.316  27.758  0.00  0.00    +0.170 A 
ATOM      4  C   LIG    1      -34.485  78.232  28.282  0.00  0.00    +0.100 A 
ATOM      5  C   LIG    1      -33.719  77.479  29.196  0.00  0.00    +0.150 A 
ATOM      6  N   LIG    1      -34.077  76.196  29.256  0.00  0.00    -0.173 NA
ATOM      7  N   LIG    1      -35.089  76.093  28.363  0.00  0.00    -0.221 N 
ATOM      8  C   LIG    1      -35.800  74.953  28.023  0.00  0.00    +0.118 A 
ATOM      9  C   LIG    1      -36.773  75.012  27.106  0.00  0.00    +0.063 A 
ENDROOT
BRANCH   1  11
ATOM     10  C   LIG    1      -39.409  77.027  25.949  0.00  0.00    +0.107 C 
ATOM     11  N   LIG    1      -38.082  76.474  25.553  0.00  0.00    -0.308 N 
ATOM     12  C   LIG    1      -38.276  75.412  24.557  0.00  0.00    +0.107 C 
ATOM     13  C   LIG    1      -39.640  74.846  24.885  0.00  0.00    +0.021 C 
ATOM     14  C   LIG    1      -40.434  76.085  25.276  0.00  0.00    +0.029 C 
BRANCH  10  17
ATOM     15  C   LIG    1      -40.054  79.349  27.898  0.00  0.00    +0.066 C 
ATOM     16  C   LIG    1      -39.889  79.529  26.416  0.00  0.00    +0.043 A 
ATOM     17  C   LIG    1      -39.579  78.482  25.524  0.00  0.00    -0.003 A 
ATOM     18  C   LIG    1      -39.437  78.839  24.169  0.00  0.00    +0.047 A 
ATOM     19  C   LIG    1      -39.578  80.158  23.764  0.00  0.00    +0.142 A 
ATOM     20  F   LIG    1      -39.423  80.492  22.478  0.00  0.00    -0.204 F 
ATOM     21  C   LIG    1      -39.872  81.113  24.708  0.00  0.00    +0.149 A 
ATOM     22  N   LIG    1      -40.032  80.826  26.017  0.00  0.00    -0.257 NA
ENDBRANCH  10  17
ENDBRANCH   1  11
BRANCH   4  23
ATOM     23  C   LIG    1      -34.338  79.640  27.990  0.00  0.00    +0.249 C 
ATOM     24  N   LIG    1      -34.853  80.513  28.919  0.00  0.00    -0.306 N 
ATOM     25  H   LIG    1      -35.313  80.104  29.731  0.00  0.00    +0.149 HD
ATOM     26  O   LIG    1      -33.793  80.036  26.953  0.00  0.00    -0.270 OA
BRANCH  24  27
ATOM     27  C   LIG    1      -34.723  81.955  28.773  0.00  0.00    +0.102 C 
ATOM     28  C   LIG    1      -35.850  82.559  27.905  0.00  0.00    +0.135 C 
ATOM     29  C   LIG    1      -36.111  83.924  28.521  0.00  0.00    +0.033 C 
ATOM     30  C   LIG    1      -35.978  83.655  30.009  0.00  0.00    +0.004 C 
ATOM     31  C   LIG    1      -34.789  82.701  30.114  0.00  0.00    +0.025 C 
BRANCH  28  32
ATOM     32  O   LIG    1      -35.462  82.699  26.546  0.00  0.00    -0.390 OA
ATOM     33  H   LIG    1      -34.499  82.505  26.515  0.00  0.00    +0.210 HD
ENDBRANCH  28  32
ENDBRANCH  24  27
ENDBRANCH   4  23
TORSDOF 5
ENDMDL
MODEL 9
REMARK VINA RESULT:      -5.6     17.047     20.733
REMARK  Name = pdb/CHEMBL3676064.pdb
REMARK                            x       y       z     vdW  Elec       q    Type
REMARK                         _______ _______ _______ _____ _____    ______ ____
ROOT
ATOM      1  C   LIG    1      -40.377  70.529  23.159  0.00  0.00    +0.126 A 
ATOM      2  N   LIG    1      -39.200  69.982  23.386  0.00  0.00    -0.212 NA
ATOM      3  C   LIG    1      -38.680  69.138  22.441  0.00  0.00    +0.170 A 
ATOM      4  C   LIG    1      -37.478  68.454  22.371  0.00  0.00    +0.100 A 
ATOM      5  C   LIG    1      -37.553  67.753  21.149  0.00  0.00    +0.150 A 
ATOM      6  N   LIG    1      -38.690  67.965  20.485  0.00  0.00    -0.173 NA
ATOM      7  N   LIG    1      -39.377  68.826  21.273  0.00  0.00    -0.221 N 
ATOM      8  C   LIG    1      -40.620  69.386  21.025  0.00  0.00    +0.118 A 
ATOM      9  C   LIG    1      -41.164  70.236  21.903  0.00  0.00    +0.063 A 
ENDROOT
BRANCH   1  11
ATOM     10  C   LIG    1      -40.102  71.828  25.279  0.00  0.00    +0.107 C 
ATOM     11  N   LIG    1      -40.919  71.387  24.111  0.00  0.00    -0.308 N 
ATOM     12  C   LIG    1      -42.316  71.218  24.533  0.00  0.00    +0.107 C 
ATOM     13  C   LIG    1      -42.216  70.849  25.996  0.00  0.00    +0.021 C 
ATOM     14  C   LIG    1      -41.063  71.716  26.484  0.00  0.00    +0.029 C 
BRANCH  10  17
ATOM     15  C   LIG    1      -37.430  72.820  26.496  0.00  0.00    +0.066 C 
ATOM     16  C   LIG    1      -38.338  73.684  25.669  0.00  0.00    +0.043 A 
ATOM     17  C   LIG    1      -39.547  73.237  25.097  0.00  0.00    -0.003 A 
ATOM     18  C   LIG    1      -40.260  74.179  24.330  0.00  0.00    +0.047 A 
ATOM     19  C   LIG    1      -39.767  75.462  24.145  0.00  0.00    +0.142 A 
ATOM     20  F   LIG    1      -40.441  76.345  23.399  0.00  0.00    -0.204 F 
ATOM     21  C   LIG    1      -38.573  75.805  24.734  0.00  0.00    +0.149 A 
ATOM     22  N   LIG    1      -37.856  74.948  25.490  0.00  0.00    -0.257 NA
ENDBRANCH  10  17
ENDBRANCH   1  11
BRANCH   4  23
ATOM     23  C   LIG    1      -36.379  68.433  23.309  0.00  0.00    +0.249 C 
ATOM     24  N   LIG    1      -36.699  68.643  24.628  0.00  0.00    -0.306 N 
ATOM     25  H   LIG    1      -37.680  68.814  24.844  0.00  0.00    +0.149 HD
ATOM     26  O   LIG    1      -35.212  68.253  22.939  0.00  0.00    -0.270 OA
BRANCH  24  27
ATOM     27  C   LIG    1      -35.694  68.593  25.680  0.00  0.00    +0.102 C 
ATOM     28  C   LIG    1      -34.946  69.936  25.839  0.00  0.00    +0.135 C 
ATOM     29  C   LIG    1      -34.665  70.038  27.329  0.00  0.00    +0.033 C 
ATOM     30  C   LIG    1      -35.930  69.475  27.951  0.00  0.00    +0.004 C 
ATOM     31  C   LIG    1      -36.289  68.286  27.062  0.00  0.00    +0.025 C 
BRANCH  28  32
ATOM     32  O   LIG    1      -33.730  69.960  25.106  0.00  0.00    -0.390 OA
ATOM     33  H   LIG    1      -33.042  70.282  25.729  0.00  0.00    +0.210 HD
ENDBRANCH  28  32
ENDBRANCH  24  27
ENDBRANCH   4  23
TORSDOF 5
ENDMDL
