MODEL 1
REMARK VINA RESULT:      -6.6      0.000      0.000
REMARK  Name = pdb/CHEMBL3936753.pdb
REMARK                            x       y       z     vdW  Elec       q    Type
REMARK                         _______ _______ _______ _____ _____    ______ ____
ROOT
ATOM      1  C   LIG    1      -34.680  80.170  27.886  0.00  0.00    +0.179 A 
ATOM      2  N   LIG    1      -35.815  79.392  28.108  0.00  0.00    -0.193 N 
ATOM      3  N   LIG    1      -36.288  78.396  27.287  0.00  0.00    -0.148 NA
ATOM      4  C   LIG    1      -37.411  77.848  27.672  0.00  0.00    +0.143 A 
ATOM      5  C   LIG    1      -38.056  78.193  28.986  0.00  0.00    +0.049 A 
ATOM      6  C   LIG    1      -37.543  79.175  29.731  0.00  0.00    +0.051 A 
ATOM      7  C   LIG    1      -36.395  79.850  29.278  0.00  0.00    +0.157 A 
ATOM      8  N   LIG    1      -35.746  80.875  29.785  0.00  0.00    -0.232 NA
ATOM      9  C   LIG    1      -34.684  81.068  28.937  0.00  0.00    +0.161 A 
ENDROOT
BRANCH   4  10
ATOM     10  N   LIG    1      -38.050  76.926  26.846  0.00  0.00    -0.307 N 
ATOM     11  C   LIG    1      -37.995  77.097  25.379  0.00  0.00    +0.108 C 
ATOM     12  C   LIG    1      -37.432  75.758  24.890  0.00  0.00    +0.029 C 
ATOM     13  C   LIG    1      -38.048  74.755  25.842  0.00  0.00    +0.021 C 
ATOM     14  C   LIG    1      -38.041  75.489  27.180  0.00  0.00    +0.107 C 
BRANCH  11  15
ATOM     15  C   LIG    1      -39.345  77.456  24.786  0.00  0.00    +0.011 A 
ATOM     16  C   LIG    1      -39.901  78.713  25.068  0.00  0.00    +0.129 A 
ATOM     17  F   LIG    1      -39.237  79.572  25.855  0.00  0.00    -0.205 F 
ATOM     18  C   LIG    1      -41.137  79.106  24.558  0.00  0.00    +0.041 A 
ATOM     19  C   LIG    1      -41.861  78.224  23.759  0.00  0.00    +0.041 A 
ATOM     20  C   LIG    1      -41.338  76.966  23.488  0.00  0.00    +0.124 A 
ATOM     21  F   LIG    1      -42.036  76.113  22.730  0.00  0.00    -0.205 F 
ATOM     22  C   LIG    1      -40.097  76.576  23.992  0.00  0.00    +0.046 A 
ENDBRANCH  11  15
ENDBRANCH   4  10
BRANCH   1  24
ATOM     23  C   LIG    1      -32.836  79.081  26.996  0.00  0.00    +0.282 C 
ATOM     24  N   LIG    1      -33.826  79.873  26.872  0.00  0.00    -0.178 NA
BRANCH  23  25
ATOM     25  N   LIG    1      -32.311  78.362  28.033  0.00  0.00    -0.294 N 
ATOM     26  H   LIG    1      -31.630  78.859  28.590  0.00  0.00    +0.151 HD
BRANCH  25  28
ATOM     27  C   LIG    1      -33.448  76.295  27.455  0.00  0.00    +0.031 C 
ATOM     28  C   LIG    1      -32.737  77.069  28.585  0.00  0.00    +0.028 C 
ATOM     29  C   LIG    1      -31.518  76.258  29.041  0.00  0.00    +0.031 C 
ATOM     30  C   LIG    1      -33.738  77.192  29.746  0.00  0.00    +0.031 C 
ENDBRANCH  25  28
ENDBRANCH  23  25
BRANCH  23  31
ATOM     31  O   LIG    1      -32.164  78.945  25.849  0.00  0.00    -0.481 OA
ATOM     32  H   LIG    1      -31.511  79.664  25.852  0.00  0.00    +0.295 HD
ENDBRANCH  23  31
ENDBRANCH   1  24
TORSDOF 6
ENDMDL
MODEL 2
REMARK VINA RESULT:      -6.1      2.226      3.749
REMARK  Name = pdb/CHEMBL3936753.pdb
REMARK                            x       y       z     vdW  Elec       q    Type
REMARK                         _______ _______ _______ _____ _____    ______ ____
ROOT
ATOM      1  C   LIG    1      -34.932  79.631  28.143  0.00  0.00    +0.179 A 
ATOM      2  N   LIG    1      -35.982  78.717  28.096  0.00  0.00    -0.193 N 
ATOM      3  N   LIG    1      -36.243  77.834  27.075  0.00  0.00    -0.148 NA
ATOM      4  C   LIG    1      -37.327  77.118  27.225  0.00  0.00    +0.143 A 
ATOM      5  C   LIG    1      -38.144  77.167  28.486  0.00  0.00    +0.049 A 
ATOM      6  C   LIG    1      -37.835  78.053  29.435  0.00  0.00    +0.051 A 
ATOM      7  C   LIG    1      -36.734  78.908  29.242  0.00  0.00    +0.157 A 
ATOM      8  N   LIG    1      -36.271  79.891  29.981  0.00  0.00    -0.232 NA
ATOM      9  C   LIG    1      -35.156  80.331  29.314  0.00  0.00    +0.161 A 
ENDROOT
BRANCH   4  10
ATOM     10  N   LIG    1      -37.759  76.291  26.190  0.00  0.00    -0.307 N 
ATOM     11  C   LIG    1      -38.631  75.136  26.492  0.00  0.00    +0.108 C 
ATOM     12  C   LIG    1      -39.842  75.363  25.580  0.00  0.00    +0.029 C 
ATOM     13  C   LIG    1      -39.228  75.962  24.332  0.00  0.00    +0.021 C 
ATOM     14  C   LIG    1      -38.124  76.861  24.879  0.00  0.00    +0.107 C 
BRANCH  11  15
ATOM     15  C   LIG    1      -37.930  73.808  26.274  0.00  0.00    +0.011 A 
ATOM     16  C   LIG    1      -37.075  73.316  27.272  0.00  0.00    +0.129 A 
ATOM     17  F   LIG    1      -36.890  74.023  28.396  0.00  0.00    -0.205 F 
ATOM     18  C   LIG    1      -36.400  72.105  27.136  0.00  0.00    +0.041 A 
ATOM     19  C   LIG    1      -36.553  71.361  25.969  0.00  0.00    +0.041 A 
ATOM     20  C   LIG    1      -37.376  71.844  24.958  0.00  0.00    +0.124 A 
ATOM     21  F   LIG    1      -37.517  71.136  23.831  0.00  0.00    -0.205 F 
ATOM     22  C   LIG    1      -38.059  73.052  25.098  0.00  0.00    +0.046 A 
ENDBRANCH  11  15
ENDBRANCH   4  10
BRANCH   1  24
ATOM     23  C   LIG    1      -32.858  78.953  27.358  0.00  0.00    +0.282 C 
ATOM     24  N   LIG    1      -33.945  79.599  27.209  0.00  0.00    -0.178 NA
BRANCH  23  25
ATOM     25  N   LIG    1      -32.328  78.189  28.360  0.00  0.00    -0.294 N 
ATOM     26  H   LIG    1      -31.725  78.689  28.998  0.00  0.00    +0.151 HD
BRANCH  25  28
ATOM     27  C   LIG    1      -31.354  76.117  29.168  0.00  0.00    +0.031 C 
ATOM     28  C   LIG    1      -32.669  76.822  28.773  0.00  0.00    +0.028 C 
ATOM     29  C   LIG    1      -33.593  76.850  29.997  0.00  0.00    +0.031 C 
ATOM     30  C   LIG    1      -33.314  75.981  27.659  0.00  0.00    +0.031 C 
ENDBRANCH  25  28
ENDBRANCH  23  25
BRANCH  23  31
ATOM     31  O   LIG    1      -32.063  79.070  26.290  0.00  0.00    -0.481 OA
ATOM     32  H   LIG    1      -32.609  78.792  25.536  0.00  0.00    +0.295 HD
ENDBRANCH  23  31
ENDBRANCH   1  24
TORSDOF 6
ENDMDL
MODEL 3
REMARK VINA RESULT:      -6.0      1.646      3.649
REMARK  Name = pdb/CHEMBL3936753.pdb
REMARK                            x       y       z     vdW  Elec       q    Type
REMARK                         _______ _______ _______ _____ _____    ______ ____
ROOT
ATOM      1  C   LIG    1      -33.389  78.552  27.539  0.00  0.00    +0.179 A 
ATOM      2  N   LIG    1      -34.118  77.365  27.571  0.00  0.00    -0.193 N 
ATOM      3  N   LIG    1      -35.460  77.230  27.305  0.00  0.00    -0.148 NA
ATOM      4  C   LIG    1      -35.938  76.024  27.465  0.00  0.00    +0.143 A 
ATOM      5  C   LIG    1      -35.051  74.852  27.782  0.00  0.00    +0.049 A 
ATOM      6  C   LIG    1      -33.756  75.057  28.032  0.00  0.00    +0.051 A 
ATOM      7  C   LIG    1      -33.246  76.367  27.972  0.00  0.00    +0.157 A 
ATOM      8  N   LIG    1      -32.046  76.834  28.235  0.00  0.00    -0.232 NA
ATOM      9  C   LIG    1      -32.126  78.176  27.959  0.00  0.00    +0.161 A 
ENDROOT
BRANCH   4  10
ATOM     10  N   LIG    1      -37.310  75.803  27.355  0.00  0.00    -0.307 N 
ATOM     11  C   LIG    1      -37.857  75.202  26.120  0.00  0.00    +0.108 C 
ATOM     12  C   LIG    1      -38.636  73.987  26.635  0.00  0.00    +0.029 C 
ATOM     13  C   LIG    1      -39.207  74.475  27.950  0.00  0.00    +0.021 C 
ATOM     14  C   LIG    1      -38.090  75.344  28.519  0.00  0.00    +0.107 C 
BRANCH  11  15
ATOM     15  C   LIG    1      -38.695  76.183  25.320  0.00  0.00    +0.011 A 
ATOM     16  C   LIG    1      -39.525  75.695  24.298  0.00  0.00    +0.129 A 
ATOM     17  F   LIG    1      -39.562  74.380  24.044  0.00  0.00    -0.205 F 
ATOM     18  C   LIG    1      -40.319  76.540  23.525  0.00  0.00    +0.041 A 
ATOM     19  C   LIG    1      -40.280  77.914  23.750  0.00  0.00    +0.041 A 
ATOM     20  C   LIG    1      -39.446  78.418  24.740  0.00  0.00    +0.124 A 
ATOM     21  F   LIG    1      -39.399  79.739  24.951  0.00  0.00    -0.205 F 
ATOM     22  C   LIG    1      -38.658  77.572  25.521  0.00  0.00    +0.046 A 
ENDBRANCH  11  15
ENDBRANCH   4  10
BRANCH   1  24
ATOM     23  C   LIG    1      -34.398  80.624  27.801  0.00  0.00    +0.282 C 
ATOM     24  N   LIG    1      -33.947  79.693  27.057  0.00  0.00    -0.178 NA
BRANCH  23  25
ATOM     25  N   LIG    1      -34.507  80.800  29.152  0.00  0.00    -0.294 N 
ATOM     26  H   LIG    1      -33.905  81.514  29.535  0.00  0.00    +0.151 HD
BRANCH  25  28
ATOM     27  C   LIG    1      -34.888  79.037  30.778  0.00  0.00    +0.031 C 
ATOM     28  C   LIG    1      -35.509  80.269  30.086  0.00  0.00    +0.028 C 
ATOM     29  C   LIG    1      -35.844  81.314  31.157  0.00  0.00    +0.031 C 
ATOM     30  C   LIG    1      -36.804  79.797  29.404  0.00  0.00    +0.031 C 
ENDBRANCH  25  28
ENDBRANCH  23  25
BRANCH  23  31
ATOM     31  O   LIG    1      -34.879  81.642  27.082  0.00  0.00    -0.481 OA
ATOM     32  H   LIG    1      -34.235  81.773  26.366  0.00  0.00    +0.295 HD
ENDBRANCH  23  31
ENDBRANCH   1  24
TORSDOF 6
ENDMDL
MODEL 4
REMARK VINA RESULT:      -5.9      3.856      5.384
REMARK  Name = pdb/CHEMBL3936753.pdb
REMARK                            x       y       z     vdW  Elec       q    Type
REMARK                         _______ _______ _______ _____ _____    ______ ____
ROOT
ATOM      1  C   LIG    1      -34.411  80.487  27.998  0.00  0.00    +0.179 A 
ATOM      2  N   LIG    1      -35.389  81.464  27.823  0.00  0.00    -0.193 N 
ATOM      3  N   LIG    1      -35.633  82.168  26.667  0.00  0.00    -0.148 NA
ATOM      4  C   LIG    1      -36.561  83.083  26.762  0.00  0.00    +0.143 A 
ATOM      5  C   LIG    1      -37.388  83.252  28.006  0.00  0.00    +0.049 A 
ATOM      6  C   LIG    1      -37.092  82.537  29.094  0.00  0.00    +0.051 A 
ATOM      7  C   LIG    1      -36.023  81.623  29.042  0.00  0.00    +0.157 A 
ATOM      8  N   LIG    1      -35.499  80.861  29.977  0.00  0.00    -0.232 NA
ATOM      9  C   LIG    1      -34.514  80.153  29.336  0.00  0.00    +0.161 A 
ENDROOT
BRANCH   4  10
ATOM     10  N   LIG    1      -36.795  83.946  25.693  0.00  0.00    -0.307 N 
ATOM     11  C   LIG    1      -38.152  84.491  25.476  0.00  0.00    +0.108 C 
ATOM     12  C   LIG    1      -37.921  86.006  25.451  0.00  0.00    +0.029 C 
ATOM     13  C   LIG    1      -36.576  86.141  24.768  0.00  0.00    +0.021 C 
ATOM     14  C   LIG    1      -35.787  84.952  25.308  0.00  0.00    +0.107 C 
BRANCH  11  15
ATOM     15  C   LIG    1      -38.803  83.942  24.220  0.00  0.00    +0.011 A 
ATOM     16  C   LIG    1      -39.329  82.641  24.238  0.00  0.00    +0.129 A 
ATOM     17  F   LIG    1      -39.246  81.906  25.356  0.00  0.00    -0.205 F 
ATOM     18  C   LIG    1      -39.939  82.075  23.120  0.00  0.00    +0.041 A 
ATOM     19  C   LIG    1      -40.016  82.806  21.937  0.00  0.00    +0.041 A 
ATOM     20  C   LIG    1      -39.479  84.086  21.892  0.00  0.00    +0.124 A 
ATOM     21  F   LIG    1      -39.542  84.786  20.753  0.00  0.00    -0.205 F 
ATOM     22  C   LIG    1      -38.876  84.657  23.013  0.00  0.00    +0.046 A 
ENDBRANCH  11  15
ENDBRANCH   4  10
BRANCH   1  24
ATOM     23  C   LIG    1      -32.825  79.101  27.028  0.00  0.00    +0.282 C 
ATOM     24  N   LIG    1      -33.702  80.021  26.937  0.00  0.00    -0.178 NA
BRANCH  23  25
ATOM     25  N   LIG    1      -32.314  78.364  28.059  0.00  0.00    -0.294 N 
ATOM     26  H   LIG    1      -31.721  78.880  28.693  0.00  0.00    +0.151 HD
BRANCH  25  28
ATOM     27  C   LIG    1      -33.602  77.150  29.723  0.00  0.00    +0.031 C 
ATOM     28  C   LIG    1      -32.665  77.009  28.504  0.00  0.00    +0.028 C 
ATOM     29  C   LIG    1      -33.417  76.263  27.395  0.00  0.00    +0.031 C 
ATOM     30  C   LIG    1      -31.457  76.174  28.959  0.00  0.00    +0.031 C 
ENDBRANCH  25  28
ENDBRANCH  23  25
BRANCH  23  31
ATOM     31  O   LIG    1      -32.285  78.814  25.839  0.00  0.00    -0.481 OA
ATOM     32  H   LIG    1      -33.038  78.597  25.265  0.00  0.00    +0.295 HD
ENDBRANCH  23  31
ENDBRANCH   1  24
TORSDOF 6
ENDMDL
MODEL 5
REMARK VINA RESULT:      -5.8     12.491     14.617
REMARK  Name = pdb/CHEMBL3936753.pdb
REMARK                            x       y       z     vdW  Elec       q    Type
REMARK                         _______ _______ _______ _____ _____    ______ ____
ROOT
ATOM      1  C   LIG    1      -31.382  70.611  15.757  0.00  0.00    +0.179 A 
ATOM      2  N   LIG    1      -31.834  69.301  15.903  0.00  0.00    -0.193 N 
ATOM      3  N   LIG    1      -32.490  68.788  16.997  0.00  0.00    -0.148 NA
ATOM      4  C   LIG    1      -32.759  67.510  16.933  0.00  0.00    +0.143 A 
ATOM      5  C   LIG    1      -32.489  66.702  15.694  0.00  0.00    +0.049 A 
ATOM      6  C   LIG    1      -31.844  67.265  14.670  0.00  0.00    +0.051 A 
ATOM      7  C   LIG    1      -31.450  68.612  14.766  0.00  0.00    +0.157 A 
ATOM      8  N   LIG    1      -30.759  69.366  13.939  0.00  0.00    -0.232 NA
ATOM      9  C   LIG    1      -30.724  70.599  14.540  0.00  0.00    +0.161 A 
ENDROOT
BRANCH   4  10
ATOM     10  N   LIG    1      -33.298  66.860  18.041  0.00  0.00    -0.307 N 
ATOM     11  C   LIG    1      -34.295  65.786  17.845  0.00  0.00    +0.108 C 
ATOM     12  C   LIG    1      -33.685  64.599  18.600  0.00  0.00    +0.029 C 
ATOM     13  C   LIG    1      -33.015  65.254  19.790  0.00  0.00    +0.021 C 
ATOM     14  C   LIG    1      -32.455  66.549  19.211  0.00  0.00    +0.107 C 
BRANCH  11  15
ATOM     15  C   LIG    1      -35.678  66.183  18.327  0.00  0.00    +0.011 A 
ATOM     16  C   LIG    1      -36.730  65.261  18.213  0.00  0.00    +0.129 A 
ATOM     17  F   LIG    1      -36.500  64.052  17.682  0.00  0.00    -0.205 F 
ATOM     18  C   LIG    1      -38.024  65.562  18.633  0.00  0.00    +0.041 A 
ATOM     19  C   LIG    1      -38.298  66.819  19.165  0.00  0.00    +0.041 A 
ATOM     20  C   LIG    1      -37.275  67.754  19.262  0.00  0.00    +0.124 A 
ATOM     21  F   LIG    1      -37.538  68.967  19.763  0.00  0.00    -0.205 F 
ATOM     22  C   LIG    1      -35.978  67.451  18.850  0.00  0.00    +0.046 A 
ENDBRANCH  11  15
ENDBRANCH   4  10
BRANCH   1  24
ATOM     23  C   LIG    1      -31.259  71.600  17.851  0.00  0.00    +0.282 C 
ATOM     24  N   LIG    1      -31.719  71.565  16.663  0.00  0.00    -0.178 NA
BRANCH  23  25
ATOM     25  N   LIG    1      -30.410  70.808  18.571  0.00  0.00    -0.294 N 
ATOM     26  H   LIG    1      -30.864  70.187  19.226  0.00  0.00    +0.151 HD
BRANCH  25  28
ATOM     27  C   LIG    1      -28.325  70.547  19.790  0.00  0.00    +0.031 C 
ATOM     28  C   LIG    1      -28.972  70.570  18.388  0.00  0.00    +0.028 C 
ATOM     29  C   LIG    1      -28.739  69.209  17.721  0.00  0.00    +0.031 C 
ATOM     30  C   LIG    1      -28.260  71.669  17.581  0.00  0.00    +0.031 C 
ENDBRANCH  25  28
ENDBRANCH  23  25
BRANCH  23  31
ATOM     31  O   LIG    1      -31.735  72.646  18.534  0.00  0.00    -0.481 OA
ATOM     32  H   LIG    1      -32.195  73.191  17.875  0.00  0.00    +0.295 HD
ENDBRANCH  23  31
ENDBRANCH   1  24
TORSDOF 6
ENDMDL
MODEL 6
REMARK VINA RESULT:      -5.8      2.060      3.323
REMARK  Name = pdb/CHEMBL3936753.pdb
REMARK                            x       y       z     vdW  Elec       q    Type
REMARK                         _______ _______ _______ _____ _____    ______ ____
ROOT
ATOM      1  C   LIG    1      -35.734  79.216  28.332  0.00  0.00    +0.179 A 
ATOM      2  N   LIG    1      -36.821  78.409  28.004  0.00  0.00    -0.193 N 
ATOM      3  N   LIG    1      -37.111  77.907  26.757  0.00  0.00    -0.148 NA
ATOM      4  C   LIG    1      -38.224  77.226  26.679  0.00  0.00    +0.143 A 
ATOM      5  C   LIG    1      -39.048  76.906  27.896  0.00  0.00    +0.049 A 
ATOM      6  C   LIG    1      -38.709  77.431  29.075  0.00  0.00    +0.051 A 
ATOM      7  C   LIG    1      -37.572  78.257  29.156  0.00  0.00    +0.157 A 
ATOM      8  N   LIG    1      -37.074  78.934  30.167  0.00  0.00    -0.232 NA
ATOM      9  C   LIG    1      -35.936  79.517  29.666  0.00  0.00    +0.161 A 
ENDROOT
BRANCH   4  10
ATOM     10  N   LIG    1      -38.683  76.789  25.438  0.00  0.00    -0.307 N 
ATOM     11  C   LIG    1      -39.936  76.010  25.355  0.00  0.00    +0.108 C 
ATOM     12  C   LIG    1      -40.780  76.808  24.354  0.00  0.00    +0.029 C 
ATOM     13  C   LIG    1      -39.754  77.321  23.366  0.00  0.00    +0.021 C 
ATOM     14  C   LIG    1      -38.552  77.649  24.246  0.00  0.00    +0.107 C 
BRANCH  11  15
ATOM     15  C   LIG    1      -39.696  74.567  24.951  0.00  0.00    +0.011 A 
ATOM     16  C   LIG    1      -40.794  73.763  24.609  0.00  0.00    +0.129 A 
ATOM     17  F   LIG    1      -42.032  74.277  24.646  0.00  0.00    -0.205 F 
ATOM     18  C   LIG    1      -40.644  72.430  24.231  0.00  0.00    +0.041 A 
ATOM     19  C   LIG    1      -39.373  71.861  24.209  0.00  0.00    +0.041 A 
ATOM     20  C   LIG    1      -38.277  72.634  24.568  0.00  0.00    +0.124 A 
ATOM     21  F   LIG    1      -37.055  72.088  24.558  0.00  0.00    -0.205 F 
ATOM     22  C   LIG    1      -38.424  73.971  24.938  0.00  0.00    +0.046 A 
ENDBRANCH  11  15
ENDBRANCH   4  10
BRANCH   1  24
ATOM     23  C   LIG    1      -33.555  79.003  27.567  0.00  0.00    +0.282 C 
ATOM     24  N   LIG    1      -34.743  79.441  27.430  0.00  0.00    -0.178 NA
BRANCH  23  25
ATOM     25  N   LIG    1      -32.907  78.281  28.530  0.00  0.00    -0.294 N 
ATOM     26  H   LIG    1      -32.452  78.837  29.241  0.00  0.00    +0.151 HD
BRANCH  25  28
ATOM     27  C   LIG    1      -33.509  76.144  27.547  0.00  0.00    +0.031 C 
ATOM     28  C   LIG    1      -32.953  76.840  28.807  0.00  0.00    +0.028 C 
ATOM     29  C   LIG    1      -31.541  76.305  29.077  0.00  0.00    +0.031 C 
ATOM     30  C   LIG    1      -33.878  76.463  29.976  0.00  0.00    +0.031 C 
ENDBRANCH  25  28
ENDBRANCH  23  25
BRANCH  23  31
ATOM     31  O   LIG    1      -32.778  79.348  26.536  0.00  0.00    -0.481 OA
ATOM     32  H   LIG    1      -33.388  79.699  25.866  0.00  0.00    +0.295 HD
ENDBRANCH  23  31
ENDBRANCH   1  24
TORSDOF 6
ENDMDL
MODEL 7
REMARK VINA RESULT:      -5.8      9.282     14.806
REMARK  Name = pdb/CHEMBL3936753.pdb
REMARK                            x       y       z     vdW  Elec       q    Type
REMARK                         _______ _______ _______ _____ _____    ______ ____
ROOT
ATOM      1  C   LIG    1      -27.821  74.829  32.101  0.00  0.00    +0.179 A 
ATOM      2  N   LIG    1      -26.473  74.670  31.788  0.00  0.00    -0.193 N 
ATOM      3  N   LIG    1      -25.537  75.674  31.698  0.00  0.00    -0.148 NA
ATOM      4  C   LIG    1      -24.345  75.288  31.324  0.00  0.00    +0.143 A 
ATOM      5  C   LIG    1      -23.999  73.837  31.140  0.00  0.00    +0.049 A 
ATOM      6  C   LIG    1      -24.960  72.915  31.238  0.00  0.00    +0.051 A 
ATOM      7  C   LIG    1      -26.274  73.324  31.534  0.00  0.00    +0.157 A 
ATOM      8  N   LIG    1      -27.389  72.633  31.620  0.00  0.00    -0.232 NA
ATOM      9  C   LIG    1      -28.341  73.553  31.979  0.00  0.00    +0.161 A 
ENDROOT
BRANCH   4  10
ATOM     10  N   LIG    1      -23.359  76.240  31.069  0.00  0.00    -0.307 N 
ATOM     11  C   LIG    1      -22.088  76.194  31.822  0.00  0.00    +0.108 C 
ATOM     12  C   LIG    1      -21.027  76.144  30.717  0.00  0.00    +0.029 C 
ATOM     13  C   LIG    1      -21.615  77.022  29.633  0.00  0.00    +0.021 C 
ATOM     14  C   LIG    1      -23.106  76.706  29.693  0.00  0.00    +0.107 C 
BRANCH  11  15
ATOM     15  C   LIG    1      -21.936  77.365  32.775  0.00  0.00    +0.011 A 
ATOM     16  C   LIG    1      -20.695  77.584  33.394  0.00  0.00    +0.129 A 
ATOM     17  F   LIG    1      -19.670  76.759  33.138  0.00  0.00    -0.205 F 
ATOM     18  C   LIG    1      -20.488  78.639  34.281  0.00  0.00    +0.041 A 
ATOM     19  C   LIG    1      -21.542  79.496  34.586  0.00  0.00    +0.041 A 
ATOM     20  C   LIG    1      -22.784  79.281  34.002  0.00  0.00    +0.124 A 
ATOM     21  F   LIG    1      -23.802  80.097  34.302  0.00  0.00    -0.205 F 
ATOM     22  C   LIG    1      -22.990  78.230  33.108  0.00  0.00    +0.046 A 
ENDBRANCH  11  15
ENDBRANCH   4  10
BRANCH   1  24
ATOM     23  C   LIG    1      -29.139  76.722  31.866  0.00  0.00    +0.282 C 
ATOM     24  N   LIG    1      -28.295  76.030  32.523  0.00  0.00    -0.178 NA
BRANCH  23  25
ATOM     25  N   LIG    1      -29.771  76.571  30.664  0.00  0.00    -0.294 N 
ATOM     26  H   LIG    1      -29.202  76.785  29.857  0.00  0.00    +0.151 HD
BRANCH  25  28
ATOM     27  C   LIG    1      -31.932  76.032  31.633  0.00  0.00    +0.031 C 
ATOM     28  C   LIG    1      -31.065  75.946  30.359  0.00  0.00    +0.028 C 
ATOM     29  C   LIG    1      -31.773  76.710  29.234  0.00  0.00    +0.031 C 
ATOM     30  C   LIG    1      -30.961  74.458  29.985  0.00  0.00    +0.031 C 
ENDBRANCH  25  28
ENDBRANCH  23  25
BRANCH  23  31
ATOM     31  O   LIG    1      -29.455  77.853  32.505  0.00  0.00    -0.481 OA
ATOM     32  H   LIG    1      -29.823  77.567  33.357  0.00  0.00    +0.295 HD
ENDBRANCH  23  31
ENDBRANCH   1  24
TORSDOF 6
ENDMDL
MODEL 8
REMARK VINA RESULT:      -5.7     13.350     17.634
REMARK  Name = pdb/CHEMBL3936753.pdb
REMARK                            x       y       z     vdW  Elec       q    Type
REMARK                         _______ _______ _______ _____ _____    ______ ____
ROOT
ATOM      1  C   LIG    1      -24.377  77.677  31.627  0.00  0.00    +0.179 A 
ATOM      2  N   LIG    1      -24.299  78.167  32.929  0.00  0.00    -0.193 N 
ATOM      3  N   LIG    1      -23.202  78.760  33.508  0.00  0.00    -0.148 NA
ATOM      4  C   LIG    1      -23.346  79.080  34.767  0.00  0.00    +0.143 A 
ATOM      5  C   LIG    1      -24.661  78.933  35.481  0.00  0.00    +0.049 A 
ATOM      6  C   LIG    1      -25.684  78.344  34.857  0.00  0.00    +0.051 A 
ATOM      7  C   LIG    1      -25.513  77.893  33.535  0.00  0.00    +0.157 A 
ATOM      8  N   LIG    1      -26.328  77.237  32.740  0.00  0.00    -0.232 NA
ATOM      9  C   LIG    1      -25.637  77.112  31.561  0.00  0.00    +0.161 A 
ENDROOT
BRANCH   4  10
ATOM     10  N   LIG    1      -22.255  79.561  35.488  0.00  0.00    -0.307 N 
ATOM     11  C   LIG    1      -21.173  80.282  34.783  0.00  0.00    +0.108 C 
ATOM     12  C   LIG    1      -21.087  81.612  35.541  0.00  0.00    +0.029 C 
ATOM     13  C   LIG    1      -21.370  81.214  36.974  0.00  0.00    +0.021 C 
ATOM     14  C   LIG    1      -22.440  80.135  36.834  0.00  0.00    +0.107 C 
BRANCH  11  15
ATOM     15  C   LIG    1      -19.874  79.497  34.757  0.00  0.00    +0.011 A 
ATOM     16  C   LIG    1      -19.471  78.887  33.559  0.00  0.00    +0.129 A 
ATOM     17  F   LIG    1      -20.235  79.004  32.464  0.00  0.00    -0.205 F 
ATOM     18  C   LIG    1      -18.291  78.151  33.466  0.00  0.00    +0.041 A 
ATOM     19  C   LIG    1      -17.491  77.991  34.595  0.00  0.00    +0.041 A 
ATOM     20  C   LIG    1      -17.887  78.567  35.796  0.00  0.00    +0.124 A 
ATOM     21  F   LIG    1      -17.125  78.406  36.885  0.00  0.00    -0.205 F 
ATOM     22  C   LIG    1      -19.063  79.311  35.888  0.00  0.00    +0.046 A 
ENDBRANCH  11  15
ENDBRANCH   4  10
BRANCH   1  24
ATOM     23  C   LIG    1      -22.523  77.031  30.392  0.00  0.00    +0.282 C 
ATOM     24  N   LIG    1      -23.375  77.912  30.739  0.00  0.00    -0.178 NA
BRANCH  23  25
ATOM     25  N   LIG    1      -22.298  75.729  30.740  0.00  0.00    -0.294 N 
ATOM     26  H   LIG    1      -22.692  75.048  30.107  0.00  0.00    +0.151 HD
BRANCH  25  28
ATOM     27  C   LIG    1      -21.820  73.711  32.005  0.00  0.00    +0.031 C 
ATOM     28  C   LIG    1      -21.397  75.176  31.760  0.00  0.00    +0.028 C 
ATOM     29  C   LIG    1      -19.949  75.188  31.255  0.00  0.00    +0.031 C 
ATOM     30  C   LIG    1      -21.476  75.900  33.114  0.00  0.00    +0.031 C 
ENDBRANCH  25  28
ENDBRANCH  23  25
BRANCH  23  31
ATOM     31  O   LIG    1      -21.654  77.510  29.496  0.00  0.00    -0.481 OA
ATOM     32  H   LIG    1      -20.840  77.680  29.999  0.00  0.00    +0.295 HD
ENDBRANCH  23  31
ENDBRANCH   1  24
TORSDOF 6
ENDMDL
MODEL 9
REMARK VINA RESULT:      -5.7     13.196     17.533
REMARK  Name = pdb/CHEMBL3936753.pdb
REMARK                            x       y       z     vdW  Elec       q    Type
REMARK                         _______ _______ _______ _____ _____    ______ ____
ROOT
ATOM      1  C   LIG    1      -23.317  77.550  30.751  0.00  0.00    +0.179 A 
ATOM      2  N   LIG    1      -21.999  77.574  31.202  0.00  0.00    -0.193 N 
ATOM      3  N   LIG    1      -21.567  78.049  32.418  0.00  0.00    -0.148 NA
ATOM      4  C   LIG    1      -20.272  78.030  32.591  0.00  0.00    +0.143 A 
ATOM      5  C   LIG    1      -19.343  77.407  31.586  0.00  0.00    +0.049 A 
ATOM      6  C   LIG    1      -19.832  76.970  30.423  0.00  0.00    +0.051 A 
ATOM      7  C   LIG    1      -21.212  77.083  30.175  0.00  0.00    +0.157 A 
ATOM      8  N   LIG    1      -21.918  76.792  29.105  0.00  0.00    -0.232 NA
ATOM      9  C   LIG    1      -23.215  77.068  29.459  0.00  0.00    +0.161 A 
ENDROOT
BRANCH   4  10
ATOM     10  N   LIG    1      -19.717  78.612  33.730  0.00  0.00    -0.307 N 
ATOM     11  C   LIG    1      -20.423  78.504  35.024  0.00  0.00    +0.108 C 
ATOM     12  C   LIG    1      -19.367  77.888  35.949  0.00  0.00    +0.029 C 
ATOM     13  C   LIG    1      -18.076  78.516  35.466  0.00  0.00    +0.021 C 
ATOM     14  C   LIG    1      -18.260  78.580  33.954  0.00  0.00    +0.107 C 
BRANCH  11  15
ATOM     15  C   LIG    1      -20.965  79.838  35.503  0.00  0.00    +0.011 A 
ATOM     16  C   LIG    1      -22.269  80.213  35.142  0.00  0.00    +0.129 A 
ATOM     17  F   LIG    1      -23.010  79.393  34.384  0.00  0.00    -0.205 F 
ATOM     18  C   LIG    1      -22.827  81.424  35.546  0.00  0.00    +0.041 A 
ATOM     19  C   LIG    1      -22.071  82.306  36.313  0.00  0.00    +0.041 A 
ATOM     20  C   LIG    1      -20.770  81.964  36.659  0.00  0.00    +0.124 A 
ATOM     21  F   LIG    1      -20.037  82.815  37.387  0.00  0.00    -0.205 F 
ATOM     22  C   LIG    1      -20.213  80.748  36.263  0.00  0.00    +0.046 A 
ENDBRANCH  11  15
ENDBRANCH   4  10
BRANCH   1  24
ATOM     23  C   LIG    1      -25.317  77.072  31.825  0.00  0.00    +0.282 C 
ATOM     24  N   LIG    1      -24.341  77.857  31.590  0.00  0.00    -0.178 NA
BRANCH  23  25
ATOM     25  N   LIG    1      -25.676  75.832  31.378  0.00  0.00    -0.294 N 
ATOM     26  H   LIG    1      -26.223  75.831  30.528  0.00  0.00    +0.151 HD
BRANCH  25  28
ATOM     27  C   LIG    1      -24.673  74.661  33.254  0.00  0.00    +0.031 C 
ATOM     28  C   LIG    1      -25.213  74.509  31.816  0.00  0.00    +0.028 C 
ATOM     29  C   LIG    1      -26.381  73.516  31.836  0.00  0.00    +0.031 C 
ATOM     30  C   LIG    1      -24.067  73.940  30.963  0.00  0.00    +0.031 C 
ENDBRANCH  25  28
ENDBRANCH  23  25
BRANCH  23  31
ATOM     31  O   LIG    1      -26.179  77.604  32.697  0.00  0.00    -0.481 OA
ATOM     32  H   LIG    1      -25.670  78.277  33.178  0.00  0.00    +0.295 HD
ENDBRANCH  23  31
ENDBRANCH   1  24
TORSDOF 6
ENDMDL
