MODEL 1
REMARK VINA RESULT:      -6.9      0.000      0.000
REMARK  Name = pdb/CHEMBL3937196.pdb
REMARK                            x       y       z     vdW  Elec       q    Type
REMARK                         _______ _______ _______ _____ _____    ______ ____
ROOT
ATOM      1  C   LIG    1      -30.935  75.453  30.265  0.00  0.00    +0.149 A 
ATOM      2  N   LIG    1      -31.222  76.692  29.839  0.00  0.00    -0.160 NA
ATOM      3  N   LIG    1      -32.368  76.573  29.121  0.00  0.00    -0.218 N 
ATOM      4  C   LIG    1      -32.777  75.239  29.024  0.00  0.00    +0.129 A 
ATOM      5  C   LIG    1      -31.891  74.526  29.792  0.00  0.00    +0.078 A 
ENDROOT
BRANCH   3   6
ATOM      6  C   LIG    1      -32.960  77.731  28.542  0.00  0.00    +0.067 A 
ATOM      7  C   LIG    1      -32.417  78.331  27.400  0.00  0.00    +0.028 A 
ATOM      8  C   LIG    1      -32.963  79.523  26.913  0.00  0.00    +0.002 A 
ATOM      9  C   LIG    1      -34.052  80.114  27.554  0.00  0.00    +0.000 A 
ATOM     10  C   LIG    1      -34.630  79.490  28.657  0.00  0.00    +0.002 A 
ATOM     11  C   LIG    1      -34.102  78.290  29.140  0.00  0.00    +0.028 A 
ENDBRANCH   3   6
BRANCH   4  12
ATOM     12  N   LIG    1      -33.768  74.683  28.209  0.00  0.00    -0.266 N 
ATOM     13  H   LIG    1      -33.475  74.296  27.321  0.00  0.00    +0.157 HD
ATOM     14  C   LIG    1      -35.142  74.536  28.633  0.00  0.00    +0.251 C 
ATOM     15  O   LIG    1      -35.535  75.055  29.673  0.00  0.00    -0.270 OA
BRANCH  14  16
ATOM     16  C   LIG    1      -36.103  73.860  27.734  0.00  0.00    +0.056 A 
ATOM     17  C   LIG    1      -36.106  72.491  27.511  0.00  0.00    +0.054 A 
ATOM     18 CL   LIG    1      -35.098  71.386  28.374  0.00  0.00    -0.083 Cl
ATOM     19  C   LIG    1      -36.982  71.951  26.570  0.00  0.00    +0.041 A 
ATOM     20  C   LIG    1      -37.860  72.769  25.841  0.00  0.00    +0.052 A 
ATOM     21 CL   LIG    1      -38.754  71.953  24.600  0.00  0.00    -0.083 Cl
ATOM     22  C   LIG    1      -37.944  74.155  26.088  0.00  0.00    +0.022 A 
ATOM     23  C   LIG    1      -37.055  74.665  27.069  0.00  0.00    +0.026 A 
BRANCH  22  24
ATOM     24  C   LIG    1      -38.891  75.071  25.390  0.00  0.00    +0.107 A 
ATOM     25  C   LIG    1      -38.480  76.111  24.549  0.00  0.00    +0.149 A 
ATOM     26  F   LIG    1      -37.183  76.336  24.295  0.00  0.00    -0.203 F 
ATOM     27  C   LIG    1      -39.422  76.943  23.950  0.00  0.00    +0.042 A 
ATOM     28  C   LIG    1      -40.771  76.714  24.180  0.00  0.00    +0.023 A 
ATOM     29  C   LIG    1      -41.116  75.669  25.019  0.00  0.00    +0.111 A 
ATOM     30  N   LIG    1      -40.211  74.870  25.637  0.00  0.00    -0.252 NA
ENDBRANCH  22  24
ENDBRANCH  14  16
ENDBRANCH   4  12
BRANCH   1  31
ATOM     31  C   LIG    1      -29.775  75.132  31.092  0.00  0.00    +0.236 C 
ATOM     32  N   LIG    1      -28.895  76.039  31.326  0.00  0.00    -0.241 NA
BRANCH  31  33
ATOM     33  O   LIG    1      -29.724  73.859  31.531  0.00  0.00    -0.491 OA
ATOM     34  H   LIG    1      -29.256  73.304  30.884  0.00  0.00    +0.294 HD
ENDBRANCH  31  33
BRANCH  32  35
ATOM     35  C   LIG    1      -27.715  75.735  32.154  0.00  0.00    +0.221 C 
BRANCH  35  36
ATOM     36  C   LIG    1      -26.382  76.186  31.578  0.00  0.00    +0.150 A 
ATOM     37  N   LIG    1      -25.443  75.258  31.326  0.00  0.00    -0.238 NA
ATOM     38  C   LIG    1      -24.284  75.710  30.806  0.00  0.00    +0.114 A 
ATOM     39  C   LIG    1      -24.031  77.033  30.532  0.00  0.00    +0.039 A 
ATOM     40  C   LIG    1      -25.059  77.900  30.800  0.00  0.00    +0.114 A 
ATOM     41  N   LIG    1      -26.248  77.502  31.287  0.00  0.00    -0.238 NA
ENDBRANCH  35  36
ENDBRANCH  32  35
ENDBRANCH   1  31
TORSDOF 8
ENDMDL
MODEL 2
REMARK VINA RESULT:      -6.7      5.111     11.320
REMARK  Name = pdb/CHEMBL3937196.pdb
REMARK                            x       y       z     vdW  Elec       q    Type
REMARK                         _______ _______ _______ _____ _____    ______ ____
ROOT
ATOM      1  C   LIG    1      -37.226  70.071  24.749  0.00  0.00    +0.149 A 
ATOM      2  N   LIG    1      -36.843  69.028  25.501  0.00  0.00    -0.160 NA
ATOM      3  N   LIG    1      -35.942  69.528  26.384  0.00  0.00    -0.218 N 
ATOM      4  C   LIG    1      -35.691  70.884  26.149  0.00  0.00    +0.129 A 
ATOM      5  C   LIG    1      -36.544  71.246  25.136  0.00  0.00    +0.078 A 
ENDROOT
BRANCH   3   6
ATOM      6  C   LIG    1      -35.353  68.668  27.354  0.00  0.00    +0.067 A 
ATOM      7  C   LIG    1      -35.563  68.867  28.724  0.00  0.00    +0.028 A 
ATOM      8  C   LIG    1      -34.892  68.067  29.655  0.00  0.00    +0.002 A 
ATOM      9  C   LIG    1      -34.021  67.065  29.226  0.00  0.00    +0.000 A 
ATOM     10  C   LIG    1      -33.854  66.828  27.864  0.00  0.00    +0.002 A 
ATOM     11  C   LIG    1      -34.533  67.611  26.927  0.00  0.00    +0.028 A 
ENDBRANCH   3   6
BRANCH   4  12
ATOM     12  N   LIG    1      -34.691  71.698  26.690  0.00  0.00    -0.266 N 
ATOM     13  H   LIG    1      -33.819  71.761  26.181  0.00  0.00    +0.157 HD
ATOM     14  C   LIG    1      -34.898  72.525  27.857  0.00  0.00    +0.251 C 
ATOM     15  O   LIG    1      -35.920  72.417  28.528  0.00  0.00    -0.270 OA
BRANCH  14  16
ATOM     16  C   LIG    1      -33.807  73.416  28.309  0.00  0.00    +0.056 A 
ATOM     17  C   LIG    1      -32.716  72.974  29.045  0.00  0.00    +0.054 A 
ATOM     18 CL   LIG    1      -32.412  71.308  29.384  0.00  0.00    -0.083 Cl
ATOM     19  C   LIG    1      -31.786  73.899  29.516  0.00  0.00    +0.041 A 
ATOM     20  C   LIG    1      -31.934  75.272  29.263  0.00  0.00    +0.052 A 
ATOM     21 CL   LIG    1      -30.781  76.289  30.064  0.00  0.00    -0.083 Cl
ATOM     22  C   LIG    1      -32.985  75.759  28.458  0.00  0.00    +0.022 A 
ATOM     23  C   LIG    1      -33.899  74.786  27.976  0.00  0.00    +0.026 A 
BRANCH  22  24
ATOM     24  C   LIG    1      -33.170  77.195  28.106  0.00  0.00    +0.107 A 
ATOM     25  C   LIG    1      -32.483  77.830  27.065  0.00  0.00    +0.149 A 
ATOM     26  F   LIG    1      -31.616  77.162  26.289  0.00  0.00    -0.203 F 
ATOM     27  C   LIG    1      -32.688  79.182  26.809  0.00  0.00    +0.042 A 
ATOM     28  C   LIG    1      -33.597  79.887  27.586  0.00  0.00    +0.023 A 
ATOM     29  C   LIG    1      -34.248  79.205  28.598  0.00  0.00    +0.111 A 
ATOM     30  N   LIG    1      -34.036  77.897  28.883  0.00  0.00    -0.252 NA
ENDBRANCH  22  24
ENDBRANCH  14  16
ENDBRANCH   4  12
BRANCH   1  31
ATOM     31  C   LIG    1      -38.207  69.971  23.672  0.00  0.00    +0.236 C 
ATOM     32  N   LIG    1      -37.957  69.228  22.654  0.00  0.00    -0.241 NA
BRANCH  31  33
ATOM     33  O   LIG    1      -39.318  70.715  23.845  0.00  0.00    -0.491 OA
ATOM     34  H   LIG    1      -39.314  71.466  23.228  0.00  0.00    +0.294 HD
ENDBRANCH  31  33
BRANCH  32  35
ATOM     35  C   LIG    1      -38.931  69.119  21.555  0.00  0.00    +0.221 C 
BRANCH  35  36
ATOM     36  C   LIG    1      -38.551  68.157  20.440  0.00  0.00    +0.150 A 
ATOM     37  N   LIG    1      -37.498  68.459  19.661  0.00  0.00    -0.238 NA
ATOM     38  C   LIG    1      -37.196  67.569  18.696  0.00  0.00    +0.114 A 
ATOM     39  C   LIG    1      -37.895  66.404  18.482  0.00  0.00    +0.039 A 
ATOM     40  C   LIG    1      -38.936  66.172  19.343  0.00  0.00    +0.114 A 
ATOM     41  N   LIG    1      -39.262  67.009  20.344  0.00  0.00    -0.238 NA
ENDBRANCH  35  36
ENDBRANCH  32  35
ENDBRANCH   1  31
TORSDOF 8
ENDMDL
MODEL 3
REMARK VINA RESULT:      -6.6      4.327     11.176
REMARK  Name = pdb/CHEMBL3937196.pdb
REMARK                            x       y       z     vdW  Elec       q    Type
REMARK                         _______ _______ _______ _____ _____    ______ ____
ROOT
ATOM      1  C   LIG    1      -37.304  70.173  24.785  0.00  0.00    +0.149 A 
ATOM      2  N   LIG    1      -36.807  69.077  25.376  0.00  0.00    -0.160 NA
ATOM      3  N   LIG    1      -35.853  69.525  26.231  0.00  0.00    -0.218 N 
ATOM      4  C   LIG    1      -35.686  70.910  26.134  0.00  0.00    +0.129 A 
ATOM      5  C   LIG    1      -36.644  71.334  25.246  0.00  0.00    +0.078 A 
ENDROOT
BRANCH   3   6
ATOM      6  C   LIG    1      -35.140  68.597  27.041  0.00  0.00    +0.067 A 
ATOM      7  C   LIG    1      -34.975  68.809  28.415  0.00  0.00    +0.028 A 
ATOM      8  C   LIG    1      -34.186  67.931  29.166  0.00  0.00    +0.002 A 
ATOM      9  C   LIG    1      -33.569  66.840  28.554  0.00  0.00    +0.000 A 
ATOM     10  C   LIG    1      -33.776  66.594  27.199  0.00  0.00    +0.002 A 
ATOM     11  C   LIG    1      -34.577  67.456  26.445  0.00  0.00    +0.028 A 
ENDBRANCH   3   6
BRANCH   4  12
ATOM     12  N   LIG    1      -34.679  71.714  26.678  0.00  0.00    -0.266 N 
ATOM     13  H   LIG    1      -33.816  71.791  26.156  0.00  0.00    +0.157 HD
ATOM     14  C   LIG    1      -34.870  72.513  27.867  0.00  0.00    +0.251 C 
ATOM     15  O   LIG    1      -35.880  72.386  28.551  0.00  0.00    -0.270 OA
BRANCH  14  16
ATOM     16  C   LIG    1      -33.773  73.395  28.322  0.00  0.00    +0.056 A 
ATOM     17  C   LIG    1      -32.689  72.945  29.063  0.00  0.00    +0.054 A 
ATOM     18 CL   LIG    1      -32.400  71.278  29.405  0.00  0.00    -0.083 Cl
ATOM     19  C   LIG    1      -31.753  73.863  29.537  0.00  0.00    +0.041 A 
ATOM     20  C   LIG    1      -31.889  75.237  29.282  0.00  0.00    +0.052 A 
ATOM     21 CL   LIG    1      -30.731  76.245  30.086  0.00  0.00    -0.083 Cl
ATOM     22  C   LIG    1      -32.933  75.731  28.472  0.00  0.00    +0.022 A 
ATOM     23  C   LIG    1      -33.852  74.766  27.987  0.00  0.00    +0.026 A 
BRANCH  22  24
ATOM     24  C   LIG    1      -33.105  77.169  28.117  0.00  0.00    +0.107 A 
ATOM     25  C   LIG    1      -32.435  77.788  27.056  0.00  0.00    +0.149 A 
ATOM     26  F   LIG    1      -31.599  77.103  26.261  0.00  0.00    -0.203 F 
ATOM     27  C   LIG    1      -32.625  79.142  26.799  0.00  0.00    +0.042 A 
ATOM     28  C   LIG    1      -33.503  79.865  27.595  0.00  0.00    +0.023 A 
ATOM     29  C   LIG    1      -34.138  79.198  28.627  0.00  0.00    +0.111 A 
ATOM     30  N   LIG    1      -33.939  77.887  28.912  0.00  0.00    -0.252 NA
ENDBRANCH  22  24
ENDBRANCH  14  16
ENDBRANCH   4  12
BRANCH   1  31
ATOM     31  C   LIG    1      -38.374  70.140  23.791  0.00  0.00    +0.236 C 
ATOM     32  N   LIG    1      -39.510  70.676  24.066  0.00  0.00    -0.241 NA
BRANCH  31  33
ATOM     33  O   LIG    1      -38.064  69.505  22.644  0.00  0.00    -0.491 OA
ATOM     34  H   LIG    1      -37.242  69.871  22.275  0.00  0.00    +0.294 HD
ENDBRANCH  31  33
BRANCH  32  35
ATOM     35  C   LIG    1      -40.603  70.647  23.079  0.00  0.00    +0.221 C 
BRANCH  35  36
ATOM     36  C   LIG    1      -41.412  71.931  22.966  0.00  0.00    +0.150 A 
ATOM     37  N   LIG    1      -40.951  73.037  23.574  0.00  0.00    -0.238 NA
ATOM     38  C   LIG    1      -41.700  74.149  23.433  0.00  0.00    +0.114 A 
ATOM     39  C   LIG    1      -42.873  74.198  22.717  0.00  0.00    +0.039 A 
ATOM     40  C   LIG    1      -43.246  73.025  22.112  0.00  0.00    +0.114 A 
ATOM     41  N   LIG    1      -42.522  71.895  22.192  0.00  0.00    -0.238 NA
ENDBRANCH  35  36
ENDBRANCH  32  35
ENDBRANCH   1  31
TORSDOF 8
ENDMDL
MODEL 4
REMARK VINA RESULT:      -6.5     16.709     18.116
REMARK  Name = pdb/CHEMBL3937196.pdb
REMARK                            x       y       z     vdW  Elec       q    Type
REMARK                         _______ _______ _______ _____ _____    ______ ____
ROOT
ATOM      1  C   LIG    1      -22.985  81.306  15.250  0.00  0.00    +0.149 A 
ATOM      2  N   LIG    1      -22.305  80.163  15.420  0.00  0.00    -0.160 NA
ATOM      3  N   LIG    1      -22.952  79.239  14.665  0.00  0.00    -0.218 N 
ATOM      4  C   LIG    1      -24.096  79.776  14.066  0.00  0.00    +0.129 A 
ATOM      5  C   LIG    1      -24.094  81.108  14.399  0.00  0.00    +0.078 A 
ENDROOT
BRANCH   3   6
ATOM      6  C   LIG    1      -22.460  77.905  14.609  0.00  0.00    +0.067 A 
ATOM      7  C   LIG    1      -23.006  76.894  15.410  0.00  0.00    +0.028 A 
ATOM      8  C   LIG    1      -22.436  75.617  15.404  0.00  0.00    +0.002 A 
ATOM      9  C   LIG    1      -21.332  75.341  14.598  0.00  0.00    +0.000 A 
ATOM     10  C   LIG    1      -20.821  76.327  13.757  0.00  0.00    +0.002 A 
ATOM     11  C   LIG    1      -21.395  77.602  13.744  0.00  0.00    +0.028 A 
ENDBRANCH   3   6
BRANCH   4  12
ATOM     12  N   LIG    1      -25.130  79.113  13.398  0.00  0.00    -0.266 N 
ATOM     13  H   LIG    1      -25.130  79.154  12.387  0.00  0.00    +0.157 HD
ATOM     14  C   LIG    1      -26.104  78.291  14.080  0.00  0.00    +0.251 C 
ATOM     15  O   LIG    1      -26.165  78.278  15.305  0.00  0.00    -0.270 OA
BRANCH  14  16
ATOM     16  C   LIG    1      -27.113  77.561  13.282  0.00  0.00    +0.056 A 
ATOM     17  C   LIG    1      -27.114  76.182  13.129  0.00  0.00    +0.054 A 
ATOM     18 CL   LIG    1      -26.040  75.132  13.980  0.00  0.00    -0.083 Cl
ATOM     19  C   LIG    1      -28.043  75.587  12.276  0.00  0.00    +0.041 A 
ATOM     20  C   LIG    1      -28.976  76.358  11.565  0.00  0.00    +0.052 A 
ATOM     21 CL   LIG    1      -29.939  75.472  10.428  0.00  0.00    -0.083 Cl
ATOM     22  C   LIG    1      -29.061  77.755  11.746  0.00  0.00    +0.022 A 
ATOM     23  C   LIG    1      -28.116  78.323  12.640  0.00  0.00    +0.026 A 
BRANCH  22  24
ATOM     24  C   LIG    1      -30.061  78.625  11.066  0.00  0.00    +0.107 A 
ATOM     25  C   LIG    1      -29.998  78.959   9.708  0.00  0.00    +0.149 A 
ATOM     26  F   LIG    1      -29.025  78.486   8.915  0.00  0.00    -0.203 F 
ATOM     27  C   LIG    1      -30.955  79.799   9.146  0.00  0.00    +0.042 A 
ATOM     28  C   LIG    1      -31.984  80.281   9.943  0.00  0.00    +0.023 A 
ATOM     29  C   LIG    1      -31.995  79.914  11.277  0.00  0.00    +0.111 A 
ATOM     30  N   LIG    1      -31.053  79.125  11.849  0.00  0.00    -0.252 NA
ENDBRANCH  22  24
ENDBRANCH  14  16
ENDBRANCH   4  12
BRANCH   1  31
ATOM     31  C   LIG    1      -22.612  82.569  15.884  0.00  0.00    +0.236 C 
ATOM     32  N   LIG    1      -22.863  83.677  15.283  0.00  0.00    -0.241 NA
BRANCH  31  33
ATOM     33  O   LIG    1      -21.998  82.445  17.077  0.00  0.00    -0.491 OA
ATOM     34  H   LIG    1      -22.619  82.656  17.794  0.00  0.00    +0.294 HD
ENDBRANCH  31  33
BRANCH  32  35
ATOM     35  C   LIG    1      -22.491  84.960  15.904  0.00  0.00    +0.221 C 
BRANCH  35  36
ATOM     36  C   LIG    1      -22.531  86.167  14.979  0.00  0.00    +0.150 A 
ATOM     37  N   LIG    1      -22.875  85.981  13.693  0.00  0.00    -0.238 NA
ATOM     38  C   LIG    1      -22.906  87.084  12.920  0.00  0.00    +0.114 A 
ATOM     39  C   LIG    1      -22.612  88.348  13.375  0.00  0.00    +0.039 A 
ATOM     40  C   LIG    1      -22.298  88.439  14.706  0.00  0.00    +0.114 A 
ATOM     41  N   LIG    1      -22.283  87.378  15.532  0.00  0.00    -0.238 NA
ENDBRANCH  35  36
ENDBRANCH  32  35
ENDBRANCH   1  31
TORSDOF 8
ENDMDL
MODEL 5
REMARK VINA RESULT:      -6.5      3.288      4.053
REMARK  Name = pdb/CHEMBL3937196.pdb
REMARK                            x       y       z     vdW  Elec       q    Type
REMARK                         _______ _______ _______ _____ _____    ______ ____
ROOT
ATOM      1  C   LIG    1      -30.464  75.764  30.656  0.00  0.00    +0.149 A 
ATOM      2  N   LIG    1      -31.501  76.500  30.230  0.00  0.00    -0.160 NA
ATOM      3  N   LIG    1      -32.359  75.620  29.653  0.00  0.00    -0.218 N 
ATOM      4  C   LIG    1      -31.834  74.324  29.642  0.00  0.00    +0.129 A 
ATOM      5  C   LIG    1      -30.645  74.403  30.324  0.00  0.00    +0.078 A 
ENDROOT
BRANCH   3   6
ATOM      6  C   LIG    1      -33.591  76.087  29.113  0.00  0.00    +0.067 A 
ATOM      7  C   LIG    1      -34.637  76.502  29.945  0.00  0.00    +0.028 A 
ATOM      8  C   LIG    1      -35.869  76.862  29.388  0.00  0.00    +0.002 A 
ATOM      9  C   LIG    1      -36.058  76.818  28.006  0.00  0.00    +0.000 A 
ATOM     10  C   LIG    1      -35.001  76.460  27.172  0.00  0.00    +0.002 A 
ATOM     11  C   LIG    1      -33.762  76.115  27.719  0.00  0.00    +0.028 A 
ENDBRANCH   3   6
BRANCH   4  12
ATOM     12  N   LIG    1      -32.301  73.194  28.964  0.00  0.00    -0.266 N 
ATOM     13  H   LIG    1      -31.883  72.987  28.067  0.00  0.00    +0.157 HD
ATOM     14  C   LIG    1      -33.250  72.269  29.541  0.00  0.00    +0.251 C 
ATOM     15  O   LIG    1      -33.819  72.532  30.596  0.00  0.00    -0.270 OA
BRANCH  14  16
ATOM     16  C   LIG    1      -33.624  71.056  28.781  0.00  0.00    +0.056 A 
ATOM     17  C   LIG    1      -32.895  69.876  28.820  0.00  0.00    +0.054 A 
ATOM     18 CL   LIG    1      -31.558  69.621  29.882  0.00  0.00    -0.083 Cl
ATOM     19  C   LIG    1      -33.263  68.815  27.993  0.00  0.00    +0.041 A 
ATOM     20  C   LIG    1      -34.356  68.920  27.118  0.00  0.00    +0.052 A 
ATOM     21 CL   LIG    1      -34.565  67.572  26.049  0.00  0.00    -0.083 Cl
ATOM     22  C   LIG    1      -35.170  70.072  27.099  0.00  0.00    +0.022 A 
ATOM     23  C   LIG    1      -34.780  71.122  27.970  0.00  0.00    +0.026 A 
BRANCH  22  24
ATOM     24  C   LIG    1      -36.375  70.228  26.235  0.00  0.00    +0.107 A 
ATOM     25  C   LIG    1      -37.629  69.698  26.557  0.00  0.00    +0.149 A 
ATOM     26  F   LIG    1      -37.833  69.024  27.699  0.00  0.00    -0.203 F 
ATOM     27  C   LIG    1      -38.705  69.861  25.690  0.00  0.00    +0.042 A 
ATOM     28  C   LIG    1      -38.523  70.575  24.513  0.00  0.00    +0.023 A 
ATOM     29  C   LIG    1      -37.261  71.077  24.251  0.00  0.00    +0.111 A 
ATOM     30  N   LIG    1      -36.194  70.899  25.068  0.00  0.00    -0.252 NA
ENDBRANCH  22  24
ENDBRANCH  14  16
ENDBRANCH   4  12
BRANCH   1  31
ATOM     31  C   LIG    1      -29.309  76.325  31.353  0.00  0.00    +0.236 C 
ATOM     32  N   LIG    1      -28.466  75.536  31.916  0.00  0.00    -0.241 NA
BRANCH  31  33
ATOM     33  O   LIG    1      -29.247  77.671  31.357  0.00  0.00    -0.491 OA
ATOM     34  H   LIG    1      -29.863  78.034  30.698  0.00  0.00    +0.294 HD
ENDBRANCH  31  33
BRANCH  32  35
ATOM     35  C   LIG    1      -27.297  76.081  32.628  0.00  0.00    +0.221 C 
BRANCH  35  36
ATOM     36  C   LIG    1      -26.114  76.456  31.749  0.00  0.00    +0.150 A 
ATOM     37  N   LIG    1      -26.061  77.696  31.236  0.00  0.00    -0.238 NA
ATOM     38  C   LIG    1      -24.986  77.980  30.474  0.00  0.00    +0.114 A 
ATOM     39  C   LIG    1      -23.977  77.085  30.208  0.00  0.00    +0.039 A 
ATOM     40  C   LIG    1      -24.109  75.853  30.796  0.00  0.00    +0.114 A 
ATOM     41  N   LIG    1      -25.142  75.526  31.593  0.00  0.00    -0.238 NA
ENDBRANCH  35  36
ENDBRANCH  32  35
ENDBRANCH   1  31
TORSDOF 8
ENDMDL
MODEL 6
REMARK VINA RESULT:      -6.5      2.499      4.120
REMARK  Name = pdb/CHEMBL3937196.pdb
REMARK                            x       y       z     vdW  Elec       q    Type
REMARK                         _______ _______ _______ _____ _____    ______ ____
ROOT
ATOM      1  C   LIG    1      -30.295  75.388  30.564  0.00  0.00    +0.149 A 
ATOM      2  N   LIG    1      -30.856  74.182  30.398  0.00  0.00    -0.160 NA
ATOM      3  N   LIG    1      -31.900  74.379  29.554  0.00  0.00    -0.218 N 
ATOM      4  C   LIG    1      -32.054  75.732  29.236  0.00  0.00    +0.129 A 
ATOM      5  C   LIG    1      -31.002  76.374  29.841  0.00  0.00    +0.078 A 
ENDROOT
BRANCH   3   6
ATOM      6  C   LIG    1      -32.700  73.272  29.151  0.00  0.00    +0.067 A 
ATOM      7  C   LIG    1      -32.460  71.984  29.645  0.00  0.00    +0.028 A 
ATOM      8  C   LIG    1      -33.198  70.902  29.156  0.00  0.00    +0.002 A 
ATOM      9  C   LIG    1      -34.181  71.100  28.185  0.00  0.00    +0.000 A 
ATOM     10  C   LIG    1      -34.462  72.387  27.734  0.00  0.00    +0.002 A 
ATOM     11  C   LIG    1      -33.740  73.477  28.229  0.00  0.00    +0.028 A 
ENDBRANCH   3   6
BRANCH   4  12
ATOM     12  N   LIG    1      -33.116  76.364  28.582  0.00  0.00    -0.266 N 
ATOM     13  H   LIG    1      -33.118  76.339  27.570  0.00  0.00    +0.157 HD
ATOM     14  C   LIG    1      -34.245  76.931  29.285  0.00  0.00    +0.251 C 
ATOM     15  O   LIG    1      -34.235  77.032  30.507  0.00  0.00    -0.270 OA
BRANCH  14  16
ATOM     16  C   LIG    1      -35.361  77.507  28.504  0.00  0.00    +0.056 A 
ATOM     17  C   LIG    1      -35.619  78.869  28.431  0.00  0.00    +0.054 A 
ATOM     18 CL   LIG    1      -34.577  80.069  29.105  0.00  0.00    -0.083 Cl
ATOM     19  C   LIG    1      -36.752  79.318  27.755  0.00  0.00    +0.041 A 
ATOM     20  C   LIG    1      -37.642  78.417  27.149  0.00  0.00    +0.052 A 
ATOM     21 CL   LIG    1      -39.079  79.136  26.501  0.00  0.00    -0.083 Cl
ATOM     22  C   LIG    1      -37.382  77.030  27.133  0.00  0.00    +0.022 A 
ATOM     23  C   LIG    1      -36.207  76.612  27.810  0.00  0.00    +0.026 A 
BRANCH  22  24
ATOM     24  C   LIG    1      -38.254  76.025  26.462  0.00  0.00    +0.107 A 
ATOM     25  C   LIG    1      -38.108  75.647  25.123  0.00  0.00    +0.149 A 
ATOM     26  F   LIG    1      -37.136  76.159  24.352  0.00  0.00    -0.203 F 
ATOM     27  C   LIG    1      -38.977  74.719  24.555  0.00  0.00    +0.042 A 
ATOM     28  C   LIG    1      -39.975  74.159  25.341  0.00  0.00    +0.023 A 
ATOM     29  C   LIG    1      -40.068  74.571  26.658  0.00  0.00    +0.111 A 
ATOM     30  N   LIG    1      -39.252  75.497  27.218  0.00  0.00    -0.252 NA
ENDBRANCH  22  24
ENDBRANCH  14  16
ENDBRANCH   4  12
BRANCH   1  31
ATOM     31  C   LIG    1      -29.119  75.624  31.398  0.00  0.00    +0.236 C 
ATOM     32  N   LIG    1      -28.630  76.810  31.483  0.00  0.00    -0.241 NA
BRANCH  31  33
ATOM     33  O   LIG    1      -28.626  74.528  32.007  0.00  0.00    -0.491 OA
ATOM     34  H   LIG    1      -29.354  73.984  32.353  0.00  0.00    +0.294 HD
ENDBRANCH  31  33
BRANCH  32  35
ATOM     35  C   LIG    1      -27.442  77.067  32.315  0.00  0.00    +0.221 C 
BRANCH  35  36
ATOM     36  C   LIG    1      -26.105  76.901  31.610  0.00  0.00    +0.150 A 
ATOM     37  N   LIG    1      -25.498  75.703  31.656  0.00  0.00    -0.238 NA
ATOM     38  C   LIG    1      -24.321  75.607  31.006  0.00  0.00    +0.114 A 
ATOM     39  C   LIG    1      -23.736  76.646  30.321  0.00  0.00    +0.039 A 
ATOM     40  C   LIG    1      -24.444  77.820  30.310  0.00  0.00    +0.114 A 
ATOM     41  N   LIG    1      -25.638  77.964  30.913  0.00  0.00    -0.238 NA
ENDBRANCH  35  36
ENDBRANCH  32  35
ENDBRANCH   1  31
TORSDOF 8
ENDMDL
MODEL 7
REMARK VINA RESULT:      -6.5      3.712      4.828
REMARK  Name = pdb/CHEMBL3937196.pdb
REMARK                            x       y       z     vdW  Elec       q    Type
REMARK                         _______ _______ _______ _____ _____    ______ ____
ROOT
ATOM      1  C   LIG    1      -29.511  75.740  31.470  0.00  0.00    +0.149 A 
ATOM      2  N   LIG    1      -30.191  76.335  30.479  0.00  0.00    -0.160 NA
ATOM      3  N   LIG    1      -31.145  75.445  30.107  0.00  0.00    -0.218 N 
ATOM      4  C   LIG    1      -31.029  74.243  30.813  0.00  0.00    +0.129 A 
ATOM      5  C   LIG    1      -30.016  74.445  31.718  0.00  0.00    +0.078 A 
ENDROOT
BRANCH   3   6
ATOM      6  C   LIG    1      -32.066  75.787  29.076  0.00  0.00    +0.067 A 
ATOM      7  C   LIG    1      -31.932  76.975  28.348  0.00  0.00    +0.028 A 
ATOM      8  C   LIG    1      -32.907  77.330  27.410  0.00  0.00    +0.002 A 
ATOM      9  C   LIG    1      -34.008  76.502  27.189  0.00  0.00    +0.000 A 
ATOM     10  C   LIG    1      -34.115  75.292  27.871  0.00  0.00    +0.002 A 
ATOM     11  C   LIG    1      -33.137  74.921  28.798  0.00  0.00    +0.028 A 
ENDBRANCH   3   6
BRANCH   4  12
ATOM     12  N   LIG    1      -31.672  73.023  30.581  0.00  0.00    -0.266 N 
ATOM     13  H   LIG    1      -32.626  72.932  30.905  0.00  0.00    +0.157 HD
ATOM     14  C   LIG    1      -31.076  71.958  29.805  0.00  0.00    +0.251 C 
ATOM     15  O   LIG    1      -29.901  72.017  29.459  0.00  0.00    -0.270 OA
BRANCH  14  16
ATOM     16  C   LIG    1      -31.864  70.734  29.543  0.00  0.00    +0.056 A 
ATOM     17  C   LIG    1      -31.495  69.476  29.999  0.00  0.00    +0.054 A 
ATOM     18 CL   LIG    1      -30.163  69.206  31.063  0.00  0.00    -0.083 Cl
ATOM     19  C   LIG    1      -32.242  68.362  29.620  0.00  0.00    +0.041 A 
ATOM     20  C   LIG    1      -33.361  68.488  28.780  0.00  0.00    +0.052 A 
ATOM     21 CL   LIG    1      -34.067  66.987  28.277  0.00  0.00    -0.083 Cl
ATOM     22  C   LIG    1      -33.817  69.753  28.354  0.00  0.00    +0.022 A 
ATOM     23  C   LIG    1      -33.046  70.866  28.779  0.00  0.00    +0.026 A 
BRANCH  22  24
ATOM     24  C   LIG    1      -35.027  69.963  27.509  0.00  0.00    +0.107 A 
ATOM     25  C   LIG    1      -35.037  69.793  26.120  0.00  0.00    +0.149 A 
ATOM     26  F   LIG    1      -33.941  69.399  25.454  0.00  0.00    -0.203 F 
ATOM     27  C   LIG    1      -36.199  70.031  25.391  0.00  0.00    +0.042 A 
ATOM     28  C   LIG    1      -37.351  70.417  26.063  0.00  0.00    +0.023 A 
ATOM     29  C   LIG    1      -37.280  70.565  27.436  0.00  0.00    +0.111 A 
ATOM     30  N   LIG    1      -36.148  70.370  28.157  0.00  0.00    -0.252 NA
ENDBRANCH  22  24
ENDBRANCH  14  16
ENDBRANCH   4  12
BRANCH   1  31
ATOM     31  C   LIG    1      -28.392  76.366  32.170  0.00  0.00    +0.236 C 
ATOM     32  N   LIG    1      -27.310  76.629  31.527  0.00  0.00    -0.241 NA
BRANCH  31  33
ATOM     33  O   LIG    1      -28.601  76.599  33.480  0.00  0.00    -0.491 OA
ATOM     34  H   LIG    1      -29.394  77.148  33.597  0.00  0.00    +0.294 HD
ENDBRANCH  31  33
BRANCH  32  35
ATOM     35  C   LIG    1      -26.169  77.255  32.216  0.00  0.00    +0.221 C 
BRANCH  35  36
ATOM     36  C   LIG    1      -24.855  77.237  31.450  0.00  0.00    +0.150 A 
ATOM     37  N   LIG    1      -24.894  77.184  30.108  0.00  0.00    -0.238 NA
ATOM     38  C   LIG    1      -23.703  77.182  29.477  0.00  0.00    +0.114 A 
ATOM     39  C   LIG    1      -22.492  77.230  30.127  0.00  0.00    +0.039 A 
ATOM     40  C   LIG    1      -22.556  77.308  31.494  0.00  0.00    +0.114 A 
ATOM     41  N   LIG    1      -23.716  77.347  32.174  0.00  0.00    -0.238 NA
ENDBRANCH  35  36
ENDBRANCH  32  35
ENDBRANCH   1  31
TORSDOF 8
ENDMDL
MODEL 8
REMARK VINA RESULT:      -6.4      5.377      9.143
REMARK  Name = pdb/CHEMBL3937196.pdb
REMARK                            x       y       z     vdW  Elec       q    Type
REMARK                         _______ _______ _______ _____ _____    ______ ____
ROOT
ATOM      1  C   LIG    1      -37.870  76.146  25.841  0.00  0.00    +0.149 A 
ATOM      2  N   LIG    1      -38.164  74.847  25.680  0.00  0.00    -0.160 NA
ATOM      3  N   LIG    1      -39.126  74.808  24.724  0.00  0.00    -0.218 N 
ATOM      4  C   LIG    1      -39.504  76.093  24.322  0.00  0.00    +0.129 A 
ATOM      5  C   LIG    1      -38.671  76.949  24.999  0.00  0.00    +0.078 A 
ENDROOT
BRANCH   3   6
ATOM      6  C   LIG    1      -39.647  73.553  24.298  0.00  0.00    +0.067 A 
ATOM      7  C   LIG    1      -38.924  72.367  24.480  0.00  0.00    +0.028 A 
ATOM      8  C   LIG    1      -39.417  71.165  23.963  0.00  0.00    +0.002 A 
ATOM      9  C   LIG    1      -40.631  71.138  23.275  0.00  0.00    +0.000 A 
ATOM     10  C   LIG    1      -41.379  72.305  23.141  0.00  0.00    +0.002 A 
ATOM     11  C   LIG    1      -40.902  73.508  23.669  0.00  0.00    +0.028 A 
ENDBRANCH   3   6
BRANCH   4  12
ATOM     12  N   LIG    1      -40.589  76.482  23.531  0.00  0.00    -0.266 N 
ATOM     13  H   LIG    1      -40.452  76.492  22.529  0.00  0.00    +0.157 HD
ATOM     14  C   LIG    1      -41.902  76.745  24.075  0.00  0.00    +0.251 C 
ATOM     15  O   LIG    1      -42.078  76.804  25.288  0.00  0.00    -0.270 OA
BRANCH  14  16
ATOM     16  C   LIG    1      -43.010  77.071  23.150  0.00  0.00    +0.056 A 
ATOM     17  C   LIG    1      -43.549  78.344  23.024  0.00  0.00    +0.054 A 
ATOM     18 CL   LIG    1      -42.890  79.735  23.806  0.00  0.00    -0.083 Cl
ATOM     19  C   LIG    1      -44.659  78.541  22.203  0.00  0.00    +0.041 A 
ATOM     20  C   LIG    1      -45.245  77.474  21.504  0.00  0.00    +0.052 A 
ATOM     21 CL   LIG    1      -46.711  77.868  20.669  0.00  0.00    -0.083 Cl
ATOM     22  C   LIG    1      -44.686  76.179  21.544  0.00  0.00    +0.022 A 
ATOM     23  C   LIG    1      -43.543  76.021  22.370  0.00  0.00    +0.026 A 
BRANCH  22  24
ATOM     24  C   LIG    1      -45.224  75.015  20.784  0.00  0.00    +0.107 A 
ATOM     25  C   LIG    1      -45.024  74.829  19.411  0.00  0.00    +0.149 A 
ATOM     26  F   LIG    1      -44.298  75.693  18.686  0.00  0.00    -0.203 F 
ATOM     27  C   LIG    1      -45.578  73.730  18.762  0.00  0.00    +0.042 A 
ATOM     28  C   LIG    1      -46.314  72.810  19.498  0.00  0.00    +0.023 A 
ATOM     29  C   LIG    1      -46.475  73.046  20.851  0.00  0.00    +0.111 A 
ATOM     30  N   LIG    1      -45.970  74.129  21.493  0.00  0.00    -0.252 NA
ENDBRANCH  22  24
ENDBRANCH  14  16
ENDBRANCH   4  12
BRANCH   1  31
ATOM     31  C   LIG    1      -36.862  76.635  26.779  0.00  0.00    +0.236 C 
ATOM     32  N   LIG    1      -36.033  75.806  27.305  0.00  0.00    -0.241 NA
BRANCH  31  33
ATOM     33  O   LIG    1      -36.914  77.958  27.029  0.00  0.00    -0.491 OA
ATOM     34  H   LIG    1      -37.009  78.111  27.985  0.00  0.00    +0.294 HD
ENDBRANCH  31  33
BRANCH  32  35
ATOM     35  C   LIG    1      -35.013  76.279  28.257  0.00  0.00    +0.221 C 
BRANCH  35  36
ATOM     36  C   LIG    1      -34.016  77.282  27.700  0.00  0.00    +0.150 A 
ATOM     37  N   LIG    1      -33.035  76.836  26.896  0.00  0.00    -0.238 NA
ATOM     38  C   LIG    1      -32.186  77.768  26.420  0.00  0.00    +0.114 A 
ATOM     39  C   LIG    1      -32.277  79.108  26.711  0.00  0.00    +0.039 A 
ATOM     40  C   LIG    1      -33.325  79.469  27.517  0.00  0.00    +0.114 A 
ATOM     41  N   LIG    1      -34.222  78.588  27.994  0.00  0.00    -0.238 NA
ENDBRANCH  35  36
ENDBRANCH  32  35
ENDBRANCH   1  31
TORSDOF 8
ENDMDL
MODEL 9
REMARK VINA RESULT:      -6.4      7.834     14.267
REMARK  Name = pdb/CHEMBL3937196.pdb
REMARK                            x       y       z     vdW  Elec       q    Type
REMARK                         _______ _______ _______ _____ _____    ______ ____
ROOT
ATOM      1  C   LIG    1      -25.366  74.342  32.134  0.00  0.00    +0.149 A 
ATOM      2  N   LIG    1      -24.360  74.475  31.257  0.00  0.00    -0.160 NA
ATOM      3  N   LIG    1      -23.490  75.344  31.831  0.00  0.00    -0.218 N 
ATOM      4  C   LIG    1      -23.976  75.828  33.050  0.00  0.00    +0.129 A 
ATOM      5  C   LIG    1      -25.152  75.155  33.269  0.00  0.00    +0.078 A 
ENDROOT
BRANCH   3   6
ATOM      6  C   LIG    1      -22.283  75.683  31.156  0.00  0.00    +0.067 A 
ATOM      7  C   LIG    1      -21.035  75.308  31.666  0.00  0.00    +0.028 A 
ATOM      8  C   LIG    1      -19.865  75.742  31.033  0.00  0.00    +0.002 A 
ATOM      9  C   LIG    1      -19.936  76.538  29.890  0.00  0.00    +0.000 A 
ATOM     10  C   LIG    1      -21.176  76.866  29.347  0.00  0.00    +0.002 A 
ATOM     11  C   LIG    1      -22.349  76.423  29.963  0.00  0.00    +0.028 A 
ENDBRANCH   3   6
BRANCH   4  12
ATOM     12  N   LIG    1      -23.491  76.880  33.833  0.00  0.00    -0.266 N 
ATOM     13  H   LIG    1      -22.997  76.636  34.682  0.00  0.00    +0.157 HD
ATOM     14  C   LIG    1      -23.562  78.263  33.420  0.00  0.00    +0.251 C 
ATOM     15  O   LIG    1      -24.211  78.589  32.431  0.00  0.00    -0.270 OA
BRANCH  14  16
ATOM     16  C   LIG    1      -22.948  79.301  34.277  0.00  0.00    +0.056 A 
ATOM     17  C   LIG    1      -21.580  79.520  34.350  0.00  0.00    +0.054 A 
ATOM     18 CL   LIG    1      -20.436  78.722  33.332  0.00  0.00    -0.083 Cl
ATOM     19  C   LIG    1      -21.081  80.451  35.260  0.00  0.00    +0.041 A 
ATOM     20  C   LIG    1      -21.939  81.170  36.108  0.00  0.00    +0.052 A 
ATOM     21 CL   LIG    1      -21.138  82.156  37.287  0.00  0.00    -0.083 Cl
ATOM     22  C   LIG    1      -23.340  81.035  36.017  0.00  0.00    +0.022 A 
ATOM     23  C   LIG    1      -23.812  80.096  35.063  0.00  0.00    +0.026 A 
BRANCH  22  24
ATOM     24  C   LIG    1      -24.308  81.806  36.848  0.00  0.00    +0.107 A 
ATOM     25  C   LIG    1      -24.582  81.511  38.188  0.00  0.00    +0.149 A 
ATOM     26  F   LIG    1      -23.958  80.510  38.827  0.00  0.00    -0.203 F 
ATOM     27  C   LIG    1      -25.518  82.260  38.896  0.00  0.00    +0.042 A 
ATOM     28  C   LIG    1      -26.159  83.315  38.261  0.00  0.00    +0.023 A 
ATOM     29  C   LIG    1      -25.844  83.560  36.936  0.00  0.00    +0.111 A 
ATOM     30  N   LIG    1      -24.960  82.820  36.222  0.00  0.00    -0.252 NA
ENDBRANCH  22  24
ENDBRANCH  14  16
ENDBRANCH   4  12
BRANCH   1  31
ATOM     31  C   LIG    1      -26.522  73.478  31.910  0.00  0.00    +0.236 C 
ATOM     32  N   LIG    1      -27.599  73.674  32.584  0.00  0.00    -0.241 NA
BRANCH  31  33
ATOM     33  O   LIG    1      -26.335  72.505  30.997  0.00  0.00    -0.491 OA
ATOM     34  H   LIG    1      -26.814  71.702  31.266  0.00  0.00    +0.294 HD
ENDBRANCH  31  33
BRANCH  32  35
ATOM     35  C   LIG    1      -28.774  72.810  32.378  0.00  0.00    +0.221 C 
BRANCH  35  36
ATOM     36  C   LIG    1      -29.788  73.320  31.366  0.00  0.00    +0.150 A 
ATOM     37  N   LIG    1      -30.223  72.481  30.412  0.00  0.00    -0.238 NA
ATOM     38  C   LIG    1      -31.130  72.980  29.548  0.00  0.00    +0.114 A 
ATOM     39  C   LIG    1      -31.613  74.266  29.602  0.00  0.00    +0.039 A 
ATOM     40  C   LIG    1      -31.128  75.038  30.627  0.00  0.00    +0.114 A 
ATOM     41  N   LIG    1      -30.248  74.583  31.536  0.00  0.00    -0.238 NA
ENDBRANCH  35  36
ENDBRANCH  32  35
ENDBRANCH   1  31
TORSDOF 8
ENDMDL
