MODEL 1
REMARK VINA RESULT:      -6.7      0.000      0.000
REMARK  Name = pdb/CHEMBL3671468.pdb
REMARK                            x       y       z     vdW  Elec       q    Type
REMARK                         _______ _______ _______ _____ _____    ______ ____
ROOT
ATOM      1  C   LIG    1      -34.170  72.721  27.986  0.00  0.00    +0.052 A 
ATOM      2  C   LIG    1      -33.798  74.067  28.115  0.00  0.00    +0.038 A 
ATOM      3  C   LIG    1      -32.781  74.434  29.011  0.00  0.00    +0.042 A 
ATOM      4  C   LIG    1      -32.203  73.431  29.775  0.00  0.00    +0.122 A 
ATOM      5  N   LIG    1      -32.611  72.144  29.757  0.00  0.00    -0.261 NA
ATOM      6  C   LIG    1      -33.573  71.814  28.858  0.00  0.00    +0.134 A 
ENDROOT
BRANCH   1   8
ATOM      7  C   LIG    1      -36.473  72.238  27.137  0.00  0.00    +0.222 C 
ATOM      8  N   LIG    1      -35.094  72.368  26.971  0.00  0.00    -0.284 N 
ATOM      9  H   LIG    1      -34.697  72.000  26.115  0.00  0.00    +0.155 HD
ATOM     10  O   LIG    1      -37.069  72.403  28.199  0.00  0.00    -0.275 OA
BRANCH   7  11
ATOM     11  C   LIG    1      -37.186  71.762  25.870  0.00  0.00    +0.131 C 
BRANCH  11  14
ATOM     12  C   LIG    1      -38.781  75.073  24.816  0.00  0.00    +0.088 A 
ATOM     13  C   LIG    1      -37.896  74.159  25.395  0.00  0.00    +0.031 A 
ATOM     14  C   LIG    1      -38.115  72.782  25.244  0.00  0.00    -0.037 A 
ATOM     15  C   LIG    1      -39.234  72.354  24.513  0.00  0.00    +0.004 A 
ATOM     16  C   LIG    1      -40.119  73.278  23.947  0.00  0.00    +0.002 A 
ATOM     17  C   LIG    1      -39.898  74.648  24.095  0.00  0.00    +0.027 A 
BRANCH  12  19
ATOM     18  C   LIG    1      -39.702  77.291  26.260  0.00  0.00    +0.200 C 
ATOM     19  S   LIG    1      -38.510  76.822  25.037  0.00  0.00    -0.006 S 
ATOM     20  O   LIG    1      -37.189  77.012  25.605  0.00  0.00    -0.170 OA
ATOM     21  O   LIG    1      -38.881  77.458  23.775  0.00  0.00    -0.170 OA
ENDBRANCH  12  19
ENDBRANCH  11  14
ENDBRANCH   7  11
ENDBRANCH   1   8
BRANCH   3  22
ATOM     22  C   LIG    1      -32.276  75.832  29.059  0.00  0.00    +0.197 C 
ATOM     23  O   LIG    1      -31.077  76.020  28.866  0.00  0.00    -0.287 OA
BRANCH  22  24
ATOM     24  C   LIG    1      -33.190  76.938  29.361  0.00  0.00    +0.051 A 
ATOM     25  C   LIG    1      -33.434  78.149  28.632  0.00  0.00    +0.048 A 
ATOM     26  C   LIG    1      -32.955  78.753  27.472  0.00  0.00    +0.126 A 
ATOM     27  N   LIG    1      -33.531  79.884  27.014  0.00  0.00    -0.222 NA
ATOM     28  C   LIG    1      -34.508  80.449  27.733  0.00  0.00    +0.214 A 
ATOM     29  N   LIG    1      -34.993  80.001  28.892  0.00  0.00    -0.197 NA
ATOM     30  C   LIG    1      -34.424  78.855  29.302  0.00  0.00    +0.147 A 
ATOM     31  N   LIG    1      -34.703  78.175  30.458  0.00  0.00    -0.325 N 
ATOM     32  C   LIG    1      -34.013  76.991  30.482  0.00  0.00    +0.100 A 
BRANCH  31  33
ATOM     33  C   LIG    1      -35.544  78.635  31.480  0.00  0.00    +0.048 C 
ATOM     34  C   LIG    1      -37.114  78.663  31.513  0.00  0.00    +0.032 C 
ATOM     35  C   LIG    1      -36.592  78.974  33.006  0.00  0.00    -0.004 C 
ATOM     36  C   LIG    1      -35.271  79.769  32.529  0.00  0.00    +0.032 C 
ATOM     37  C   LIG    1      -35.690  77.713  32.747  0.00  0.00    +0.032 C 
ENDBRANCH  31  33
BRANCH  28  38
ATOM     38  N   LIG    1      -35.105  81.568  27.188  0.00  0.00    -0.327 N 
ATOM     39  H   LIG    1      -34.975  82.349  27.819  0.00  0.00    +0.145 HD
ATOM     40  H   LIG    1      -34.792  81.690  26.236  0.00  0.00    +0.145 HD
ENDBRANCH  28  38
ENDBRANCH  22  24
ENDBRANCH   3  22
TORSDOF 8
ENDMDL
MODEL 2
REMARK VINA RESULT:      -6.7     11.485     15.585
REMARK  Name = pdb/CHEMBL3671468.pdb
REMARK                            x       y       z     vdW  Elec       q    Type
REMARK                         _______ _______ _______ _____ _____    ______ ____
ROOT
ATOM      1  C   LIG    1      -19.244  78.207  32.370  0.00  0.00    +0.052 A 
ATOM      2  C   LIG    1      -20.415  77.884  31.668  0.00  0.00    +0.038 A 
ATOM      3  C   LIG    1      -20.374  76.945  30.624  0.00  0.00    +0.042 A 
ATOM      4  C   LIG    1      -19.142  76.397  30.299  0.00  0.00    +0.122 A 
ATOM      5  N   LIG    1      -17.978  76.766  30.879  0.00  0.00    -0.261 NA
ATOM      6  C   LIG    1      -18.054  77.650  31.906  0.00  0.00    +0.134 A 
ENDROOT
BRANCH   1   8
ATOM      7  C   LIG    1      -19.522  78.610  34.823  0.00  0.00    +0.222 C 
ATOM      8  N   LIG    1      -19.347  79.044  33.509  0.00  0.00    -0.284 N 
ATOM      9  H   LIG    1      -19.495  80.030  33.326  0.00  0.00    +0.155 HD
ATOM     10  O   LIG    1      -19.621  77.434  35.165  0.00  0.00    -0.275 OA
BRANCH   7  11
ATOM     11  C   LIG    1      -19.682  79.762  35.817  0.00  0.00    +0.131 C 
BRANCH  11  14
ATOM     12  C   LIG    1      -23.488  80.097  35.962  0.00  0.00    +0.088 A 
ATOM     13  C   LIG    1      -22.214  79.525  35.908  0.00  0.00    +0.031 A 
ATOM     14  C   LIG    1      -21.078  80.347  35.891  0.00  0.00    -0.037 A 
ATOM     15  C   LIG    1      -21.253  81.739  35.923  0.00  0.00    +0.004 A 
ATOM     16  C   LIG    1      -22.533  82.301  35.966  0.00  0.00    +0.002 A 
ATOM     17  C   LIG    1      -23.663  81.482  35.986  0.00  0.00    +0.027 A 
BRANCH  12  19
ATOM     18  C   LIG    1      -25.035  78.474  34.282  0.00  0.00    +0.200 C 
ATOM     19  S   LIG    1      -24.928  79.044  35.956  0.00  0.00    -0.006 S 
ATOM     20  O   LIG    1      -24.659  77.897  36.802  0.00  0.00    -0.170 OA
ATOM     21  O   LIG    1      -26.074  79.914  36.212  0.00  0.00    -0.170 OA
ENDBRANCH  12  19
ENDBRANCH  11  14
ENDBRANCH   7  11
ENDBRANCH   1   8
BRANCH   3  22
ATOM     22  C   LIG    1      -21.624  76.485  29.965  0.00  0.00    +0.197 C 
ATOM     23  O   LIG    1      -21.697  76.572  28.741  0.00  0.00    -0.287 OA
BRANCH  22  24
ATOM     24  C   LIG    1      -22.740  75.975  30.767  0.00  0.00    +0.051 A 
ATOM     25  C   LIG    1      -24.060  76.508  30.944  0.00  0.00    +0.048 A 
ATOM     26  C   LIG    1      -24.774  77.621  30.507  0.00  0.00    +0.126 A 
ATOM     27  N   LIG    1      -26.088  77.732  30.794  0.00  0.00    -0.222 NA
ATOM     28  C   LIG    1      -26.663  76.801  31.564  0.00  0.00    +0.214 A 
ATOM     29  N   LIG    1      -26.061  75.737  32.096  0.00  0.00    -0.197 NA
ATOM     30  C   LIG    1      -24.763  75.635  31.763  0.00  0.00    +0.147 A 
ATOM     31  N   LIG    1      -23.889  74.664  32.175  0.00  0.00    -0.325 N 
ATOM     32  C   LIG    1      -22.685  74.819  31.541  0.00  0.00    +0.100 A 
BRANCH  31  33
ATOM     33  C   LIG    1      -24.174  73.678  33.129  0.00  0.00    +0.048 C 
ATOM     34  C   LIG    1      -25.007  72.358  32.948  0.00  0.00    +0.032 C 
ATOM     35  C   LIG    1      -24.243  72.260  34.364  0.00  0.00    -0.004 C 
ATOM     36  C   LIG    1      -24.331  73.840  34.681  0.00  0.00    +0.032 C 
ATOM     37  C   LIG    1      -23.001  72.699  33.507  0.00  0.00    +0.032 C 
ENDBRANCH  31  33
BRANCH  28  38
ATOM     38  N   LIG    1      -28.022  76.928  31.773  0.00  0.00    -0.327 N 
ATOM     39  H   LIG    1      -28.178  77.270  32.712  0.00  0.00    +0.145 HD
ATOM     40  H   LIG    1      -28.433  77.456  31.017  0.00  0.00    +0.145 HD
ENDBRANCH  28  38
ENDBRANCH  22  24
ENDBRANCH   3  22
TORSDOF 8
ENDMDL
MODEL 3
REMARK VINA RESULT:      -6.2      2.738      4.122
REMARK  Name = pdb/CHEMBL3671468.pdb
REMARK                            x       y       z     vdW  Elec       q    Type
REMARK                         _______ _______ _______ _____ _____    ______ ____
ROOT
ATOM      1  C   LIG    1      -35.389  70.484  27.661  0.00  0.00    +0.052 A 
ATOM      2  C   LIG    1      -34.265  71.232  28.042  0.00  0.00    +0.038 A 
ATOM      3  C   LIG    1      -33.514  70.852  29.165  0.00  0.00    +0.042 A 
ATOM      4  C   LIG    1      -33.949  69.752  29.889  0.00  0.00    +0.122 A 
ATOM      5  N   LIG    1      -35.086  69.075  29.617  0.00  0.00    -0.261 NA
ATOM      6  C   LIG    1      -35.773  69.445  28.506  0.00  0.00    +0.134 A 
ENDROOT
BRANCH   1   8
ATOM      7  C   LIG    1      -37.271  71.445  26.323  0.00  0.00    +0.222 C 
ATOM      8  N   LIG    1      -36.036  70.808  26.442  0.00  0.00    -0.284 N 
ATOM      9  H   LIG    1      -35.662  70.371  25.608  0.00  0.00    +0.155 HD
ATOM     10  O   LIG    1      -37.969  71.803  27.268  0.00  0.00    -0.275 OA
BRANCH   7  11
ATOM     11  C   LIG    1      -37.739  71.576  24.872  0.00  0.00    +0.131 C 
BRANCH  11  14
ATOM     12  C   LIG    1      -39.015  75.171  24.616  0.00  0.00    +0.088 A 
ATOM     13  C   LIG    1      -38.176  74.083  24.871  0.00  0.00    +0.031 A 
ATOM     14  C   LIG    1      -38.616  72.780  24.594  0.00  0.00    -0.037 A 
ATOM     15  C   LIG    1      -39.904  72.602  24.068  0.00  0.00    +0.004 A 
ATOM     16  C   LIG    1      -40.740  73.697  23.827  0.00  0.00    +0.002 A 
ATOM     17  C   LIG    1      -40.300  74.994  24.100  0.00  0.00    +0.027 A 
BRANCH  12  19
ATOM     18  C   LIG    1      -39.139  77.147  26.599  0.00  0.00    +0.200 C 
ATOM     19  S   LIG    1      -38.458  76.822  24.996  0.00  0.00    -0.006 S 
ATOM     20  O   LIG    1      -37.013  76.799  25.122  0.00  0.00    -0.170 OA
ATOM     21  O   LIG    1      -39.113  77.708  24.037  0.00  0.00    -0.170 OA
ENDBRANCH  12  19
ENDBRANCH  11  14
ENDBRANCH   7  11
ENDBRANCH   1   8
BRANCH   3  22
ATOM     22  C   LIG    1      -32.243  71.546  29.501  0.00  0.00    +0.197 C 
ATOM     23  O   LIG    1      -31.277  70.857  29.823  0.00  0.00    -0.287 OA
BRANCH  22  24
ATOM     24  C   LIG    1      -32.170  73.009  29.476  0.00  0.00    +0.051 A 
ATOM     25  C   LIG    1      -31.312  73.897  30.207  0.00  0.00    +0.048 A 
ATOM     26  C   LIG    1      -30.309  73.781  31.166  0.00  0.00    +0.126 A 
ATOM     27  N   LIG    1      -29.614  74.873  31.549  0.00  0.00    -0.222 NA
ATOM     28  C   LIG    1      -29.960  76.066  31.051  0.00  0.00    +0.214 A 
ATOM     29  N   LIG    1      -30.948  76.304  30.188  0.00  0.00    -0.197 NA
ATOM     30  C   LIG    1      -31.596  75.193  29.799  0.00  0.00    +0.147 A 
ATOM     31  N   LIG    1      -32.662  75.130  28.940  0.00  0.00    -0.325 N 
ATOM     32  C   LIG    1      -32.982  73.821  28.689  0.00  0.00    +0.100 A 
BRANCH  31  33
ATOM     33  C   LIG    1      -33.344  76.238  28.421  0.00  0.00    +0.048 C 
ATOM     34  C   LIG    1      -32.939  77.153  27.211  0.00  0.00    +0.032 C 
ATOM     35  C   LIG    1      -34.465  77.503  27.594  0.00  0.00    -0.004 C 
ATOM     36  C   LIG    1      -34.273  77.251  29.176  0.00  0.00    +0.032 C 
ATOM     37  C   LIG    1      -34.629  75.940  27.562  0.00  0.00    +0.032 C 
ENDBRANCH  31  33
BRANCH  28  38
ATOM     38  N   LIG    1      -29.177  77.139  31.427  0.00  0.00    -0.327 N 
ATOM     39  H   LIG    1      -28.544  77.365  30.670  0.00  0.00    +0.145 HD
ATOM     40  H   LIG    1      -29.765  77.884  31.771  0.00  0.00    +0.145 HD
ENDBRANCH  28  38
ENDBRANCH  22  24
ENDBRANCH   3  22
TORSDOF 8
ENDMDL
MODEL 4
REMARK VINA RESULT:      -6.2     10.541     15.057
REMARK  Name = pdb/CHEMBL3671468.pdb
REMARK                            x       y       z     vdW  Elec       q    Type
REMARK                         _______ _______ _______ _____ _____    ______ ____
ROOT
ATOM      1  C   LIG    1      -26.717  77.887  35.780  0.00  0.00    +0.052 A 
ATOM      2  C   LIG    1      -26.438  77.533  34.452  0.00  0.00    +0.038 A 
ATOM      3  C   LIG    1      -27.480  77.149  33.592  0.00  0.00    +0.042 A 
ATOM      4  C   LIG    1      -28.763  77.096  34.118  0.00  0.00    +0.122 A 
ATOM      5  N   LIG    1      -29.052  77.323  35.418  0.00  0.00    -0.261 NA
ATOM      6  C   LIG    1      -28.030  77.724  36.216  0.00  0.00    +0.134 A 
ENDROOT
BRANCH   1   8
ATOM      7  C   LIG    1      -25.472  79.756  36.883  0.00  0.00    +0.222 C 
ATOM      8  N   LIG    1      -25.666  78.409  36.577  0.00  0.00    -0.284 N 
ATOM      9  H   LIG    1      -24.900  77.777  36.773  0.00  0.00    +0.155 HD
ATOM     10  O   LIG    1      -26.188  80.674  36.490  0.00  0.00    -0.275 OA
BRANCH   7  11
ATOM     11  C   LIG    1      -24.199  80.007  37.693  0.00  0.00    +0.131 C 
BRANCH  11  14
ATOM     12  C   LIG    1      -21.279  79.872  35.228  0.00  0.00    +0.088 A 
ATOM     13  C   LIG    1      -22.406  79.492  35.963  0.00  0.00    +0.031 A 
ATOM     14  C   LIG    1      -22.987  80.392  36.868  0.00  0.00    -0.037 A 
ATOM     15  C   LIG    1      -22.412  81.662  37.019  0.00  0.00    +0.004 A 
ATOM     16  C   LIG    1      -21.278  82.029  36.287  0.00  0.00    +0.002 A 
ATOM     17  C   LIG    1      -20.702  81.134  35.384  0.00  0.00    +0.027 A 
BRANCH  12  19
ATOM     18  C   LIG    1      -21.887  78.129  33.120  0.00  0.00    +0.200 C 
ATOM     19  S   LIG    1      -20.530  78.713  34.099  0.00  0.00    -0.006 S 
ATOM     20  O   LIG    1      -19.630  79.441  33.226  0.00  0.00    -0.170 OA
ATOM     21  O   LIG    1      -20.048  77.599  34.913  0.00  0.00    -0.170 OA
ENDBRANCH  12  19
ENDBRANCH  11  14
ENDBRANCH   7  11
ENDBRANCH   1   8
BRANCH   3  22
ATOM     22  C   LIG    1      -27.225  76.908  32.148  0.00  0.00    +0.197 C 
ATOM     23  O   LIG    1      -28.044  77.338  31.338  0.00  0.00    -0.287 OA
BRANCH  22  24
ATOM     24  C   LIG    1      -26.045  76.152  31.721  0.00  0.00    +0.051 A 
ATOM     25  C   LIG    1      -24.924  76.572  30.930  0.00  0.00    +0.048 A 
ATOM     26  C   LIG    1      -24.520  77.733  30.275  0.00  0.00    +0.126 A 
ATOM     27  N   LIG    1      -23.295  77.795  29.710  0.00  0.00    -0.222 NA
ATOM     28  C   LIG    1      -22.520  76.704  29.724  0.00  0.00    +0.214 A 
ATOM     29  N   LIG    1      -22.834  75.522  30.255  0.00  0.00    -0.197 NA
ATOM     30  C   LIG    1      -24.043  75.503  30.841  0.00  0.00    +0.147 A 
ATOM     31  N   LIG    1      -24.639  74.428  31.447  0.00  0.00    -0.325 N 
ATOM     32  C   LIG    1      -25.816  74.814  32.032  0.00  0.00    +0.100 A 
BRANCH  31  33
ATOM     33  C   LIG    1      -24.135  73.121  31.442  0.00  0.00    +0.048 C 
ATOM     34  C   LIG    1      -22.842  72.571  32.144  0.00  0.00    +0.032 C 
ATOM     35  C   LIG    1      -23.702  71.301  31.649  0.00  0.00    -0.004 C 
ATOM     36  C   LIG    1      -24.275  72.027  30.327  0.00  0.00    +0.032 C 
ATOM     37  C   LIG    1      -24.882  72.070  32.346  0.00  0.00    +0.032 C 
ENDBRANCH  31  33
BRANCH  28  38
ATOM     38  N   LIG    1      -21.255  76.841  29.189  0.00  0.00    -0.327 N 
ATOM     39  H   LIG    1      -21.325  77.318  28.300  0.00  0.00    +0.145 HD
ATOM     40  H   LIG    1      -20.637  77.243  29.879  0.00  0.00    +0.145 HD
ENDBRANCH  28  38
ENDBRANCH  22  24
ENDBRANCH   3  22
TORSDOF 8
ENDMDL
MODEL 5
REMARK VINA RESULT:      -6.1     19.940     23.276
REMARK  Name = pdb/CHEMBL3671468.pdb
REMARK                            x       y       z     vdW  Elec       q    Type
REMARK                         _______ _______ _______ _____ _____    ______ ____
ROOT
ATOM      1  C   LIG    1      -22.273  88.359  13.365  0.00  0.00    +0.052 A 
ATOM      2  C   LIG    1      -21.471  87.253  13.048  0.00  0.00    +0.038 A 
ATOM      3  C   LIG    1      -21.110  86.335  14.047  0.00  0.00    +0.042 A 
ATOM      4  C   LIG    1      -21.538  86.591  15.342  0.00  0.00    +0.122 A 
ATOM      5  N   LIG    1      -22.217  87.702  15.703  0.00  0.00    -0.261 NA
ATOM      6  C   LIG    1      -22.580  88.553  14.710  0.00  0.00    +0.134 A 
ENDROOT
BRANCH   1   8
ATOM      7  C   LIG    1      -23.789  88.875  11.443  0.00  0.00    +0.222 C 
ATOM      8  N   LIG    1      -22.740  89.182  12.309  0.00  0.00    -0.284 N 
ATOM      9  H   LIG    1      -22.142  89.957  12.050  0.00  0.00    +0.155 HD
ATOM     10  O   LIG    1      -24.445  87.836  11.477  0.00  0.00    -0.275 OA
BRANCH   7  11
ATOM     11  C   LIG    1      -23.995  89.930  10.355  0.00  0.00    +0.131 C 
BRANCH  11  14
ATOM     12  C   LIG    1      -26.004  92.570  12.256  0.00  0.00    +0.088 A 
ATOM     13  C   LIG    1      -25.528  91.327  11.830  0.00  0.00    +0.031 A 
ATOM     14  C   LIG    1      -24.524  91.260  10.852  0.00  0.00    -0.037 A 
ATOM     15  C   LIG    1      -24.025  92.457  10.317  0.00  0.00    +0.004 A 
ATOM     16  C   LIG    1      -24.516  93.695  10.743  0.00  0.00    +0.002 A 
ATOM     17  C   LIG    1      -25.513  93.761  11.719  0.00  0.00    +0.027 A 
BRANCH  12  19
ATOM     18  C   LIG    1      -27.075  94.225  14.248  0.00  0.00    +0.200 C 
ATOM     19  S   LIG    1      -27.299  92.644  13.480  0.00  0.00    -0.006 S 
ATOM     20  O   LIG    1      -28.577  92.659  12.793  0.00  0.00    -0.170 OA
ATOM     21  O   LIG    1      -26.991  91.613  14.469  0.00  0.00    -0.170 OA
ENDBRANCH  12  19
ENDBRANCH  11  14
ENDBRANCH   7  11
ENDBRANCH   1   8
BRANCH   3  22
ATOM     22  C   LIG    1      -20.381  85.085  13.706  0.00  0.00    +0.197 C 
ATOM     23  O   LIG    1      -19.162  85.148  13.564  0.00  0.00    -0.287 OA
BRANCH  22  24
ATOM     24  C   LIG    1      -21.114  83.830  13.517  0.00  0.00    +0.051 A 
ATOM     25  C   LIG    1      -21.665  83.261  12.321  0.00  0.00    +0.048 A 
ATOM     26  C   LIG    1      -21.760  83.615  10.977  0.00  0.00    +0.126 A 
ATOM     27  N   LIG    1      -22.263  82.737  10.084  0.00  0.00    -0.222 NA
ATOM     28  C   LIG    1      -22.736  81.565  10.525  0.00  0.00    +0.214 A 
ATOM     29  N   LIG    1      -22.764  81.154  11.793  0.00  0.00    -0.197 NA
ATOM     30  C   LIG    1      -22.223  82.034  12.653  0.00  0.00    +0.147 A 
ATOM     31  N   LIG    1      -22.131  81.895  14.012  0.00  0.00    -0.325 N 
ATOM     32  C   LIG    1      -21.416  82.937  14.542  0.00  0.00    +0.100 A 
BRANCH  31  33
ATOM     33  C   LIG    1      -22.710  80.858  14.756  0.00  0.00    +0.048 C 
ATOM     34  C   LIG    1      -22.193  79.387  14.945  0.00  0.00    +0.032 C 
ATOM     35  C   LIG    1      -23.372  79.628  16.017  0.00  0.00    -0.004 C 
ATOM     36  C   LIG    1      -24.228  80.611  15.064  0.00  0.00    +0.032 C 
ATOM     37  C   LIG    1      -22.566  80.943  16.321  0.00  0.00    +0.032 C 
ENDBRANCH  31  33
BRANCH  28  38
ATOM     38  N   LIG    1      -23.181  80.681   9.564  0.00  0.00    -0.327 N 
ATOM     39  H   LIG    1      -23.778  81.175   8.914  0.00  0.00    +0.145 HD
ATOM     40  H   LIG    1      -22.396  80.179   9.175  0.00  0.00    +0.145 HD
ENDBRANCH  28  38
ENDBRANCH  22  24
ENDBRANCH   3  22
TORSDOF 8
ENDMDL
MODEL 6
REMARK VINA RESULT:      -6.1     17.173     19.855
REMARK  Name = pdb/CHEMBL3671468.pdb
REMARK                            x       y       z     vdW  Elec       q    Type
REMARK                         _______ _______ _______ _____ _____    ______ ____
ROOT
ATOM      1  C   LIG    1      -19.449  79.173  16.127  0.00  0.00    +0.052 A 
ATOM      2  C   LIG    1      -19.375  77.807  15.818  0.00  0.00    +0.038 A 
ATOM      3  C   LIG    1      -18.130  77.159  15.783  0.00  0.00    +0.042 A 
ATOM      4  C   LIG    1      -16.998  77.925  16.021  0.00  0.00    +0.122 A 
ATOM      5  N   LIG    1      -17.023  79.262  16.213  0.00  0.00    -0.261 NA
ATOM      6  C   LIG    1      -18.243  79.855  16.274  0.00  0.00    +0.134 A 
ENDROOT
BRANCH   1   8
ATOM      7  C   LIG    1      -21.066  81.076  15.978  0.00  0.00    +0.222 C 
ATOM      8  N   LIG    1      -20.728  79.761  16.298  0.00  0.00    -0.284 N 
ATOM      9  H   LIG    1      -21.384  79.243  16.870  0.00  0.00    +0.155 HD
ATOM     10  O   LIG    1      -20.290  81.906  15.512  0.00  0.00    -0.275 OA
BRANCH   7  11
ATOM     11  C   LIG    1      -22.504  81.433  16.360  0.00  0.00    +0.131 C 
BRANCH  11  14
ATOM     12  C   LIG    1      -25.177  79.894  14.099  0.00  0.00    +0.088 A 
ATOM     13  C   LIG    1      -24.256  80.048  15.140  0.00  0.00    +0.031 A 
ATOM     14  C   LIG    1      -23.522  81.238  15.254  0.00  0.00    -0.037 A 
ATOM     15  C   LIG    1      -23.729  82.251  14.306  0.00  0.00    +0.004 A 
ATOM     16  C   LIG    1      -24.645  82.082  13.263  0.00  0.00    +0.002 A 
ATOM     17  C   LIG    1      -25.378  80.899  13.151  0.00  0.00    +0.027 A 
BRANCH  12  19
ATOM     18  C   LIG    1      -24.938  77.261  13.170  0.00  0.00    +0.200 C 
ATOM     19  S   LIG    1      -26.085  78.367  13.945  0.00  0.00    -0.006 S 
ATOM     20  O   LIG    1      -26.361  77.863  15.277  0.00  0.00    -0.170 OA
ATOM     21  O   LIG    1      -27.170  78.628  13.002  0.00  0.00    -0.170 OA
ENDBRANCH  12  19
ENDBRANCH  11  14
ENDBRANCH   7  11
ENDBRANCH   1   8
BRANCH   3  22
ATOM     22  C   LIG    1      -18.043  75.687  15.598  0.00  0.00    +0.197 C 
ATOM     23  O   LIG    1      -17.411  75.263  14.633  0.00  0.00    -0.287 OA
BRANCH  22  24
ATOM     24  C   LIG    1      -18.722  74.782  16.530  0.00  0.00    +0.051 A 
ATOM     25  C   LIG    1      -18.212  74.106  17.688  0.00  0.00    +0.048 A 
ATOM     26  C   LIG    1      -16.989  74.000  18.347  0.00  0.00    +0.126 A 
ATOM     27  N   LIG    1      -16.914  73.343  19.523  0.00  0.00    -0.222 NA
ATOM     28  C   LIG    1      -18.009  72.735  19.996  0.00  0.00    +0.214 A 
ATOM     29  N   LIG    1      -19.208  72.708  19.414  0.00  0.00    -0.197 NA
ATOM     30  C   LIG    1      -19.260  73.402  18.264  0.00  0.00    +0.147 A 
ATOM     31  N   LIG    1      -20.347  73.534  17.440  0.00  0.00    -0.325 N 
ATOM     32  C   LIG    1      -20.059  74.408  16.424  0.00  0.00    +0.100 A 
BRANCH  31  33
ATOM     33  C   LIG    1      -21.561  72.854  17.594  0.00  0.00    +0.048 C 
ATOM     34  C   LIG    1      -22.781  73.230  18.511  0.00  0.00    +0.032 C 
ATOM     35  C   LIG    1      -23.269  72.066  17.508  0.00  0.00    -0.004 C 
ATOM     36  C   LIG    1      -21.841  71.316  17.459  0.00  0.00    +0.032 C 
ATOM     37  C   LIG    1      -22.603  72.988  16.422  0.00  0.00    +0.032 C 
ENDBRANCH  31  33
BRANCH  28  38
ATOM     38  N   LIG    1      -17.892  72.131  21.231  0.00  0.00    -0.327 N 
ATOM     39  H   LIG    1      -18.173  72.790  21.946  0.00  0.00    +0.145 HD
ATOM     40  H   LIG    1      -18.364  71.239  21.219  0.00  0.00    +0.145 HD
ENDBRANCH  28  38
ENDBRANCH  22  24
ENDBRANCH   3  22
TORSDOF 8
ENDMDL
MODEL 7
REMARK VINA RESULT:      -6.1     20.015     23.356
REMARK  Name = pdb/CHEMBL3671468.pdb
REMARK                            x       y       z     vdW  Elec       q    Type
REMARK                         _______ _______ _______ _____ _____    ______ ____
ROOT
ATOM      1  C   LIG    1      -22.512  88.431  13.125  0.00  0.00    +0.052 A 
ATOM      2  C   LIG    1      -21.565  87.491  12.696  0.00  0.00    +0.038 A 
ATOM      3  C   LIG    1      -20.991  86.598  13.616  0.00  0.00    +0.042 A 
ATOM      4  C   LIG    1      -21.365  86.716  14.946  0.00  0.00    +0.122 A 
ATOM      5  N   LIG    1      -22.189  87.680  15.413  0.00  0.00    -0.261 NA
ATOM      6  C   LIG    1      -22.753  88.506  14.495  0.00  0.00    +0.134 A 
ENDROOT
BRANCH   1   8
ATOM      7  C   LIG    1      -24.248  88.794  11.360  0.00  0.00    +0.222 C 
ATOM      8  N   LIG    1      -23.178  89.216  12.150  0.00  0.00    -0.284 N 
ATOM      9  H   LIG    1      -22.716  90.075  11.877  0.00  0.00    +0.155 HD
ATOM     10  O   LIG    1      -24.750  87.673  11.402  0.00  0.00    -0.275 OA
BRANCH   7  11
ATOM     11  C   LIG    1      -24.691  89.846  10.342  0.00  0.00    +0.131 C 
BRANCH  11  14
ATOM     12  C   LIG    1      -26.358  92.596  12.410  0.00  0.00    +0.088 A 
ATOM     13  C   LIG    1      -26.052  91.333  11.894  0.00  0.00    +0.031 A 
ATOM     14  C   LIG    1      -25.038  91.197  10.934  0.00  0.00    -0.037 A 
ATOM     15  C   LIG    1      -24.356  92.345  10.508  0.00  0.00    +0.004 A 
ATOM     16  C   LIG    1      -24.677  93.605  11.022  0.00  0.00    +0.002 A 
ATOM     17  C   LIG    1      -25.684  93.740  11.980  0.00  0.00    +0.027 A 
BRANCH  12  19
ATOM     18  C   LIG    1      -27.346  94.328  14.378  0.00  0.00    +0.200 C 
ATOM     19  S   LIG    1      -27.667  92.765  13.609  0.00  0.00    -0.006 S 
ATOM     20  O   LIG    1      -28.928  92.867  12.899  0.00  0.00    -0.170 OA
ATOM     21  O   LIG    1      -27.449  91.718  14.605  0.00  0.00    -0.170 OA
ENDBRANCH  12  19
ENDBRANCH  11  14
ENDBRANCH   7  11
ENDBRANCH   1   8
BRANCH   3  22
ATOM     22  C   LIG    1      -20.095  85.505  13.158  0.00  0.00    +0.197 C 
ATOM     23  O   LIG    1      -19.275  85.760  12.278  0.00  0.00    -0.287 OA
BRANCH  22  24
ATOM     24  C   LIG    1      -20.218  84.159  13.726  0.00  0.00    +0.051 A 
ATOM     25  C   LIG    1      -19.214  83.156  13.934  0.00  0.00    +0.048 A 
ATOM     26  C   LIG    1      -17.849  83.020  13.696  0.00  0.00    +0.126 A 
ATOM     27  N   LIG    1      -17.191  81.934  14.155  0.00  0.00    -0.222 NA
ATOM     28  C   LIG    1      -17.885  80.968  14.768  0.00  0.00    +0.214 A 
ATOM     29  N   LIG    1      -19.201  80.960  14.983  0.00  0.00    -0.197 NA
ATOM     30  C   LIG    1      -19.822  82.069  14.547  0.00  0.00    +0.147 A 
ATOM     31  N   LIG    1      -21.165  82.331  14.612  0.00  0.00    -0.325 N 
ATOM     32  C   LIG    1      -21.414  83.606  14.177  0.00  0.00    +0.100 A 
BRANCH  31  33
ATOM     33  C   LIG    1      -22.143  81.419  15.030  0.00  0.00    +0.048 C 
ATOM     34  C   LIG    1      -22.083  79.850  15.017  0.00  0.00    +0.032 C 
ATOM     35  C   LIG    1      -23.364  80.279  15.897  0.00  0.00    -0.004 C 
ATOM     36  C   LIG    1      -23.702  81.591  15.021  0.00  0.00    +0.032 C 
ATOM     37  C   LIG    1      -22.329  81.242  16.583  0.00  0.00    +0.032 C 
ENDBRANCH  31  33
BRANCH  28  38
ATOM     38  N   LIG    1      -17.155  79.912  15.273  0.00  0.00    -0.327 N 
ATOM     39  H   LIG    1      -16.864  79.318  14.508  0.00  0.00    +0.145 HD
ATOM     40  H   LIG    1      -16.431  80.261  15.884  0.00  0.00    +0.145 HD
ENDBRANCH  28  38
ENDBRANCH  22  24
ENDBRANCH   3  22
TORSDOF 8
ENDMDL
MODEL 8
REMARK VINA RESULT:      -6.1      3.584      5.127
REMARK  Name = pdb/CHEMBL3671468.pdb
REMARK                            x       y       z     vdW  Elec       q    Type
REMARK                         _______ _______ _______ _____ _____    ______ ____
ROOT
ATOM      1  C   LIG    1      -33.928  69.792  28.054  0.00  0.00    +0.052 A 
ATOM      2  C   LIG    1      -34.808  70.800  28.474  0.00  0.00    +0.038 A 
ATOM      3  C   LIG    1      -34.348  71.838  29.301  0.00  0.00    +0.042 A 
ATOM      4  C   LIG    1      -33.023  71.796  29.709  0.00  0.00    +0.122 A 
ATOM      5  N   LIG    1      -32.178  70.784  29.416  0.00  0.00    -0.261 NA
ATOM      6  C   LIG    1      -32.641  69.814  28.588  0.00  0.00    +0.134 A 
ENDROOT
BRANCH   1   8
ATOM      7  C   LIG    1      -34.291  68.973  25.719  0.00  0.00    +0.222 C 
ATOM      8  N   LIG    1      -34.387  68.845  27.104  0.00  0.00    -0.284 N 
ATOM      9  H   LIG    1      -34.997  68.118  27.458  0.00  0.00    +0.155 HD
ATOM     10  O   LIG    1      -33.801  69.937  25.137  0.00  0.00    -0.275 OA
BRANCH   7  11
ATOM     11  C   LIG    1      -34.956  67.820  24.965  0.00  0.00    +0.131 C 
BRANCH  11  14
ATOM     12  C   LIG    1      -37.995  69.424  23.288  0.00  0.00    +0.088 A 
ATOM     13  C   LIG    1      -37.063  69.063  24.265  0.00  0.00    +0.031 A 
ATOM     14  C   LIG    1      -35.976  68.244  23.927  0.00  0.00    -0.037 A 
ATOM     15  C   LIG    1      -35.855  67.798  22.603  0.00  0.00    +0.004 A 
ATOM     16  C   LIG    1      -36.799  68.157  21.635  0.00  0.00    +0.002 A 
ATOM     17  C   LIG    1      -37.879  68.974  21.971  0.00  0.00    +0.027 A 
BRANCH  12  19
ATOM     18  C   LIG    1      -40.100  69.614  25.127  0.00  0.00    +0.200 C 
ATOM     19  S   LIG    1      -39.389  70.443  23.732  0.00  0.00    -0.006 S 
ATOM     20  O   LIG    1      -38.890  71.728  24.184  0.00  0.00    -0.170 OA
ATOM     21  O   LIG    1      -40.334  70.354  22.622  0.00  0.00    -0.170 OA
ENDBRANCH  12  19
ENDBRANCH  11  14
ENDBRANCH   7  11
ENDBRANCH   1   8
BRANCH   3  22
ATOM     22  C   LIG    1      -35.227  72.988  29.640  0.00  0.00    +0.197 C 
ATOM     23  O   LIG    1      -35.831  72.958  30.709  0.00  0.00    -0.287 OA
BRANCH  22  24
ATOM     24  C   LIG    1      -35.381  74.102  28.700  0.00  0.00    +0.051 A 
ATOM     25  C   LIG    1      -34.460  75.146  28.357  0.00  0.00    +0.048 A 
ATOM     26  C   LIG    1      -33.176  75.534  28.733  0.00  0.00    +0.126 A 
ATOM     27  N   LIG    1      -32.558  76.540  28.080  0.00  0.00    -0.222 NA
ATOM     28  C   LIG    1      -33.227  77.200  27.128  0.00  0.00    +0.214 A 
ATOM     29  N   LIG    1      -34.481  76.965  26.738  0.00  0.00    -0.197 NA
ATOM     30  C   LIG    1      -35.056  75.935  27.382  0.00  0.00    +0.147 A 
ATOM     31  N   LIG    1      -36.335  75.477  27.208  0.00  0.00    -0.325 N 
ATOM     32  C   LIG    1      -36.529  74.341  27.949  0.00  0.00    +0.100 A 
BRANCH  31  33
ATOM     33  C   LIG    1      -37.311  76.096  26.416  0.00  0.00    +0.048 C 
ATOM     34  C   LIG    1      -37.455  76.074  24.852  0.00  0.00    +0.032 C 
ATOM     35  C   LIG    1      -38.819  76.686  25.457  0.00  0.00    -0.004 C 
ATOM     36  C   LIG    1      -38.102  77.419  26.703  0.00  0.00    +0.032 C 
ATOM     37  C   LIG    1      -38.737  75.431  26.400  0.00  0.00    +0.032 C 
ENDBRANCH  31  33
BRANCH  28  38
ATOM     38  N   LIG    1      -32.528  78.177  26.449  0.00  0.00    -0.327 N 
ATOM     39  H   LIG    1      -31.924  77.735  25.767  0.00  0.00    +0.145 HD
ATOM     40  H   LIG    1      -33.168  78.879  26.108  0.00  0.00    +0.145 HD
ENDBRANCH  28  38
ENDBRANCH  22  24
ENDBRANCH   3  22
TORSDOF 8
ENDMDL
MODEL 9
REMARK VINA RESULT:      -6.0      8.387     10.466
REMARK  Name = pdb/CHEMBL3671468.pdb
REMARK                            x       y       z     vdW  Elec       q    Type
REMARK                         _______ _______ _______ _____ _____    ______ ____
ROOT
ATOM      1  C   LIG    1      -28.522  75.714  31.925  0.00  0.00    +0.052 A 
ATOM      2  C   LIG    1      -27.659  76.782  31.639  0.00  0.00    +0.038 A 
ATOM      3  C   LIG    1      -26.273  76.567  31.565  0.00  0.00    +0.042 A 
ATOM      4  C   LIG    1      -25.805  75.287  31.826  0.00  0.00    +0.122 A 
ATOM      5  N   LIG    1      -26.596  74.262  32.212  0.00  0.00    -0.261 NA
ATOM      6  C   LIG    1      -27.934  74.492  32.241  0.00  0.00    +0.134 A 
ENDROOT
BRANCH   1   8
ATOM      7  C   LIG    1      -30.873  75.436  32.735  0.00  0.00    +0.222 C 
ATOM      8  N   LIG    1      -29.921  75.935  31.846  0.00  0.00    -0.284 N 
ATOM      9  H   LIG    1      -30.263  76.321  30.975  0.00  0.00    +0.155 HD
ATOM     10  O   LIG    1      -30.621  74.726  33.706  0.00  0.00    -0.275 OA
BRANCH   7  11
ATOM     11  C   LIG    1      -32.307  75.779  32.330  0.00  0.00    +0.131 C 
BRANCH  11  14
ATOM     12  C   LIG    1      -33.232  76.017  28.628  0.00  0.00    +0.088 A 
ATOM     13  C   LIG    1      -32.883  76.391  29.928  0.00  0.00    +0.031 A 
ATOM     14  C   LIG    1      -32.671  75.409  30.906  0.00  0.00    -0.037 A 
ATOM     15  C   LIG    1      -32.823  74.060  30.550  0.00  0.00    +0.004 A 
ATOM     16  C   LIG    1      -33.183  73.697  29.249  0.00  0.00    +0.002 A 
ATOM     17  C   LIG    1      -33.391  74.675  28.275  0.00  0.00    +0.027 A 
BRANCH  12  19
ATOM     18  C   LIG    1      -33.637  78.774  28.334  0.00  0.00    +0.200 C 
ATOM     19  S   LIG    1      -33.527  77.273  27.397  0.00  0.00    -0.006 S 
ATOM     20  O   LIG    1      -32.355  77.364  26.546  0.00  0.00    -0.170 OA
ATOM     21  O   LIG    1      -34.845  76.995  26.832  0.00  0.00    -0.170 OA
ENDBRANCH  12  19
ENDBRANCH  11  14
ENDBRANCH   7  11
ENDBRANCH   1   8
BRANCH   3  22
ATOM     22  C   LIG    1      -25.357  77.651  31.125  0.00  0.00    +0.197 C 
ATOM     23  O   LIG    1      -25.778  78.467  30.309  0.00  0.00    -0.287 OA
BRANCH  22  24
ATOM     24  C   LIG    1      -23.984  77.712  31.635  0.00  0.00    +0.051 A 
ATOM     25  C   LIG    1      -22.765  77.239  31.046  0.00  0.00    +0.048 A 
ATOM     26  C   LIG    1      -22.391  76.570  29.882  0.00  0.00    +0.126 A 
ATOM     27  N   LIG    1      -21.083  76.394  29.599  0.00  0.00    -0.222 NA
ATOM     28  C   LIG    1      -20.168  76.800  30.487  0.00  0.00    +0.214 A 
ATOM     29  N   LIG    1      -20.414  77.381  31.662  0.00  0.00    -0.197 NA
ATOM     30  C   LIG    1      -21.722  77.575  31.899  0.00  0.00    +0.147 A 
ATOM     31  N   LIG    1      -22.274  78.128  33.024  0.00  0.00    -0.325 N 
ATOM     32  C   LIG    1      -23.627  78.272  32.859  0.00  0.00    +0.100 A 
BRANCH  31  33
ATOM     33  C   LIG    1      -21.566  78.467  34.184  0.00  0.00    +0.048 C 
ATOM     34  C   LIG    1      -20.429  79.538  34.356  0.00  0.00    +0.032 C 
ATOM     35  C   LIG    1      -20.890  79.079  35.831  0.00  0.00    -0.004 C 
ATOM     36  C   LIG    1      -21.209  77.554  35.409  0.00  0.00    +0.032 C 
ATOM     37  C   LIG    1      -22.329  79.336  35.252  0.00  0.00    +0.032 C 
ENDBRANCH  31  33
BRANCH  28  38
ATOM     38  N   LIG    1      -18.846  76.652  30.119  0.00  0.00    -0.327 N 
ATOM     39  H   LIG    1      -18.261  76.813  30.929  0.00  0.00    +0.145 HD
ATOM     40  H   LIG    1      -18.725  75.776  29.632  0.00  0.00    +0.145 HD
ENDBRANCH  28  38
ENDBRANCH  22  24
ENDBRANCH   3  22
TORSDOF 8
ENDMDL
