MODEL 1
REMARK VINA RESULT:      -6.7      0.000      0.000
REMARK  Name = pdb/CHEMBL3968335.pdb
REMARK                            x       y       z     vdW  Elec       q    Type
REMARK                         _______ _______ _______ _____ _____    ______ ____
ROOT
ATOM      1  C   LIG    1      -22.522  83.069  15.020  0.00  0.00    +0.149 A 
ATOM      2  N   LIG    1      -23.581  82.483  14.437  0.00  0.00    -0.160 NA
ATOM      3  N   LIG    1      -23.476  81.162  14.739  0.00  0.00    -0.218 N 
ATOM      4  C   LIG    1      -22.272  80.881  15.392  0.00  0.00    +0.129 A 
ATOM      5  C   LIG    1      -21.669  82.101  15.606  0.00  0.00    +0.078 A 
ENDROOT
BRANCH   3   6
ATOM      6  C   LIG    1      -24.517  80.268  14.348  0.00  0.00    +0.067 A 
ATOM      7  C   LIG    1      -25.157  79.442  15.279  0.00  0.00    +0.028 A 
ATOM      8  C   LIG    1      -26.186  78.587  14.876  0.00  0.00    +0.002 A 
ATOM      9  C   LIG    1      -26.603  78.567  13.547  0.00  0.00    +0.000 A 
ATOM     10  C   LIG    1      -25.981  79.392  12.613  0.00  0.00    +0.002 A 
ATOM     11  C   LIG    1      -24.942  80.244  13.008  0.00  0.00    +0.028 A 
ENDBRANCH   3   6
BRANCH   4  12
ATOM     12  N   LIG    1      -21.724  79.635  15.717  0.00  0.00    -0.266 N 
ATOM     13  H   LIG    1      -21.834  79.311  16.673  0.00  0.00    +0.157 HD
ATOM     14  C   LIG    1      -21.185  78.702  14.762  0.00  0.00    +0.251 C 
ATOM     15  O   LIG    1      -21.179  78.963  13.555  0.00  0.00    -0.270 OA
BRANCH  14  16
ATOM     16  C   LIG    1      -20.667  77.411  15.265  0.00  0.00    +0.056 A 
ATOM     17  C   LIG    1      -19.365  77.227  15.747  0.00  0.00    +0.054 A 
ATOM     18 CL   LIG    1      -18.158  78.459  15.765  0.00  0.00    -0.083 Cl
ATOM     19  C   LIG    1      -19.001  76.007  16.307  0.00  0.00    +0.041 A 
ATOM     20  C   LIG    1      -19.910  74.941  16.392  0.00  0.00    +0.052 A 
ATOM     21 CL   LIG    1      -19.359  73.606  17.345  0.00  0.00    -0.083 Cl
ATOM     22  C   LIG    1      -21.199  75.037  15.831  0.00  0.00    +0.022 A 
ATOM     23  C   LIG    1      -21.553  76.311  15.308  0.00  0.00    +0.026 A 
BRANCH  22  24
ATOM     24  C   LIG    1      -22.195  73.929  15.772  0.00  0.00    +0.107 A 
ATOM     25  C   LIG    1      -23.076  73.580  16.802  0.00  0.00    +0.149 A 
ATOM     26  F   LIG    1      -23.052  74.189  17.995  0.00  0.00    -0.203 F 
ATOM     27  C   LIG    1      -23.966  72.521  16.641  0.00  0.00    +0.042 A 
ATOM     28  C   LIG    1      -23.923  71.773  15.475  0.00  0.00    +0.023 A 
ATOM     29  C   LIG    1      -22.992  72.127  14.515  0.00  0.00    +0.111 A 
ATOM     30  N   LIG    1      -22.145  73.182  14.631  0.00  0.00    -0.252 NA
ENDBRANCH  22  24
ENDBRANCH  14  16
ENDBRANCH   4  12
BRANCH   1  32
ATOM     31  N   LIG    1      -21.574  85.021  14.071  0.00  0.00    -0.208 NA
ATOM     32  C   LIG    1      -22.292  84.517  15.021  0.00  0.00    +0.241 C 
BRANCH  31  35
ATOM     33  C   LIG    1      -23.283  87.263  12.390  0.00  0.00    +0.070 C 
ATOM     34  C   LIG    1      -22.070  87.384  13.237  0.00  0.00    +0.085 A 
ATOM     35  C   LIG    1      -21.386  86.398  13.989  0.00  0.00    +0.108 A 
ATOM     36  C   LIG    1      -20.297  87.033  14.525  0.00  0.00    +0.133 A 
ATOM     37  N   LIG    1      -20.391  88.331  14.117  0.00  0.00    -0.282 N 
ATOM     38  H   LIG    1      -19.745  89.095  14.292  0.00  0.00    +0.188 HD
ATOM     39  N   LIG    1      -21.484  88.582  13.377  0.00  0.00    -0.177 NA
ENDBRANCH  31  35
BRANCH  32  40
ATOM     40  O   LIG    1      -22.841  85.186  16.059  0.00  0.00    -0.491 OA
ATOM     41  H   LIG    1      -23.804  85.222  15.986  0.00  0.00    +0.294 HD
ENDBRANCH  32  40
ENDBRANCH   1  32
TORSDOF 7
ENDMDL
MODEL 2
REMARK VINA RESULT:      -6.5     18.086     19.560
REMARK  Name = pdb/CHEMBL3968335.pdb
REMARK                            x       y       z     vdW  Elec       q    Type
REMARK                         _______ _______ _______ _____ _____    ______ ____
ROOT
ATOM      1  C   LIG    1      -37.219  79.839  27.565  0.00  0.00    +0.149 A 
ATOM      2  N   LIG    1      -36.244  79.119  28.146  0.00  0.00    -0.160 NA
ATOM      3  N   LIG    1      -36.423  77.846  27.704  0.00  0.00    -0.218 N 
ATOM      4  C   LIG    1      -37.599  77.724  26.957  0.00  0.00    +0.129 A 
ATOM      5  C   LIG    1      -38.098  79.002  26.835  0.00  0.00    +0.078 A 
ENDROOT
BRANCH   3   6
ATOM      6  C   LIG    1      -35.477  76.839  28.061  0.00  0.00    +0.067 A 
ATOM      7  C   LIG    1      -35.696  75.986  29.148  0.00  0.00    +0.028 A 
ATOM      8  C   LIG    1      -34.763  74.996  29.468  0.00  0.00    +0.002 A 
ATOM      9  C   LIG    1      -33.619  74.831  28.692  0.00  0.00    +0.000 A 
ATOM     10  C   LIG    1      -33.395  75.667  27.601  0.00  0.00    +0.002 A 
ATOM     11  C   LIG    1      -34.320  76.668  27.281  0.00  0.00    +0.028 A 
ENDBRANCH   3   6
BRANCH   4  12
ATOM     12  N   LIG    1      -38.212  76.563  26.475  0.00  0.00    -0.266 N 
ATOM     13  H   LIG    1      -38.998  76.195  27.003  0.00  0.00    +0.157 HD
ATOM     14  C   LIG    1      -37.936  75.959  25.197  0.00  0.00    +0.251 C 
ATOM     15  O   LIG    1      -37.111  76.457  24.426  0.00  0.00    -0.270 OA
BRANCH  14  16
ATOM     16  C   LIG    1      -38.693  74.744  24.824  0.00  0.00    +0.056 A 
ATOM     17  C   LIG    1      -39.940  74.766  24.187  0.00  0.00    +0.054 A 
ATOM     18 CL   LIG    1      -40.803  76.209  23.802  0.00  0.00    -0.083 Cl
ATOM     19  C   LIG    1      -40.525  73.575  23.770  0.00  0.00    +0.041 A 
ATOM     20  C   LIG    1      -39.898  72.338  23.985  0.00  0.00    +0.052 A 
ATOM     21 CL   LIG    1      -40.648  71.006  23.175  0.00  0.00    -0.083 Cl
ATOM     22  C   LIG    1      -38.693  72.249  24.711  0.00  0.00    +0.022 A 
ATOM     23  C   LIG    1      -38.100  73.486  25.081  0.00  0.00    +0.026 A 
BRANCH  22  24
ATOM     24  C   LIG    1      -38.008  70.978  25.085  0.00  0.00    +0.107 A 
ATOM     25  C   LIG    1      -37.426  70.080  24.184  0.00  0.00    +0.149 A 
ATOM     26  F   LIG    1      -37.496  70.256  22.858  0.00  0.00    -0.203 F 
ATOM     27  C   LIG    1      -36.813  68.917  24.644  0.00  0.00    +0.042 A 
ATOM     28  C   LIG    1      -36.844  68.625  25.999  0.00  0.00    +0.023 A 
ATOM     29  C   LIG    1      -37.485  69.521  26.836  0.00  0.00    +0.111 A 
ATOM     30  N   LIG    1      -38.051  70.681  26.416  0.00  0.00    -0.252 NA
ENDBRANCH  22  24
ENDBRANCH  14  16
ENDBRANCH   4  12
BRANCH   1  32
ATOM     31  N   LIG    1      -36.260  81.990  27.826  0.00  0.00    -0.208 NA
ATOM     32  C   LIG    1      -37.344  81.294  27.699  0.00  0.00    +0.241 C 
BRANCH  31  35
ATOM     33  C   LIG    1      -36.278  84.184  25.385  0.00  0.00    +0.070 C 
ATOM     34  C   LIG    1      -36.281  84.354  26.859  0.00  0.00    +0.085 A 
ATOM     35  C   LIG    1      -36.322  83.379  27.886  0.00  0.00    +0.108 A 
ATOM     36  C   LIG    1      -36.237  84.077  29.061  0.00  0.00    +0.133 A 
ATOM     37  N   LIG    1      -36.186  85.393  28.705  0.00  0.00    -0.282 N 
ATOM     38  H   LIG    1      -36.087  86.205  29.306  0.00  0.00    +0.188 HD
ATOM     39  N   LIG    1      -36.263  85.591  27.378  0.00  0.00    -0.177 NA
ENDBRANCH  31  35
BRANCH  32  40
ATOM     40  O   LIG    1      -38.610  81.764  27.711  0.00  0.00    -0.491 OA
ATOM     41  H   LIG    1      -39.090  81.504  26.913  0.00  0.00    +0.294 HD
ENDBRANCH  32  40
ENDBRANCH   1  32
TORSDOF 7
ENDMDL
MODEL 3
REMARK VINA RESULT:      -6.4     18.459     20.986
REMARK  Name = pdb/CHEMBL3968335.pdb
REMARK                            x       y       z     vdW  Elec       q    Type
REMARK                         _______ _______ _______ _____ _____    ______ ____
ROOT
ATOM      1  C   LIG    1      -37.110  76.266  26.057  0.00  0.00    +0.149 A 
ATOM      2  N   LIG    1      -37.794  77.397  25.811  0.00  0.00    -0.160 NA
ATOM      3  N   LIG    1      -38.906  77.008  25.134  0.00  0.00    -0.218 N 
ATOM      4  C   LIG    1      -38.864  75.646  24.819  0.00  0.00    +0.129 A 
ATOM      5  C   LIG    1      -37.733  75.156  25.434  0.00  0.00    +0.078 A 
ENDROOT
BRANCH   3   6
ATOM      6  C   LIG    1      -39.904  77.975  24.810  0.00  0.00    +0.067 A 
ATOM      7  C   LIG    1      -41.226  77.833  25.248  0.00  0.00    +0.028 A 
ATOM      8  C   LIG    1      -42.182  78.802  24.933  0.00  0.00    +0.002 A 
ATOM      9  C   LIG    1      -41.824  79.932  24.203  0.00  0.00    +0.000 A 
ATOM     10  C   LIG    1      -40.509  80.090  23.771  0.00  0.00    +0.002 A 
ATOM     11  C   LIG    1      -39.548  79.118  24.074  0.00  0.00    +0.028 A 
ENDBRANCH   3   6
BRANCH   4  12
ATOM     12  N   LIG    1      -39.727  74.912  23.999  0.00  0.00    -0.266 N 
ATOM     13  H   LIG    1      -39.460  74.794  23.026  0.00  0.00    +0.157 HD
ATOM     14  C   LIG    1      -40.860  74.158  24.468  0.00  0.00    +0.251 C 
ATOM     15  O   LIG    1      -41.141  74.117  25.670  0.00  0.00    -0.270 OA
BRANCH  14  16
ATOM     16  C   LIG    1      -41.659  73.410  23.473  0.00  0.00    +0.056 A 
ATOM     17  C   LIG    1      -42.743  73.954  22.774  0.00  0.00    +0.054 A 
ATOM     18 CL   LIG    1      -43.344  75.553  23.017  0.00  0.00    -0.083 Cl
ATOM     19  C   LIG    1      -43.364  73.213  21.773  0.00  0.00    +0.041 A 
ATOM     20  C   LIG    1      -42.935  71.916  21.452  0.00  0.00    +0.052 A 
ATOM     21 CL   LIG    1      -43.654  71.260  20.021  0.00  0.00    -0.083 Cl
ATOM     22  C   LIG    1      -41.917  71.281  22.191  0.00  0.00    +0.022 A 
ATOM     23  C   LIG    1      -41.275  72.082  23.174  0.00  0.00    +0.026 A 
BRANCH  22  24
ATOM     24  C   LIG    1      -41.467  69.872  21.999  0.00  0.00    +0.107 A 
ATOM     25  C   LIG    1      -42.263  68.739  22.198  0.00  0.00    +0.149 A 
ATOM     26  F   LIG    1      -43.518  68.821  22.658  0.00  0.00    -0.203 F 
ATOM     27  C   LIG    1      -41.739  67.465  21.992  0.00  0.00    +0.042 A 
ATOM     28  C   LIG    1      -40.401  67.329  21.654  0.00  0.00    +0.023 A 
ATOM     29  C   LIG    1      -39.648  68.484  21.528  0.00  0.00    +0.111 A 
ATOM     30  N   LIG    1      -40.147  69.736  21.681  0.00  0.00    -0.252 NA
ENDBRANCH  22  24
ENDBRANCH  14  16
ENDBRANCH   4  12
BRANCH   1  32
ATOM     31  N   LIG    1      -35.318  77.336  27.175  0.00  0.00    -0.208 NA
ATOM     32  C   LIG    1      -35.879  76.217  26.851  0.00  0.00    +0.241 C 
BRANCH  31  35
ATOM     33  C   LIG    1      -32.159  77.683  26.351  0.00  0.00    +0.070 C 
ATOM     34  C   LIG    1      -32.812  77.440  27.662  0.00  0.00    +0.085 A 
ATOM     35  C   LIG    1      -34.187  77.344  27.987  0.00  0.00    +0.108 A 
ATOM     36  C   LIG    1      -34.229  77.046  29.324  0.00  0.00    +0.133 A 
ATOM     37  N   LIG    1      -32.929  77.013  29.734  0.00  0.00    -0.282 N 
ATOM     38  H   LIG    1      -32.565  76.792  30.656  0.00  0.00    +0.188 HD
ATOM     39  N   LIG    1      -32.052  77.299  28.757  0.00  0.00    -0.177 NA
ENDBRANCH  31  35
BRANCH  32  40
ATOM     40  O   LIG    1      -35.429  74.976  27.139  0.00  0.00    -0.491 OA
ATOM     41  H   LIG    1      -36.049  74.298  26.838  0.00  0.00    +0.294 HD
ENDBRANCH  32  40
ENDBRANCH   1  32
TORSDOF 7
ENDMDL
MODEL 4
REMARK VINA RESULT:      -6.4      5.842      8.612
REMARK  Name = pdb/CHEMBL3968335.pdb
REMARK                            x       y       z     vdW  Elec       q    Type
REMARK                         _______ _______ _______ _____ _____    ______ ____
ROOT
ATOM      1  C   LIG    1      -28.663  77.902  12.261  0.00  0.00    +0.149 A 
ATOM      2  N   LIG    1      -27.616  78.573  12.771  0.00  0.00    -0.160 NA
ATOM      3  N   LIG    1      -26.943  77.670  13.531  0.00  0.00    -0.218 N 
ATOM      4  C   LIG    1      -27.639  76.460  13.626  0.00  0.00    +0.129 A 
ATOM      5  C   LIG    1      -28.725  76.589  12.790  0.00  0.00    +0.078 A 
ENDROOT
BRANCH   3   6
ATOM      6  C   LIG    1      -25.707  78.045  14.137  0.00  0.00    +0.067 A 
ATOM      7  C   LIG    1      -25.652  79.018  15.141  0.00  0.00    +0.028 A 
ATOM      8  C   LIG    1      -24.432  79.356  15.732  0.00  0.00    +0.002 A 
ATOM      9  C   LIG    1      -23.261  78.709  15.347  0.00  0.00    +0.000 A 
ATOM     10  C   LIG    1      -23.304  77.730  14.356  0.00  0.00    +0.002 A 
ATOM     11  C   LIG    1      -24.521  77.394  13.753  0.00  0.00    +0.028 A 
ENDBRANCH   3   6
BRANCH   4  12
ATOM     12  N   LIG    1      -27.364  75.355  14.438  0.00  0.00    -0.266 N 
ATOM     13  H   LIG    1      -27.852  75.296  15.327  0.00  0.00    +0.157 HD
ATOM     14  C   LIG    1      -26.591  74.210  14.032  0.00  0.00    +0.251 C 
ATOM     15  O   LIG    1      -26.111  74.141  12.897  0.00  0.00    -0.270 OA
BRANCH  14  16
ATOM     16  C   LIG    1      -26.416  73.109  15.004  0.00  0.00    +0.056 A 
ATOM     17  C   LIG    1      -25.171  72.684  15.485  0.00  0.00    +0.054 A 
ATOM     18 CL   LIG    1      -23.661  73.339  14.970  0.00  0.00    -0.083 Cl
ATOM     19  C   LIG    1      -25.110  71.717  16.484  0.00  0.00    +0.041 A 
ATOM     20  C   LIG    1      -26.273  71.142  17.017  0.00  0.00    +0.052 A 
ATOM     21 CL   LIG    1      -26.007  70.158  18.416  0.00  0.00    -0.083 Cl
ATOM     22  C   LIG    1      -27.545  71.457  16.499  0.00  0.00    +0.022 A 
ATOM     23  C   LIG    1      -27.575  72.480  15.513  0.00  0.00    +0.026 A 
BRANCH  22  24
ATOM     24  C   LIG    1      -28.826  70.820  16.921  0.00  0.00    +0.107 A 
ATOM     25  C   LIG    1      -29.774  71.403  17.770  0.00  0.00    +0.149 A 
ATOM     26  F   LIG    1      -29.574  72.593  18.350  0.00  0.00    -0.203 F 
ATOM     27  C   LIG    1      -30.939  70.716  18.102  0.00  0.00    +0.042 A 
ATOM     28  C   LIG    1      -31.118  69.422  17.637  0.00  0.00    +0.023 A 
ATOM     29  C   LIG    1      -30.120  68.876  16.849  0.00  0.00    +0.111 A 
ATOM     30  N   LIG    1      -28.998  69.542  16.477  0.00  0.00    -0.252 NA
ENDBRANCH  22  24
ENDBRANCH  14  16
ENDBRANCH   4  12
BRANCH   1  32
ATOM     31  N   LIG    1      -30.689  79.023  11.764  0.00  0.00    -0.208 NA
ATOM     32  C   LIG    1      -29.610  78.480  11.303  0.00  0.00    +0.241 C 
BRANCH  31  35
ATOM     33  C   LIG    1      -33.231  77.754  10.119  0.00  0.00    +0.070 C 
ATOM     34  C   LIG    1      -32.657  79.123  10.138  0.00  0.00    +0.085 A 
ATOM     35  C   LIG    1      -31.585  79.647  10.901  0.00  0.00    +0.108 A 
ATOM     36  C   LIG    1      -31.431  80.942  10.479  0.00  0.00    +0.133 A 
ATOM     37  N   LIG    1      -32.404  81.141   9.544  0.00  0.00    -0.282 N 
ATOM     38  H   LIG    1      -32.580  81.971   8.987  0.00  0.00    +0.188 HD
ATOM     39  N   LIG    1      -33.193  80.070   9.355  0.00  0.00    -0.177 NA
ENDBRANCH  31  35
BRANCH  32  40
ATOM     40  O   LIG    1      -29.263  78.353  10.003  0.00  0.00    -0.491 OA
ATOM     41  H   LIG    1      -28.886  79.173   9.657  0.00  0.00    +0.294 HD
ENDBRANCH  32  40
ENDBRANCH   1  32
TORSDOF 7
ENDMDL
MODEL 5
REMARK VINA RESULT:      -6.4     17.816     21.505
REMARK  Name = pdb/CHEMBL3968335.pdb
REMARK                            x       y       z     vdW  Elec       q    Type
REMARK                         _______ _______ _______ _____ _____    ______ ____
ROOT
ATOM      1  C   LIG    1      -39.837  71.604  24.049  0.00  0.00    +0.149 A 
ATOM      2  N   LIG    1      -40.261  72.871  23.910  0.00  0.00    -0.160 NA
ATOM      3  N   LIG    1      -39.262  73.645  24.411  0.00  0.00    -0.218 N 
ATOM      4  C   LIG    1      -38.261  72.868  25.004  0.00  0.00    +0.129 A 
ATOM      5  C   LIG    1      -38.605  71.559  24.748  0.00  0.00    +0.078 A 
ENDROOT
BRANCH   3   6
ATOM      6  C   LIG    1      -39.360  75.065  24.317  0.00  0.00    +0.067 A 
ATOM      7  C   LIG    1      -38.280  75.893  24.644  0.00  0.00    +0.028 A 
ATOM      8  C   LIG    1      -38.393  77.281  24.526  0.00  0.00    +0.002 A 
ATOM      9  C   LIG    1      -39.573  77.853  24.058  0.00  0.00    +0.000 A 
ATOM     10  C   LIG    1      -40.651  77.039  23.719  0.00  0.00    +0.002 A 
ATOM     11  C   LIG    1      -40.548  75.648  23.844  0.00  0.00    +0.028 A 
ENDBRANCH   3   6
BRANCH   4  12
ATOM     12  N   LIG    1      -37.165  73.287  25.764  0.00  0.00    -0.266 N 
ATOM     13  H   LIG    1      -36.319  73.543  25.263  0.00  0.00    +0.157 HD
ATOM     14  C   LIG    1      -37.202  73.561  27.177  0.00  0.00    +0.251 C 
ATOM     15  O   LIG    1      -38.249  73.436  27.819  0.00  0.00    -0.270 OA
BRANCH  14  16
ATOM     16  C   LIG    1      -35.958  74.025  27.829  0.00  0.00    +0.056 A 
ATOM     17  C   LIG    1      -35.112  73.195  28.574  0.00  0.00    +0.054 A 
ATOM     18 CL   LIG    1      -35.426  71.529  28.892  0.00  0.00    -0.083 Cl
ATOM     19  C   LIG    1      -33.904  73.691  29.056  0.00  0.00    +0.041 A 
ATOM     20  C   LIG    1      -33.515  75.019  28.822  0.00  0.00    +0.052 A 
ATOM     21 CL   LIG    1      -31.882  75.374  29.271  0.00  0.00    -0.083 Cl
ATOM     22  C   LIG    1      -34.373  75.925  28.168  0.00  0.00    +0.022 A 
ATOM     23  C   LIG    1      -35.577  75.375  27.650  0.00  0.00    +0.026 A 
BRANCH  22  24
ATOM     24  C   LIG    1      -34.099  77.378  27.970  0.00  0.00    +0.107 A 
ATOM     25  C   LIG    1      -33.090  77.904  27.156  0.00  0.00    +0.149 A 
ATOM     26  F   LIG    1      -32.211  77.122  26.516  0.00  0.00    -0.203 F 
ATOM     27  C   LIG    1      -32.920  79.282  27.045  0.00  0.00    +0.042 A 
ATOM     28  C   LIG    1      -33.717  80.126  27.803  0.00  0.00    +0.023 A 
ATOM     29  C   LIG    1      -34.659  79.547  28.635  0.00  0.00    +0.111 A 
ATOM     30  N   LIG    1      -34.872  78.210  28.726  0.00  0.00    -0.252 NA
ENDBRANCH  22  24
ENDBRANCH  14  16
ENDBRANCH   4  12
BRANCH   1  32
ATOM     31  N   LIG    1      -41.283  70.581  22.478  0.00  0.00    -0.208 NA
ATOM     32  C   LIG    1      -40.576  70.440  23.552  0.00  0.00    +0.241 C 
BRANCH  31  35
ATOM     33  C   LIG    1      -40.067  68.016  20.829  0.00  0.00    +0.070 C 
ATOM     34  C   LIG    1      -41.461  68.394  21.169  0.00  0.00    +0.085 A 
ATOM     35  C   LIG    1      -41.946  69.488  21.927  0.00  0.00    +0.108 A 
ATOM     36  C   LIG    1      -43.312  69.397  21.872  0.00  0.00    +0.133 A 
ATOM     37  N   LIG    1      -43.577  68.276  21.141  0.00  0.00    -0.282 N 
ATOM     38  H   LIG    1      -44.480  67.905  20.862  0.00  0.00    +0.188 HD
ATOM     39  N   LIG    1      -42.472  67.621  20.746  0.00  0.00    -0.177 NA
ENDBRANCH  31  35
BRANCH  32  40
ATOM     40  O   LIG    1      -40.467  69.323  24.305  0.00  0.00    -0.491 OA
ATOM     41  H   LIG    1      -41.328  69.036  24.637  0.00  0.00    +0.294 HD
ENDBRANCH  32  40
ENDBRANCH   1  32
TORSDOF 7
ENDMDL
MODEL 6
REMARK VINA RESULT:      -6.4      4.480     10.858
REMARK  Name = pdb/CHEMBL3968335.pdb
REMARK                            x       y       z     vdW  Elec       q    Type
REMARK                         _______ _______ _______ _____ _____    ______ ____
ROOT
ATOM      1  C   LIG    1      -26.153  77.658  14.102  0.00  0.00    +0.149 A 
ATOM      2  N   LIG    1      -24.933  77.683  14.666  0.00  0.00    -0.160 NA
ATOM      3  N   LIG    1      -24.518  78.974  14.572  0.00  0.00    -0.218 N 
ATOM      4  C   LIG    1      -25.410  79.745  13.819  0.00  0.00    +0.129 A 
ATOM      5  C   LIG    1      -26.475  78.918  13.542  0.00  0.00    +0.078 A 
ENDROOT
BRANCH   3   6
ATOM      6  C   LIG    1      -23.286  79.360  15.178  0.00  0.00    +0.067 A 
ATOM      7  C   LIG    1      -22.098  78.666  14.922  0.00  0.00    +0.028 A 
ATOM      8  C   LIG    1      -20.899  79.075  15.513  0.00  0.00    +0.002 A 
ATOM      9  C   LIG    1      -20.869  80.192  16.343  0.00  0.00    +0.000 A 
ATOM     10  C   LIG    1      -22.043  80.898  16.597  0.00  0.00    +0.002 A 
ATOM     11  C   LIG    1      -23.250  80.488  16.017  0.00  0.00    +0.028 A 
ENDBRANCH   3   6
BRANCH   4  12
ATOM     12  N   LIG    1      -25.259  81.059  13.363  0.00  0.00    -0.266 N 
ATOM     13  H   LIG    1      -25.761  81.787  13.862  0.00  0.00    +0.157 HD
ATOM     14  C   LIG    1      -24.308  81.477  12.366  0.00  0.00    +0.251 C 
ATOM     15  O   LIG    1      -23.543  80.664  11.840  0.00  0.00    -0.270 OA
BRANCH  14  16
ATOM     16  C   LIG    1      -24.256  82.912  12.013  0.00  0.00    +0.056 A 
ATOM     17  C   LIG    1      -25.204  83.553  11.206  0.00  0.00    +0.054 A 
ATOM     18 CL   LIG    1      -26.533  82.751  10.455  0.00  0.00    -0.083 Cl
ATOM     19  C   LIG    1      -25.137  84.931  11.021  0.00  0.00    +0.041 A 
ATOM     20  C   LIG    1      -24.127  85.700  11.619  0.00  0.00    +0.052 A 
ATOM     21 CL   LIG    1      -24.359  87.410  11.486  0.00  0.00    -0.083 Cl
ATOM     22  C   LIG    1      -23.090  85.095  12.356  0.00  0.00    +0.022 A 
ATOM     23  C   LIG    1      -23.213  83.694  12.563  0.00  0.00    +0.026 A 
BRANCH  22  24
ATOM     24  C   LIG    1      -21.917  85.811  12.934  0.00  0.00    +0.107 A 
ATOM     25  C   LIG    1      -21.840  86.311  14.239  0.00  0.00    +0.149 A 
ATOM     26  F   LIG    1      -22.875  86.247  15.088  0.00  0.00    -0.203 F 
ATOM     27  C   LIG    1      -20.693  86.968  14.676  0.00  0.00    +0.042 A 
ATOM     28  C   LIG    1      -19.654  87.182  13.784  0.00  0.00    +0.023 A 
ATOM     29  C   LIG    1      -19.809  86.717  12.490  0.00  0.00    +0.111 A 
ATOM     30  N   LIG    1      -20.899  86.036  12.054  0.00  0.00    -0.252 NA
ENDBRANCH  22  24
ENDBRANCH  14  16
ENDBRANCH   4  12
BRANCH   1  32
ATOM     31  N   LIG    1      -26.663  75.490  13.295  0.00  0.00    -0.208 NA
ATOM     32  C   LIG    1      -27.008  76.467  14.069  0.00  0.00    +0.241 C 
BRANCH  31  35
ATOM     33  C   LIG    1      -26.415  72.849  15.229  0.00  0.00    +0.070 C 
ATOM     34  C   LIG    1      -27.290  73.136  14.065  0.00  0.00    +0.085 A 
ATOM     35  C   LIG    1      -27.403  74.311  13.282  0.00  0.00    +0.108 A 
ATOM     36  C   LIG    1      -28.309  74.013  12.298  0.00  0.00    +0.133 A 
ATOM     37  N   LIG    1      -28.711  72.734  12.545  0.00  0.00    -0.282 N 
ATOM     38  H   LIG    1      -29.353  72.161  12.006  0.00  0.00    +0.188 HD
ATOM     39  N   LIG    1      -28.147  72.196  13.640  0.00  0.00    -0.177 NA
ENDBRANCH  31  35
BRANCH  32  40
ATOM     40  O   LIG    1      -28.113  76.531  14.845  0.00  0.00    -0.491 OA
ATOM     41  H   LIG    1      -27.917  76.285  15.759  0.00  0.00    +0.294 HD
ENDBRANCH  32  40
ENDBRANCH   1  32
TORSDOF 7
ENDMDL
MODEL 7
REMARK VINA RESULT:      -6.4     18.848     20.270
REMARK  Name = pdb/CHEMBL3968335.pdb
REMARK                            x       y       z     vdW  Elec       q    Type
REMARK                         _______ _______ _______ _____ _____    ______ ____
ROOT
ATOM      1  C   LIG    1      -35.744  71.500  27.012  0.00  0.00    +0.149 A 
ATOM      2  N   LIG    1      -36.687  72.405  26.700  0.00  0.00    -0.160 NA
ATOM      3  N   LIG    1      -37.244  71.963  25.542  0.00  0.00    -0.218 N 
ATOM      4  C   LIG    1      -36.559  70.853  25.035  0.00  0.00    +0.129 A 
ATOM      5  C   LIG    1      -35.618  70.530  25.987  0.00  0.00    +0.078 A 
ENDROOT
BRANCH   3   6
ATOM      6  C   LIG    1      -38.363  72.657  24.991  0.00  0.00    +0.067 A 
ATOM      7  C   LIG    1      -38.399  74.055  24.936  0.00  0.00    +0.028 A 
ATOM      8  C   LIG    1      -39.498  74.712  24.376  0.00  0.00    +0.002 A 
ATOM      9  C   LIG    1      -40.556  73.981  23.843  0.00  0.00    +0.000 A 
ATOM     10  C   LIG    1      -40.527  72.589  23.882  0.00  0.00    +0.002 A 
ATOM     11  C   LIG    1      -39.434  71.924  24.451  0.00  0.00    +0.028 A 
ENDBRANCH   3   6
BRANCH   4  12
ATOM     12  N   LIG    1      -36.718  70.218  23.799  0.00  0.00    -0.266 N 
ATOM     13  H   LIG    1      -36.216  70.607  23.006  0.00  0.00    +0.157 HD
ATOM     14  C   LIG    1      -37.383  68.956  23.604  0.00  0.00    +0.251 C 
ATOM     15  O   LIG    1      -37.867  68.341  24.559  0.00  0.00    -0.270 OA
BRANCH  14  16
ATOM     16  C   LIG    1      -37.441  68.404  22.233  0.00  0.00    +0.056 A 
ATOM     17  C   LIG    1      -38.506  68.620  21.350  0.00  0.00    +0.054 A 
ATOM     18 CL   LIG    1      -39.930  69.507  21.751  0.00  0.00    -0.083 Cl
ATOM     19  C   LIG    1      -38.423  68.158  20.040  0.00  0.00    +0.041 A 
ATOM     20  C   LIG    1      -37.294  67.463  19.581  0.00  0.00    +0.052 A 
ATOM     21 CL   LIG    1      -37.265  67.197  17.871  0.00  0.00    -0.083 Cl
ATOM     22  C   LIG    1      -36.239  67.128  20.453  0.00  0.00    +0.022 A 
ATOM     23  C   LIG    1      -36.335  67.655  21.770  0.00  0.00    +0.026 A 
BRANCH  22  24
ATOM     24  C   LIG    1      -35.053  66.301  20.090  0.00  0.00    +0.107 A 
ATOM     25  C   LIG    1      -35.103  64.988  19.607  0.00  0.00    +0.149 A 
ATOM     26  F   LIG    1      -36.256  64.316  19.490  0.00  0.00    -0.203 F 
ATOM     27  C   LIG    1      -33.929  64.305  19.300  0.00  0.00    +0.042 A 
ATOM     28  C   LIG    1      -32.707  64.914  19.543  0.00  0.00    +0.023 A 
ATOM     29  C   LIG    1      -32.719  66.191  20.076  0.00  0.00    +0.111 A 
ATOM     30  N   LIG    1      -33.850  66.893  20.342  0.00  0.00    -0.252 NA
ENDBRANCH  22  24
ENDBRANCH  14  16
ENDBRANCH   4  12
BRANCH   1  32
ATOM     31  N   LIG    1      -33.920  72.320  28.280  0.00  0.00    -0.208 NA
ATOM     32  C   LIG    1      -34.953  71.542  28.245  0.00  0.00    +0.241 C 
BRANCH  31  35
ATOM     33  C   LIG    1      -31.496  70.430  29.434  0.00  0.00    +0.070 C 
ATOM     34  C   LIG    1      -32.165  71.627  30.003  0.00  0.00    +0.085 A 
ATOM     35  C   LIG    1      -33.179  72.449  29.451  0.00  0.00    +0.108 A 
ATOM     36  C   LIG    1      -33.476  73.369  30.422  0.00  0.00    +0.133 A 
ATOM     37  N   LIG    1      -32.635  73.093  31.460  0.00  0.00    -0.282 N 
ATOM     38  H   LIG    1      -32.585  73.545  32.367  0.00  0.00    +0.188 HD
ATOM     39  N   LIG    1      -31.795  72.073  31.212  0.00  0.00    -0.177 NA
ENDBRANCH  31  35
BRANCH  32  40
ATOM     40  O   LIG    1      -35.377  70.720  29.230  0.00  0.00    -0.491 OA
ATOM     41  H   LIG    1      -36.337  70.605  29.205  0.00  0.00    +0.294 HD
ENDBRANCH  32  40
ENDBRANCH   1  32
TORSDOF 7
ENDMDL
MODEL 8
REMARK VINA RESULT:      -6.4      3.822     10.028
REMARK  Name = pdb/CHEMBL3968335.pdb
REMARK                            x       y       z     vdW  Elec       q    Type
REMARK                         _______ _______ _______ _____ _____    ______ ____
ROOT
ATOM      1  C   LIG    1      -24.384  78.834  14.586  0.00  0.00    +0.149 A 
ATOM      2  N   LIG    1      -23.293  78.117  14.905  0.00  0.00    -0.160 NA
ATOM      3  N   LIG    1      -22.294  79.026  15.059  0.00  0.00    -0.218 N 
ATOM      4  C   LIG    1      -22.711  80.311  14.697  0.00  0.00    +0.129 A 
ATOM      5  C   LIG    1      -24.057  80.203  14.424  0.00  0.00    +0.078 A 
ENDROOT
BRANCH   3   6
ATOM      6  C   LIG    1      -21.011  78.591  15.505  0.00  0.00    +0.067 A 
ATOM      7  C   LIG    1      -20.509  77.330  15.163  0.00  0.00    +0.028 A 
ATOM      8  C   LIG    1      -19.241  76.933  15.597  0.00  0.00    +0.002 A 
ATOM      9  C   LIG    1      -18.454  77.797  16.353  0.00  0.00    +0.000 A 
ATOM     10  C   LIG    1      -18.938  79.059  16.691  0.00  0.00    +0.002 A 
ATOM     11  C   LIG    1      -20.211  79.460  16.269  0.00  0.00    +0.028 A 
ENDBRANCH   3   6
BRANCH   4  12
ATOM     12  N   LIG    1      -21.945  81.473  14.559  0.00  0.00    -0.266 N 
ATOM     13  H   LIG    1      -21.966  82.140  15.324  0.00  0.00    +0.157 HD
ATOM     14  C   LIG    1      -20.989  81.705  13.508  0.00  0.00    +0.251 C 
ATOM     15  O   LIG    1      -20.786  80.854  12.637  0.00  0.00    -0.270 OA
BRANCH  14  16
ATOM     16  C   LIG    1      -20.236  82.978  13.521  0.00  0.00    +0.056 A 
ATOM     17  C   LIG    1      -18.842  83.060  13.625  0.00  0.00    +0.054 A 
ATOM     18 CL   LIG    1      -17.806  81.694  13.817  0.00  0.00    -0.083 Cl
ATOM     19  C   LIG    1      -18.211  84.295  13.514  0.00  0.00    +0.041 A 
ATOM     20  C   LIG    1      -18.944  85.474  13.309  0.00  0.00    +0.052 A 
ATOM     21 CL   LIG    1      -17.976  86.861  12.941  0.00  0.00    -0.083 Cl
ATOM     22  C   LIG    1      -20.353  85.464  13.299  0.00  0.00    +0.022 A 
ATOM     23  C   LIG    1      -20.963  84.182  13.370  0.00  0.00    +0.026 A 
BRANCH  22  24
ATOM     24  C   LIG    1      -21.220  86.673  13.200  0.00  0.00    +0.107 A 
ATOM     25  C   LIG    1      -21.733  87.389  14.287  0.00  0.00    +0.149 A 
ATOM     26  F   LIG    1      -21.539  86.996  15.553  0.00  0.00    -0.203 F 
ATOM     27  C   LIG    1      -22.538  88.506  14.079  0.00  0.00    +0.042 A 
ATOM     28  C   LIG    1      -22.881  88.862  12.784  0.00  0.00    +0.023 A 
ATOM     29  C   LIG    1      -22.392  88.083  11.751  0.00  0.00    +0.111 A 
ATOM     30  N   LIG    1      -21.570  87.016  11.927  0.00  0.00    -0.252 NA
ENDBRANCH  22  24
ENDBRANCH  14  16
ENDBRANCH   4  12
BRANCH   1  32
ATOM     31  N   LIG    1      -26.023  77.750  13.265  0.00  0.00    -0.208 NA
ATOM     32  C   LIG    1      -25.718  78.251  14.418  0.00  0.00    +0.241 C 
BRANCH  31  35
ATOM     33  C   LIG    1      -26.823  74.585  13.607  0.00  0.00    +0.070 C 
ATOM     34  C   LIG    1      -27.619  75.757  13.165  0.00  0.00    +0.085 A 
ATOM     35  C   LIG    1      -27.251  77.122  13.076  0.00  0.00    +0.108 A 
ATOM     36  C   LIG    1      -28.340  77.764  12.546  0.00  0.00    +0.133 A 
ATOM     37  N   LIG    1      -29.290  76.799  12.381  0.00  0.00    -0.282 N 
ATOM     38  H   LIG    1      -30.219  76.892  11.982  0.00  0.00    +0.188 HD
ATOM     39  N   LIG    1      -28.896  75.583  12.795  0.00  0.00    -0.177 NA
ENDBRANCH  31  35
BRANCH  32  40
ATOM     40  O   LIG    1      -26.522  78.330  15.501  0.00  0.00    -0.491 OA
ATOM     41  H   LIG    1      -27.368  77.890  15.345  0.00  0.00    +0.294 HD
ENDBRANCH  32  40
ENDBRANCH   1  32
TORSDOF 7
ENDMDL
MODEL 9
REMARK VINA RESULT:      -6.4      8.027     10.516
REMARK  Name = pdb/CHEMBL3968335.pdb
REMARK                            x       y       z     vdW  Elec       q    Type
REMARK                         _______ _______ _______ _____ _____    ______ ____
ROOT
ATOM      1  C   LIG    1      -33.428  81.013  10.437  0.00  0.00    +0.149 A 
ATOM      2  N   LIG    1      -33.612  79.997   9.577  0.00  0.00    -0.160 NA
ATOM      3  N   LIG    1      -32.813  78.993  10.025  0.00  0.00    -0.218 N 
ATOM      4  C   LIG    1      -32.006  79.417  11.087  0.00  0.00    +0.129 A 
ATOM      5  C   LIG    1      -32.417  80.699  11.378  0.00  0.00    +0.078 A 
ENDROOT
BRANCH   3   6
ATOM      6  C   LIG    1      -32.855  77.721   9.381  0.00  0.00    +0.067 A 
ATOM      7  C   LIG    1      -31.883  77.343   8.449  0.00  0.00    +0.028 A 
ATOM      8  C   LIG    1      -31.935  76.084   7.844  0.00  0.00    +0.002 A 
ATOM      9  C   LIG    1      -32.941  75.183   8.183  0.00  0.00    +0.000 A 
ATOM     10  C   LIG    1      -33.909  75.543   9.118  0.00  0.00    +0.002 A 
ATOM     11  C   LIG    1      -33.868  76.807   9.720  0.00  0.00    +0.028 A 
ENDBRANCH   3   6
BRANCH   4  12
ATOM     12  N   LIG    1      -30.950  78.741  11.705  0.00  0.00    -0.266 N 
ATOM     13  H   LIG    1      -31.168  78.179  12.522  0.00  0.00    +0.157 HD
ATOM     14  C   LIG    1      -29.619  78.631  11.166  0.00  0.00    +0.251 C 
ATOM     15  O   LIG    1      -29.329  79.148  10.084  0.00  0.00    -0.270 OA
BRANCH  14  16
ATOM     16  C   LIG    1      -28.619  77.855  11.933  0.00  0.00    +0.056 A 
ATOM     17  C   LIG    1      -28.678  76.467  12.110  0.00  0.00    +0.054 A 
ATOM     18 CL   LIG    1      -29.953  75.470  11.515  0.00  0.00    -0.083 Cl
ATOM     19  C   LIG    1      -27.633  75.807  12.749  0.00  0.00    +0.041 A 
ATOM     20  C   LIG    1      -26.517  76.504  13.236  0.00  0.00    +0.052 A 
ATOM     21 CL   LIG    1      -25.216  75.492  13.763  0.00  0.00    -0.083 Cl
ATOM     22  C   LIG    1      -26.454  77.910  13.177  0.00  0.00    +0.022 A 
ATOM     23  C   LIG    1      -27.514  78.549  12.478  0.00  0.00    +0.026 A 
BRANCH  22  24
ATOM     24  C   LIG    1      -25.367  78.747  13.762  0.00  0.00    +0.107 A 
ATOM     25  C   LIG    1      -25.301  79.164  15.097  0.00  0.00    +0.149 A 
ATOM     26  F   LIG    1      -26.275  78.895  15.976  0.00  0.00    -0.203 F 
ATOM     27  C   LIG    1      -24.238  79.948  15.538  0.00  0.00    +0.042 A 
ATOM     28  C   LIG    1      -23.282  80.369  14.626  0.00  0.00    +0.023 A 
ATOM     29  C   LIG    1      -23.431  79.975  13.308  0.00  0.00    +0.111 A 
ATOM     30  N   LIG    1      -24.433  79.174  12.864  0.00  0.00    -0.252 NA
ENDBRANCH  22  24
ENDBRANCH  14  16
ENDBRANCH   4  12
BRANCH   1  32
ATOM     31  N   LIG    1      -34.462  82.865  11.490  0.00  0.00    -0.208 NA
ATOM     32  C   LIG    1      -34.172  82.274  10.376  0.00  0.00    +0.241 C 
BRANCH  31  35
ATOM     33  C   LIG    1      -33.196  85.876  11.169  0.00  0.00    +0.070 C 
ATOM     34  C   LIG    1      -34.588  85.415  11.397  0.00  0.00    +0.085 A 
ATOM     35  C   LIG    1      -35.106  84.099  11.482  0.00  0.00    +0.108 A 
ATOM     36  C   LIG    1      -36.438  84.245  11.769  0.00  0.00    +0.133 A 
ATOM     37  N   LIG    1      -36.660  85.590  11.807  0.00  0.00    -0.282 N 
ATOM     38  H   LIG    1      -37.522  86.080  12.023  0.00  0.00    +0.188 HD
ATOM     39  N   LIG    1      -35.566  86.322  11.534  0.00  0.00    -0.177 NA
ENDBRANCH  31  35
BRANCH  32  40
ATOM     40  O   LIG    1      -34.516  82.681   9.134  0.00  0.00    -0.491 OA
ATOM     41  H   LIG    1      -33.737  82.921   8.614  0.00  0.00    +0.294 HD
ENDBRANCH  32  40
ENDBRANCH   1  32
TORSDOF 7
ENDMDL
