MODEL 1
REMARK VINA RESULT:      -6.7      0.000      0.000
REMARK  Name = pdb/CHEMBL3942060.pdb
REMARK                            x       y       z     vdW  Elec       q    Type
REMARK                         _______ _______ _______ _____ _____    ______ ____
ROOT
ATOM      1  C   LIG    1      -24.347  78.547  14.805  0.00  0.00    +0.131 C 
ATOM      2  N   LIG    1      -23.327  77.710  15.058  0.00  0.00    -0.141 NA
ATOM      3  N   LIG    1      -22.215  78.489  15.044  0.00  0.00    -0.201 N 
ATOM      4  C   LIG    1      -22.497  79.766  14.549  0.00  0.00    +0.185 C 
ATOM      5  C   LIG    1      -23.872  79.852  14.549  0.00  0.00    +0.056 C 
ENDROOT
BRANCH   3   6
ATOM      6  C   LIG    1      -20.953  77.945  15.413  0.00  0.00    +0.052 A 
ATOM      7  C   LIG    1      -19.998  78.719  16.085  0.00  0.00    +0.025 A 
ATOM      8  C   LIG    1      -18.752  78.170  16.407  0.00  0.00    +0.002 A 
ATOM      9  C   LIG    1      -18.458  76.850  16.068  0.00  0.00    +0.000 A 
ATOM     10  C   LIG    1      -19.418  76.065  15.434  0.00  0.00    +0.002 A 
ATOM     11  C   LIG    1      -20.670  76.602  15.122  0.00  0.00    +0.025 A 
ENDBRANCH   3   6
BRANCH   4  12
ATOM     12  N   LIG    1      -21.596  80.724  14.056  0.00  0.00    -0.282 N 
ATOM     13  H   LIG    1      -21.367  80.690  13.068  0.00  0.00    +0.152 HD
ATOM     14  C   LIG    1      -21.101  81.812  14.851  0.00  0.00    +0.247 C 
ATOM     15  O   LIG    1      -21.437  81.942  16.025  0.00  0.00    -0.270 OA
BRANCH  14  16
ATOM     16  C   LIG    1      -20.233  82.838  14.242  0.00  0.00    +0.056 A 
ATOM     17  C   LIG    1      -18.866  82.692  14.042  0.00  0.00    +0.054 A 
ATOM     18 CL   LIG    1      -17.983  81.295  14.523  0.00  0.00    -0.083 Cl
ATOM     19  C   LIG    1      -18.142  83.745  13.484  0.00  0.00    +0.041 A 
ATOM     20  C   LIG    1      -18.760  84.970  13.174  0.00  0.00    +0.052 A 
ATOM     21 CL   LIG    1      -17.692  86.184  12.553  0.00  0.00    -0.083 Cl
ATOM     22  C   LIG    1      -20.135  85.180  13.419  0.00  0.00    +0.022 A 
ATOM     23  C   LIG    1      -20.847  84.071  13.926  0.00  0.00    +0.026 A 
BRANCH  22  24
ATOM     24  C   LIG    1      -20.843  86.472  13.209  0.00  0.00    +0.107 A 
ATOM     25  C   LIG    1      -20.675  87.592  14.036  0.00  0.00    +0.149 A 
ATOM     26  F   LIG    1      -19.849  87.569  15.094  0.00  0.00    -0.203 F 
ATOM     27  C   LIG    1      -21.351  88.777  13.761  0.00  0.00    +0.042 A 
ATOM     28  C   LIG    1      -22.170  88.840  12.642  0.00  0.00    +0.023 A 
ATOM     29  C   LIG    1      -22.300  87.699  11.871  0.00  0.00    +0.111 A 
ATOM     30  N   LIG    1      -21.685  86.525  12.148  0.00  0.00    -0.252 NA
ENDBRANCH  22  24
ENDBRANCH  14  16
ENDBRANCH   4  12
BRANCH   1  32
ATOM     31  N   LIG    1      -26.089  77.228  13.832  0.00  0.00    -0.246 NA
ATOM     32  C   LIG    1      -25.743  78.115  14.708  0.00  0.00    +0.233 C 
BRANCH  31  35
ATOM     33  C   LIG    1      -28.596  76.049  12.085  0.00  0.00    +0.119 C 
ATOM     34  C   LIG    1      -28.258  77.432  12.666  0.00  0.00    +0.058 C 
ATOM     35  C   LIG    1      -27.464  76.755  13.794  0.00  0.00    +0.114 C 
ATOM     36  C   LIG    1      -27.569  75.418  13.039  0.00  0.00    +0.058 C 
BRANCH  33  37
ATOM     37  O   LIG    1      -29.957  75.610  12.258  0.00  0.00    -0.392 OA
ATOM     38  H   LIG    1      -30.471  76.106  11.597  0.00  0.00    +0.210 HD
ENDBRANCH  33  37
ENDBRANCH  31  35
BRANCH  32  39
ATOM     39  O   LIG    1      -26.566  78.658  15.627  0.00  0.00    -0.491 OA
ATOM     40  H   LIG    1      -26.116  78.841  16.458  0.00  0.00    +0.294 HD
ENDBRANCH  32  39
ENDBRANCH   1  32
TORSDOF 8
ENDMDL
MODEL 2
REMARK VINA RESULT:      -6.6     19.332     22.741
REMARK  Name = pdb/CHEMBL3942060.pdb
REMARK                            x       y       z     vdW  Elec       q    Type
REMARK                         _______ _______ _______ _____ _____    ______ ____
ROOT
ATOM      1  C   LIG    1      -36.192  76.759  27.053  0.00  0.00    +0.131 C 
ATOM      2  N   LIG    1      -37.152  77.522  26.504  0.00  0.00    -0.141 NA
ATOM      3  N   LIG    1      -37.997  76.650  25.896  0.00  0.00    -0.201 N 
ATOM      4  C   LIG    1      -37.453  75.363  25.854  0.00  0.00    +0.185 C 
ATOM      5  C   LIG    1      -36.386  75.399  26.725  0.00  0.00    +0.056 C 
ENDROOT
BRANCH   3   6
ATOM      6  C   LIG    1      -39.214  77.112  25.322  0.00  0.00    +0.052 A 
ATOM      7  C   LIG    1      -39.276  77.521  23.984  0.00  0.00    +0.025 A 
ATOM      8  C   LIG    1      -40.477  78.003  23.453  0.00  0.00    +0.002 A 
ATOM      9  C   LIG    1      -41.619  78.073  24.250  0.00  0.00    +0.000 A 
ATOM     10  C   LIG    1      -41.572  77.632  25.571  0.00  0.00    +0.002 A 
ATOM     11  C   LIG    1      -40.380  77.135  26.104  0.00  0.00    +0.025 A 
ENDBRANCH   3   6
BRANCH   4  12
ATOM     12  N   LIG    1      -37.829  74.288  25.032  0.00  0.00    -0.282 N 
ATOM     13  H   LIG    1      -37.274  74.113  24.201  0.00  0.00    +0.152 HD
ATOM     14  C   LIG    1      -38.866  73.361  25.386  0.00  0.00    +0.247 C 
ATOM     15  O   LIG    1      -39.493  73.483  26.436  0.00  0.00    -0.270 OA
BRANCH  14  16
ATOM     16  C   LIG    1      -39.146  72.198  24.523  0.00  0.00    +0.056 A 
ATOM     17  C   LIG    1      -40.341  71.992  23.845  0.00  0.00    +0.054 A 
ATOM     18 CL   LIG    1      -41.688  73.058  23.958  0.00  0.00    -0.083 Cl
ATOM     19  C   LIG    1      -40.501  70.837  23.081  0.00  0.00    +0.041 A 
ATOM     20  C   LIG    1      -39.499  69.851  23.031  0.00  0.00    +0.052 A 
ATOM     21 CL   LIG    1      -39.901  68.455  22.087  0.00  0.00    -0.083 Cl
ATOM     22  C   LIG    1      -38.295  69.994  23.755  0.00  0.00    +0.022 A 
ATOM     23  C   LIG    1      -38.142  71.204  24.466  0.00  0.00    +0.026 A 
BRANCH  22  24
ATOM     24  C   LIG    1      -37.228  68.960  23.832  0.00  0.00    +0.107 A 
ATOM     25  C   LIG    1      -36.511  68.499  22.718  0.00  0.00    +0.149 A 
ATOM     26  F   LIG    1      -36.750  68.970  21.484  0.00  0.00    -0.203 F 
ATOM     27  C   LIG    1      -35.507  67.547  22.871  0.00  0.00    +0.042 A 
ATOM     28  C   LIG    1      -35.207  67.086  24.146  0.00  0.00    +0.023 A 
ATOM     29  C   LIG    1      -35.955  67.573  25.202  0.00  0.00    +0.111 A 
ATOM     30  N   LIG    1      -36.965  68.465  25.067  0.00  0.00    -0.252 NA
ENDBRANCH  22  24
ENDBRANCH  14  16
ENDBRANCH   4  12
BRANCH   1  32
ATOM     31  N   LIG    1      -34.321  76.522  28.522  0.00  0.00    -0.246 NA
ATOM     32  C   LIG    1      -35.054  77.302  27.796  0.00  0.00    +0.233 C 
BRANCH  31  35
ATOM     33  C   LIG    1      -31.232  76.104  29.532  0.00  0.00    +0.119 C 
ATOM     34  C   LIG    1      -32.599  76.071  30.237  0.00  0.00    +0.058 C 
ATOM     35  C   LIG    1      -33.150  77.061  29.198  0.00  0.00    +0.114 C 
ATOM     36  C   LIG    1      -31.879  76.852  28.354  0.00  0.00    +0.058 C 
BRANCH  33  37
ATOM     37  O   LIG    1      -30.187  76.816  30.220  0.00  0.00    -0.392 OA
ATOM     38  H   LIG    1      -29.782  77.389  29.544  0.00  0.00    +0.210 HD
ENDBRANCH  33  37
ENDBRANCH  31  35
BRANCH  32  39
ATOM     39  O   LIG    1      -34.824  78.615  27.595  0.00  0.00    -0.491 OA
ATOM     40  H   LIG    1      -35.639  79.123  27.526  0.00  0.00    +0.294 HD
ENDBRANCH  32  39
ENDBRANCH   1  32
TORSDOF 8
ENDMDL
MODEL 3
REMARK VINA RESULT:      -6.5     18.065     20.539
REMARK  Name = pdb/CHEMBL3942060.pdb
REMARK                            x       y       z     vdW  Elec       q    Type
REMARK                         _______ _______ _______ _____ _____    ______ ____
ROOT
ATOM      1  C   LIG    1      -36.965  69.939  24.585  0.00  0.00    +0.131 C 
ATOM      2  N   LIG    1      -36.659  68.922  25.408  0.00  0.00    -0.141 NA
ATOM      3  N   LIG    1      -35.939  69.481  26.414  0.00  0.00    -0.201 N 
ATOM      4  C   LIG    1      -35.586  70.800  26.113  0.00  0.00    +0.185 C 
ATOM      5  C   LIG    1      -36.368  71.139  25.032  0.00  0.00    +0.056 C 
ENDROOT
BRANCH   3   6
ATOM      6  C   LIG    1      -35.563  68.703  27.545  0.00  0.00    +0.052 A 
ATOM      7  C   LIG    1      -34.408  67.910  27.528  0.00  0.00    +0.025 A 
ATOM      8  C   LIG    1      -34.078  67.129  28.640  0.00  0.00    +0.002 A 
ATOM      9  C   LIG    1      -34.892  67.140  29.772  0.00  0.00    +0.000 A 
ATOM     10  C   LIG    1      -36.022  67.955  29.808  0.00  0.00    +0.002 A 
ATOM     11  C   LIG    1      -36.349  68.750  28.706  0.00  0.00    +0.025 A 
ENDBRANCH   3   6
BRANCH   4  12
ATOM     12  N   LIG    1      -34.582  71.585  26.703  0.00  0.00    -0.282 N 
ATOM     13  H   LIG    1      -33.666  71.584  26.267  0.00  0.00    +0.152 HD
ATOM     14  C   LIG    1      -34.833  72.479  27.798  0.00  0.00    +0.247 C 
ATOM     15  O   LIG    1      -35.955  72.582  28.287  0.00  0.00    -0.270 OA
BRANCH  14  16
ATOM     16  C   LIG    1      -33.754  73.347  28.306  0.00  0.00    +0.056 A 
ATOM     17  C   LIG    1      -32.729  72.919  29.142  0.00  0.00    +0.054 A 
ATOM     18 CL   LIG    1      -32.605  71.309  29.737  0.00  0.00    -0.083 Cl
ATOM     19  C   LIG    1      -31.781  73.840  29.584  0.00  0.00    +0.041 A 
ATOM     20  C   LIG    1      -31.875  75.202  29.246  0.00  0.00    +0.052 A 
ATOM     21 CL   LIG    1      -30.647  76.208  29.942  0.00  0.00    -0.083 Cl
ATOM     22  C   LIG    1      -32.936  75.688  28.451  0.00  0.00    +0.022 A 
ATOM     23  C   LIG    1      -33.841  74.717  27.970  0.00  0.00    +0.026 A 
BRANCH  22  24
ATOM     24  C   LIG    1      -33.161  77.123  28.128  0.00  0.00    +0.107 A 
ATOM     25  C   LIG    1      -32.482  77.806  27.108  0.00  0.00    +0.149 A 
ATOM     26  F   LIG    1      -31.564  77.195  26.343  0.00  0.00    -0.203 F 
ATOM     27  C   LIG    1      -32.766  79.143  26.847  0.00  0.00    +0.042 A 
ATOM     28  C   LIG    1      -33.750  79.779  27.590  0.00  0.00    +0.023 A 
ATOM     29  C   LIG    1      -34.378  79.054  28.587  0.00  0.00    +0.111 A 
ATOM     30  N   LIG    1      -34.083  77.766  28.886  0.00  0.00    -0.252 NA
ENDBRANCH  22  24
ENDBRANCH  14  16
ENDBRANCH   4  12
BRANCH   1  32
ATOM     31  N   LIG    1      -39.019  69.785  23.371  0.00  0.00    -0.246 NA
ATOM     32  C   LIG    1      -37.726  69.777  23.345  0.00  0.00    +0.233 C 
BRANCH  31  35
ATOM     33  C   LIG    1      -41.837  69.134  21.833  0.00  0.00    +0.119 C 
ATOM     34  C   LIG    1      -40.520  68.362  22.019  0.00  0.00    +0.058 C 
ATOM     35  C   LIG    1      -39.763  69.695  22.123  0.00  0.00    +0.114 C 
ATOM     36  C   LIG    1      -41.111  70.431  22.229  0.00  0.00    +0.058 C 
BRANCH  33  37
ATOM     37  O   LIG    1      -42.395  69.115  20.505  0.00  0.00    -0.392 OA
ATOM     38  H   LIG    1      -42.170  68.237  20.148  0.00  0.00    +0.210 HD
ENDBRANCH  33  37
ENDBRANCH  31  35
BRANCH  32  39
ATOM     39  O   LIG    1      -36.974  69.694  22.229  0.00  0.00    -0.491 OA
ATOM     40  H   LIG    1      -36.565  68.828  22.127  0.00  0.00    +0.294 HD
ENDBRANCH  32  39
ENDBRANCH   1  32
TORSDOF 8
ENDMDL
MODEL 4
REMARK VINA RESULT:      -6.4     20.106     22.656
REMARK  Name = pdb/CHEMBL3942060.pdb
REMARK                            x       y       z     vdW  Elec       q    Type
REMARK                         _______ _______ _______ _____ _____    ______ ____
ROOT
ATOM      1  C   LIG    1      -35.980  71.655  27.081  0.00  0.00    +0.131 C 
ATOM      2  N   LIG    1      -36.795  72.661  26.722  0.00  0.00    -0.141 NA
ATOM      3  N   LIG    1      -37.406  72.237  25.586  0.00  0.00    -0.201 N 
ATOM      4  C   LIG    1      -36.809  71.071  25.094  0.00  0.00    +0.185 C 
ATOM      5  C   LIG    1      -36.014  70.618  26.124  0.00  0.00    +0.056 C 
ENDROOT
BRANCH   3   6
ATOM      6  C   LIG    1      -38.447  73.009  25.000  0.00  0.00    +0.052 A 
ATOM      7  C   LIG    1      -38.407  74.409  25.011  0.00  0.00    +0.025 A 
ATOM      8  C   LIG    1      -39.460  75.145  24.458  0.00  0.00    +0.002 A 
ATOM      9  C   LIG    1      -40.551  74.490  23.888  0.00  0.00    +0.000 A 
ATOM     10  C   LIG    1      -40.578  73.097  23.840  0.00  0.00    +0.002 A 
ATOM     11  C   LIG    1      -39.522  72.355  24.377  0.00  0.00    +0.025 A 
ENDBRANCH   3   6
BRANCH   4  12
ATOM     12  N   LIG    1      -36.902  70.528  23.803  0.00  0.00    -0.282 N 
ATOM     13  H   LIG    1      -36.355  70.962  23.067  0.00  0.00    +0.152 HD
ATOM     14  C   LIG    1      -37.621  69.319  23.516  0.00  0.00    +0.247 C 
ATOM     15  O   LIG    1      -38.213  68.709  24.402  0.00  0.00    -0.270 OA
BRANCH  14  16
ATOM     16  C   LIG    1      -37.598  68.750  22.155  0.00  0.00    +0.056 A 
ATOM     17  C   LIG    1      -38.638  68.858  21.240  0.00  0.00    +0.054 A 
ATOM     18 CL   LIG    1      -40.129  69.643  21.592  0.00  0.00    -0.083 Cl
ATOM     19  C   LIG    1      -38.514  68.251  19.991  0.00  0.00    +0.041 A 
ATOM     20  C   LIG    1      -37.381  67.484  19.663  0.00  0.00    +0.052 A 
ATOM     21 CL   LIG    1      -37.432  66.750  18.094  0.00  0.00    -0.083 Cl
ATOM     22  C   LIG    1      -36.329  67.299  20.587  0.00  0.00    +0.022 A 
ATOM     23  C   LIG    1      -36.462  67.980  21.817  0.00  0.00    +0.026 A 
BRANCH  22  24
ATOM     24  C   LIG    1      -35.145  66.429  20.355  0.00  0.00    +0.107 A 
ATOM     25  C   LIG    1      -35.224  65.038  20.187  0.00  0.00    +0.149 A 
ATOM     26  F   LIG    1      -36.398  64.390  20.228  0.00  0.00    -0.203 F 
ATOM     27  C   LIG    1      -34.073  64.293  19.947  0.00  0.00    +0.042 A 
ATOM     28  C   LIG    1      -32.855  64.949  19.847  0.00  0.00    +0.023 A 
ATOM     29  C   LIG    1      -32.842  66.321  20.030  0.00  0.00    +0.111 A 
ATOM     30  N   LIG    1      -33.944  67.056  20.309  0.00  0.00    -0.252 NA
ENDBRANCH  22  24
ENDBRANCH  14  16
ENDBRANCH   4  12
BRANCH   1  32
ATOM     31  N   LIG    1      -34.036  72.427  28.241  0.00  0.00    -0.246 NA
ATOM     32  C   LIG    1      -35.107  71.701  28.255  0.00  0.00    +0.233 C 
BRANCH  31  35
ATOM     33  C   LIG    1      -31.058  72.679  29.582  0.00  0.00    +0.119 C 
ATOM     34  C   LIG    1      -32.052  71.519  29.400  0.00  0.00    +0.058 C 
ATOM     35  C   LIG    1      -33.216  72.521  29.439  0.00  0.00    +0.114 C 
ATOM     36  C   LIG    1      -32.202  73.674  29.326  0.00  0.00    +0.058 C 
BRANCH  33  37
ATOM     37  O   LIG    1      -30.431  72.772  30.874  0.00  0.00    -0.392 OA
ATOM     38  H   LIG    1      -30.563  73.696  31.155  0.00  0.00    +0.210 HD
ENDBRANCH  33  37
ENDBRANCH  31  35
BRANCH  32  39
ATOM     39  O   LIG    1      -35.554  71.002  29.318  0.00  0.00    -0.491 OA
ATOM     40  H   LIG    1      -35.574  70.054  29.150  0.00  0.00    +0.294 HD
ENDBRANCH  32  39
ENDBRANCH   1  32
TORSDOF 8
ENDMDL
MODEL 5
REMARK VINA RESULT:      -6.3     18.255     21.600
REMARK  Name = pdb/CHEMBL3942060.pdb
REMARK                            x       y       z     vdW  Elec       q    Type
REMARK                         _______ _______ _______ _____ _____    ______ ____
ROOT
ATOM      1  C   LIG    1      -24.094  78.894  34.285  0.00  0.00    +0.131 C 
ATOM      2  N   LIG    1      -22.963  78.775  33.569  0.00  0.00    -0.141 NA
ATOM      3  N   LIG    1      -23.152  77.683  32.784  0.00  0.00    -0.201 N 
ATOM      4  C   LIG    1      -24.294  76.974  33.167  0.00  0.00    +0.185 C 
ATOM      5  C   LIG    1      -24.975  77.825  34.009  0.00  0.00    +0.056 C 
ENDROOT
BRANCH   3   6
ATOM      6  C   LIG    1      -22.193  77.341  31.790  0.00  0.00    +0.052 A 
ATOM      7  C   LIG    1      -22.564  77.185  30.448  0.00  0.00    +0.025 A 
ATOM      8  C   LIG    1      -21.609  76.816  29.495  0.00  0.00    +0.002 A 
ATOM      9  C   LIG    1      -20.283  76.607  29.874  0.00  0.00    +0.000 A 
ATOM     10  C   LIG    1      -19.902  76.797  31.201  0.00  0.00    +0.002 A 
ATOM     11  C   LIG    1      -20.848  77.182  32.156  0.00  0.00    +0.025 A 
ENDBRANCH   3   6
BRANCH   4  12
ATOM     12  N   LIG    1      -24.636  75.648  32.859  0.00  0.00    -0.282 N 
ATOM     13  H   LIG    1      -24.404  74.931  33.538  0.00  0.00    +0.152 HD
ATOM     14  C   LIG    1      -25.408  75.289  31.703  0.00  0.00    +0.247 C 
ATOM     15  O   LIG    1      -25.793  76.144  30.909  0.00  0.00    -0.270 OA
BRANCH  14  16
ATOM     16  C   LIG    1      -25.815  73.888  31.490  0.00  0.00    +0.056 A 
ATOM     17  C   LIG    1      -27.061  73.371  31.823  0.00  0.00    +0.054 A 
ATOM     18 CL   LIG    1      -28.298  74.301  32.579  0.00  0.00    -0.083 Cl
ATOM     19  C   LIG    1      -27.321  72.020  31.603  0.00  0.00    +0.041 A 
ATOM     20  C   LIG    1      -26.327  71.159  31.103  0.00  0.00    +0.052 A 
ATOM     21 CL   LIG    1      -26.809  69.501  30.959  0.00  0.00    -0.083 Cl
ATOM     22  C   LIG    1      -25.029  71.631  30.810  0.00  0.00    +0.022 A 
ATOM     23  C   LIG    1      -24.822  73.016  30.986  0.00  0.00    +0.026 A 
BRANCH  22  24
ATOM     24  C   LIG    1      -23.897  70.771  30.371  0.00  0.00    +0.107 A 
ATOM     25  C   LIG    1      -23.819  70.178  29.102  0.00  0.00    +0.149 A 
ATOM     26  F   LIG    1      -24.783  70.350  28.185  0.00  0.00    -0.203 F 
ATOM     27  C   LIG    1      -22.714  69.408  28.752  0.00  0.00    +0.042 A 
ATOM     28  C   LIG    1      -21.680  69.260  29.666  0.00  0.00    +0.023 A 
ATOM     29  C   LIG    1      -21.820  69.863  30.903  0.00  0.00    +0.111 A 
ATOM     30  N   LIG    1      -22.907  70.579  31.277  0.00  0.00    -0.252 NA
ENDBRANCH  22  24
ENDBRANCH  14  16
ENDBRANCH   4  12
BRANCH   1  32
ATOM     31  N   LIG    1      -23.363  80.771  35.574  0.00  0.00    -0.246 NA
ATOM     32  C   LIG    1      -24.312  79.941  35.285  0.00  0.00    +0.233 C 
BRANCH  31  35
ATOM     33  C   LIG    1      -22.359  82.533  38.146  0.00  0.00    +0.119 C 
ATOM     34  C   LIG    1      -23.379  81.396  37.965  0.00  0.00    +0.058 C 
ATOM     35  C   LIG    1      -23.616  81.851  36.516  0.00  0.00    +0.114 C 
ATOM     36  C   LIG    1      -22.396  82.783  36.629  0.00  0.00    +0.058 C 
BRANCH  33  37
ATOM     37  O   LIG    1      -22.788  83.636  38.967  0.00  0.00    -0.392 OA
ATOM     38  H   LIG    1      -23.524  83.285  39.500  0.00  0.00    +0.210 HD
ENDBRANCH  33  37
ENDBRANCH  31  35
BRANCH  32  39
ATOM     39  O   LIG    1      -25.562  79.987  35.789  0.00  0.00    -0.491 OA
ATOM     40  H   LIG    1      -25.577  80.305  36.698  0.00  0.00    +0.294 HD
ENDBRANCH  32  39
ENDBRANCH   1  32
TORSDOF 8
ENDMDL
MODEL 6
REMARK VINA RESULT:      -6.2      1.691      2.131
REMARK  Name = pdb/CHEMBL3942060.pdb
REMARK                            x       y       z     vdW  Elec       q    Type
REMARK                         _______ _______ _______ _____ _____    ______ ____
ROOT
ATOM      1  C   LIG    1      -25.301  79.033  14.120  0.00  0.00    +0.131 C 
ATOM      2  N   LIG    1      -24.191  78.427  14.573  0.00  0.00    -0.141 NA
ATOM      3  N   LIG    1      -23.234  79.390  14.575  0.00  0.00    -0.201 N 
ATOM      4  C   LIG    1      -23.668  80.538  13.904  0.00  0.00    +0.185 C 
ATOM      5  C   LIG    1      -25.027  80.370  13.757  0.00  0.00    +0.056 C 
ENDROOT
BRANCH   3   6
ATOM      6  C   LIG    1      -21.952  79.126  15.131  0.00  0.00    +0.052 A 
ATOM      7  C   LIG    1      -21.363  80.006  16.050  0.00  0.00    +0.025 A 
ATOM      8  C   LIG    1      -20.087  79.740  16.556  0.00  0.00    +0.002 A 
ATOM      9  C   LIG    1      -19.397  78.596  16.156  0.00  0.00    +0.000 A 
ATOM     10  C   LIG    1      -19.993  77.699  15.272  0.00  0.00    +0.002 A 
ATOM     11  C   LIG    1      -21.274  77.950  14.773  0.00  0.00    +0.025 A 
ENDBRANCH   3   6
BRANCH   4  12
ATOM     12  N   LIG    1      -22.891  81.588  13.390  0.00  0.00    -0.282 N 
ATOM     13  H   LIG    1      -22.571  81.512  12.430  0.00  0.00    +0.152 HD
ATOM     14  C   LIG    1      -22.651  82.806  14.111  0.00  0.00    +0.247 C 
ATOM     15  O   LIG    1      -23.108  82.975  15.238  0.00  0.00    -0.270 OA
BRANCH  14  16
ATOM     16  C   LIG    1      -21.906  83.909  13.474  0.00  0.00    +0.056 A 
ATOM     17  C   LIG    1      -20.521  84.014  13.455  0.00  0.00    +0.054 A 
ATOM     18 CL   LIG    1      -19.476  82.880  14.221  0.00  0.00    -0.083 Cl
ATOM     19  C   LIG    1      -19.929  85.120  12.848  0.00  0.00    +0.041 A 
ATOM     20  C   LIG    1      -20.709  86.157  12.304  0.00  0.00    +0.052 A 
ATOM     21 CL   LIG    1      -19.801  87.482  11.653  0.00  0.00    -0.083 Cl
ATOM     22  C   LIG    1      -22.119  86.118  12.358  0.00  0.00    +0.022 A 
ATOM     23  C   LIG    1      -22.683  84.954  12.924  0.00  0.00    +0.026 A 
BRANCH  22  24
ATOM     24  C   LIG    1      -23.013  87.214  11.894  0.00  0.00    +0.107 A 
ATOM     25  C   LIG    1      -23.075  88.476  12.503  0.00  0.00    +0.149 A 
ATOM     26  F   LIG    1      -22.317  88.781  13.568  0.00  0.00    -0.203 F 
ATOM     27  C   LIG    1      -23.916  89.461  11.996  0.00  0.00    +0.042 A 
ATOM     28  C   LIG    1      -24.669  89.185  10.863  0.00  0.00    +0.023 A 
ATOM     29  C   LIG    1      -24.570  87.919  10.314  0.00  0.00    +0.111 A 
ATOM     30  N   LIG    1      -23.791  86.934  10.820  0.00  0.00    -0.252 NA
ENDBRANCH  22  24
ENDBRANCH  14  16
ENDBRANCH   4  12
BRANCH   1  32
ATOM     31  N   LIG    1      -27.251  78.501  12.842  0.00  0.00    -0.246 NA
ATOM     32  C   LIG    1      -26.581  78.346  13.938  0.00  0.00    +0.233 C 
BRANCH  31  35
ATOM     33  C   LIG    1      -29.386  77.118  10.777  0.00  0.00    +0.119 C 
ATOM     34  C   LIG    1      -29.379  78.425  11.588  0.00  0.00    +0.058 C 
ATOM     35  C   LIG    1      -28.485  77.756  12.644  0.00  0.00    +0.114 C 
ATOM     36  C   LIG    1      -28.269  76.572  11.683  0.00  0.00    +0.058 C 
BRANCH  33  37
ATOM     37  O   LIG    1      -30.618  76.374  10.794  0.00  0.00    -0.392 OA
ATOM     38  H   LIG    1      -30.367  75.471  11.059  0.00  0.00    +0.210 HD
ENDBRANCH  33  37
ENDBRANCH  31  35
BRANCH  32  39
ATOM     39  O   LIG    1      -26.929  77.526  14.949  0.00  0.00    -0.491 OA
ATOM     40  H   LIG    1      -26.936  76.600  14.684  0.00  0.00    +0.294 HD
ENDBRANCH  32  39
ENDBRANCH   1  32
TORSDOF 8
ENDMDL
MODEL 7
REMARK VINA RESULT:      -6.2     19.125     20.476
REMARK  Name = pdb/CHEMBL3942060.pdb
REMARK                            x       y       z     vdW  Elec       q    Type
REMARK                         _______ _______ _______ _____ _____    ______ ____
ROOT
ATOM      1  C   LIG    1      -26.753  76.228  31.940  0.00  0.00    +0.131 C 
ATOM      2  N   LIG    1      -25.702  75.943  31.153  0.00  0.00    -0.141 NA
ATOM      3  N   LIG    1      -24.653  76.605  31.704  0.00  0.00    -0.201 N 
ATOM      4  C   LIG    1      -25.080  77.496  32.694  0.00  0.00    +0.185 C 
ATOM      5  C   LIG    1      -26.385  77.141  32.953  0.00  0.00    +0.056 C 
ENDROOT
BRANCH   3   6
ATOM      6  C   LIG    1      -23.338  76.415  31.196  0.00  0.00    +0.052 A 
ATOM      7  C   LIG    1      -22.370  75.716  31.930  0.00  0.00    +0.025 A 
ATOM      8  C   LIG    1      -21.075  75.571  31.423  0.00  0.00    +0.002 A 
ATOM      9  C   LIG    1      -20.741  76.117  30.183  0.00  0.00    +0.000 A 
ATOM     10  C   LIG    1      -21.710  76.781  29.433  0.00  0.00    +0.002 A 
ATOM     11  C   LIG    1      -23.010  76.916  29.926  0.00  0.00    +0.025 A 
ENDBRANCH   3   6
BRANCH   4  12
ATOM     12  N   LIG    1      -24.382  78.586  33.239  0.00  0.00    -0.282 N 
ATOM     13  H   LIG    1      -24.584  79.508  32.867  0.00  0.00    +0.152 HD
ATOM     14  C   LIG    1      -23.511  78.466  34.374  0.00  0.00    +0.247 C 
ATOM     15  O   LIG    1      -23.321  77.380  34.914  0.00  0.00    -0.270 OA
BRANCH  14  16
ATOM     16  C   LIG    1      -22.885  79.668  34.956  0.00  0.00    +0.056 A 
ATOM     17  C   LIG    1      -21.521  79.935  34.929  0.00  0.00    +0.054 A 
ATOM     18 CL   LIG    1      -20.361  78.865  34.242  0.00  0.00    -0.083 Cl
ATOM     19  C   LIG    1      -21.041  81.092  35.541  0.00  0.00    +0.041 A 
ATOM     20  C   LIG    1      -21.902  81.962  36.233  0.00  0.00    +0.052 A 
ATOM     21 CL   LIG    1      -21.119  83.311  36.988  0.00  0.00    -0.083 Cl
ATOM     22  C   LIG    1      -23.285  81.694  36.337  0.00  0.00    +0.022 A 
ATOM     23  C   LIG    1      -23.744  80.548  35.652  0.00  0.00    +0.026 A 
BRANCH  22  24
ATOM     24  C   LIG    1      -24.246  82.509  37.128  0.00  0.00    +0.107 A 
ATOM     25  C   LIG    1      -24.146  82.700  38.514  0.00  0.00    +0.149 A 
ATOM     26  F   LIG    1      -23.156  82.145  39.230  0.00  0.00    -0.203 F 
ATOM     27  C   LIG    1      -25.068  83.499  39.183  0.00  0.00    +0.042 A 
ATOM     28  C   LIG    1      -26.069  84.126  38.453  0.00  0.00    +0.023 A 
ATOM     29  C   LIG    1      -26.119  83.892  37.091  0.00  0.00    +0.111 A 
ATOM     30  N   LIG    1      -25.258  83.082  36.430  0.00  0.00    -0.252 NA
ENDBRANCH  22  24
ENDBRANCH  14  16
ENDBRANCH   4  12
BRANCH   1  32
ATOM     31  N   LIG    1      -28.448  74.549  32.103  0.00  0.00    -0.246 NA
ATOM     32  C   LIG    1      -28.107  75.728  31.695  0.00  0.00    +0.233 C 
BRANCH  31  35
ATOM     33  C   LIG    1      -30.676  72.170  32.434  0.00  0.00    +0.119 C 
ATOM     34  C   LIG    1      -29.861  72.711  31.247  0.00  0.00    +0.058 C 
ATOM     35  C   LIG    1      -29.818  74.094  31.917  0.00  0.00    +0.114 C 
ATOM     36  C   LIG    1      -30.372  73.464  33.208  0.00  0.00    +0.058 C 
BRANCH  33  37
ATOM     37  O   LIG    1      -32.069  71.915  32.175  0.00  0.00    -0.392 OA
ATOM     38  H   LIG    1      -32.098  71.558  31.269  0.00  0.00    +0.210 HD
ENDBRANCH  33  37
ENDBRANCH  31  35
BRANCH  32  39
ATOM     39  O   LIG    1      -28.932  76.609  31.095  0.00  0.00    -0.491 OA
ATOM     40  H   LIG    1      -28.468  77.393  30.785  0.00  0.00    +0.294 HD
ENDBRANCH  32  39
ENDBRANCH   1  32
TORSDOF 8
ENDMDL
MODEL 8
REMARK VINA RESULT:      -6.1      6.087     12.425
REMARK  Name = pdb/CHEMBL3942060.pdb
REMARK                            x       y       z     vdW  Elec       q    Type
REMARK                         _______ _______ _______ _____ _____    ______ ____
ROOT
ATOM      1  C   LIG    1      -25.543  79.374  13.982  0.00  0.00    +0.131 C 
ATOM      2  N   LIG    1      -26.125  79.405  12.771  0.00  0.00    -0.141 NA
ATOM      3  N   LIG    1      -27.052  78.414  12.795  0.00  0.00    -0.201 N 
ATOM      4  C   LIG    1      -26.899  77.604  13.925  0.00  0.00    +0.185 C 
ATOM      5  C   LIG    1      -26.050  78.305  14.752  0.00  0.00    +0.056 C 
ENDROOT
BRANCH   3   6
ATOM      6  C   LIG    1      -27.957  78.251  11.709  0.00  0.00    +0.052 A 
ATOM      7  C   LIG    1      -29.338  78.403  11.886  0.00  0.00    +0.025 A 
ATOM      8  C   LIG    1      -30.208  78.204  10.810  0.00  0.00    +0.002 A 
ATOM      9  C   LIG    1      -29.706  77.861   9.555  0.00  0.00    +0.000 A 
ATOM     10  C   LIG    1      -28.331  77.745   9.365  0.00  0.00    +0.002 A 
ATOM     11  C   LIG    1      -27.454  77.957  10.432  0.00  0.00    +0.025 A 
ENDBRANCH   3   6
BRANCH   4  12
ATOM     12  N   LIG    1      -27.403  76.311  14.140  0.00  0.00    -0.282 N 
ATOM     13  H   LIG    1      -28.334  76.227  14.534  0.00  0.00    +0.152 HD
ATOM     14  C   LIG    1      -26.720  75.125  13.705  0.00  0.00    +0.247 C 
ATOM     15  O   LIG    1      -25.636  75.193  13.132  0.00  0.00    -0.270 OA
BRANCH  14  16
ATOM     16  C   LIG    1      -27.352  73.803  13.876  0.00  0.00    +0.056 A 
ATOM     17  C   LIG    1      -28.198  73.210  12.947  0.00  0.00    +0.054 A 
ATOM     18 CL   LIG    1      -28.662  73.968  11.472  0.00  0.00    -0.083 Cl
ATOM     19  C   LIG    1      -28.761  71.968  13.233  0.00  0.00    +0.041 A 
ATOM     20  C   LIG    1      -28.535  71.331  14.467  0.00  0.00    +0.052 A 
ATOM     21 CL   LIG    1      -29.371  69.828  14.672  0.00  0.00    -0.083 Cl
ATOM     22  C   LIG    1      -27.731  71.929  15.462  0.00  0.00    +0.022 A 
ATOM     23  C   LIG    1      -27.127  73.157  15.113  0.00  0.00    +0.026 A 
BRANCH  22  24
ATOM     24  C   LIG    1      -27.519  71.370  16.825  0.00  0.00    +0.107 A 
ATOM     25  C   LIG    1      -28.495  71.389  17.832  0.00  0.00    +0.149 A 
ATOM     26  F   LIG    1      -29.707  71.928  17.628  0.00  0.00    -0.203 F 
ATOM     27  C   LIG    1      -28.233  70.822  19.076  0.00  0.00    +0.042 A 
ATOM     28  C   LIG    1      -27.005  70.212  19.292  0.00  0.00    +0.023 A 
ATOM     29  C   LIG    1      -26.082  70.234  18.261  0.00  0.00    +0.111 A 
ATOM     30  N   LIG    1      -26.303  70.820  17.061  0.00  0.00    -0.252 NA
ENDBRANCH  22  24
ENDBRANCH  14  16
ENDBRANCH   4  12
BRANCH   1  32
ATOM     31  N   LIG    1      -23.257  79.817  14.525  0.00  0.00    -0.246 NA
ATOM     32  C   LIG    1      -24.459  80.273  14.381  0.00  0.00    +0.233 C 
BRANCH  31  35
ATOM     33  C   LIG    1      -20.364  80.332  15.974  0.00  0.00    +0.119 C 
ATOM     34  C   LIG    1      -21.818  80.669  16.345  0.00  0.00    +0.058 C 
ATOM     35  C   LIG    1      -22.175  80.735  14.852  0.00  0.00    +0.114 C 
ATOM     36  C   LIG    1      -20.806  80.117  14.517  0.00  0.00    +0.058 C 
BRANCH  33  37
ATOM     37  O   LIG    1      -19.402  81.383  16.183  0.00  0.00    -0.392 OA
ATOM     38  H   LIG    1      -19.741  82.142  15.676  0.00  0.00    +0.210 HD
ENDBRANCH  33  37
ENDBRANCH  31  35
BRANCH  32  39
ATOM     39  O   LIG    1      -24.816  81.567  14.505  0.00  0.00    -0.491 OA
ATOM     40  H   LIG    1      -24.465  82.114  13.794  0.00  0.00    +0.294 HD
ENDBRANCH  32  39
ENDBRANCH   1  32
TORSDOF 8
ENDMDL
MODEL 9
REMARK VINA RESULT:      -6.0     19.194     22.077
REMARK  Name = pdb/CHEMBL3942060.pdb
REMARK                            x       y       z     vdW  Elec       q    Type
REMARK                         _______ _______ _______ _____ _____    ______ ____
ROOT
ATOM      1  C   LIG    1      -31.303  87.334  30.662  0.00  0.00    +0.131 C 
ATOM      2  N   LIG    1      -31.994  88.240  29.949  0.00  0.00    -0.141 NA
ATOM      3  N   LIG    1      -33.109  87.589  29.530  0.00  0.00    -0.201 N 
ATOM      4  C   LIG    1      -33.015  86.215  29.771  0.00  0.00    +0.185 C 
ATOM      5  C   LIG    1      -31.945  86.077  30.628  0.00  0.00    +0.056 C 
ENDROOT
BRANCH   3   6
ATOM      6  C   LIG    1      -34.142  88.297  28.855  0.00  0.00    +0.052 A 
ATOM      7  C   LIG    1      -33.870  89.473  28.143  0.00  0.00    +0.025 A 
ATOM      8  C   LIG    1      -34.909  90.168  27.515  0.00  0.00    +0.002 A 
ATOM      9  C   LIG    1      -36.218  89.691  27.589  0.00  0.00    +0.000 A 
ATOM     10  C   LIG    1      -36.488  88.503  28.263  0.00  0.00    +0.002 A 
ATOM     11  C   LIG    1      -35.452  87.794  28.880  0.00  0.00    +0.025 A 
ENDBRANCH   3   6
BRANCH   4  12
ATOM     12  N   LIG    1      -33.766  85.179  29.193  0.00  0.00    -0.282 N 
ATOM     13  H   LIG    1      -33.647  85.008  28.200  0.00  0.00    +0.152 HD
ATOM     14  C   LIG    1      -34.577  84.279  29.963  0.00  0.00    +0.247 C 
ATOM     15  O   LIG    1      -34.666  84.393  31.183  0.00  0.00    -0.270 OA
BRANCH  14  16
ATOM     16  C   LIG    1      -35.264  83.153  29.303  0.00  0.00    +0.056 A 
ATOM     17  C   LIG    1      -36.639  83.066  29.126  0.00  0.00    +0.054 A 
ATOM     18 CL   LIG    1      -37.744  84.256  29.698  0.00  0.00    -0.083 Cl
ATOM     19  C   LIG    1      -37.178  81.935  28.514  0.00  0.00    +0.041 A 
ATOM     20  C   LIG    1      -36.361  80.858  28.125  0.00  0.00    +0.052 A 
ATOM     21 CL   LIG    1      -37.212  79.511  27.444  0.00  0.00    -0.083 Cl
ATOM     22  C   LIG    1      -34.966  80.881  28.344  0.00  0.00    +0.022 A 
ATOM     23  C   LIG    1      -34.449  82.067  28.908  0.00  0.00    +0.026 A 
BRANCH  22  24
ATOM     24  C   LIG    1      -34.046  79.748  28.050  0.00  0.00    +0.107 A 
ATOM     25  C   LIG    1      -33.879  78.644  28.899  0.00  0.00    +0.149 A 
ATOM     26  F   LIG    1      -34.550  78.538  30.057  0.00  0.00    -0.203 F 
ATOM     27  C   LIG    1      -33.020  77.608  28.545  0.00  0.00    +0.042 A 
ATOM     28  C   LIG    1      -32.356  77.671  27.327  0.00  0.00    +0.023 A 
ATOM     29  C   LIG    1      -32.558  78.790  26.539  0.00  0.00    +0.111 A 
ATOM     30  N   LIG    1      -33.354  79.828  26.888  0.00  0.00    -0.252 NA
ENDBRANCH  22  24
ENDBRANCH  14  16
ENDBRANCH   4  12
BRANCH   1  32
ATOM     31  N   LIG    1      -29.860  87.467  32.563  0.00  0.00    -0.246 NA
ATOM     32  C   LIG    1      -30.009  87.613  31.287  0.00  0.00    +0.233 C 
BRANCH  31  35
ATOM     33  C   LIG    1      -28.036  87.786  35.266  0.00  0.00    +0.119 C 
ATOM     34  C   LIG    1      -28.595  88.779  34.233  0.00  0.00    +0.058 C 
ATOM     35  C   LIG    1      -28.550  87.678  33.162  0.00  0.00    +0.114 C 
ATOM     36  C   LIG    1      -28.273  86.642  34.267  0.00  0.00    +0.058 C 
BRANCH  33  37
ATOM     37  O   LIG    1      -26.666  87.993  35.658  0.00  0.00    -0.392 OA
ATOM     38  H   LIG    1      -26.296  88.591  34.984  0.00  0.00    +0.210 HD
ENDBRANCH  33  37
ENDBRANCH  31  35
BRANCH  32  39
ATOM     39  O   LIG    1      -29.028  87.951  30.426  0.00  0.00    -0.491 OA
ATOM     40  H   LIG    1      -29.344  88.014  29.519  0.00  0.00    +0.294 HD
ENDBRANCH  32  39
ENDBRANCH   1  32
TORSDOF 8
ENDMDL
