MODEL 1
REMARK VINA RESULT:      -7.2      0.000      0.000
REMARK  Name = pdb/CHEMBL3915877.pdb
REMARK                            x       y       z     vdW  Elec       q    Type
REMARK                         _______ _______ _______ _____ _____    ______ ____
ROOT
ATOM      1  C   LIG    1      -26.660  83.215  36.973  0.00  0.00    +0.323 A 
ATOM      2  N   LIG    1      -26.418  84.310  36.237  0.00  0.00    -0.201 NA
ATOM      3  C   LIG    1      -27.496  84.880  35.642  0.00  0.00    +0.145 A 
ATOM      4  C   LIG    1      -28.800  84.415  35.753  0.00  0.00    +0.105 A 
ATOM      5  C   LIG    1      -28.909  83.310  36.566  0.00  0.00    +0.145 A 
ATOM      6  N   LIG    1      -27.873  82.651  37.101  0.00  0.00    -0.201 NA
ENDROOT
BRANCH   4   7
ATOM      7  N   LIG    1      -29.893  85.055  35.160  0.00  0.00    -0.196 NA
ATOM      8  C   LIG    1      -30.475  84.629  34.071  0.00  0.00    +0.285 C 
BRANCH   8   9
ATOM      9  N   LIG    1      -31.593  85.075  33.462  0.00  0.00    -0.269 N 
ATOM     10  H   LIG    1      -32.388  84.968  34.066  0.00  0.00    +0.157 HD
BRANCH   9  11
ATOM     11  C   LIG    1      -31.768  85.927  32.352  0.00  0.00    +0.043 A 
ATOM     12  C   LIG    1      -31.251  87.259  32.297  0.00  0.00    +0.005 A 
ATOM     13  C   LIG    1      -31.600  88.020  31.147  0.00  0.00    +0.011 A 
ATOM     14  C   LIG    1      -32.429  87.535  30.124  0.00  0.00    +0.013 A 
ATOM     15  C   LIG    1      -32.940  86.244  30.192  0.00  0.00    +0.057 A 
ATOM     16  C   LIG    1      -32.582  85.463  31.293  0.00  0.00    +0.036 A 
BRANCH  12  17
ATOM     17  C   LIG    1      -30.400  87.923  33.349  0.00  0.00    +0.002 A 
ATOM     18  C   LIG    1      -30.959  88.661  34.409  0.00  0.00    +0.119 A 
ATOM     19  N   LIG    1      -30.275  89.283  35.410  0.00  0.00    -0.263 NA
ATOM     20  C   LIG    1      -28.936  89.180  35.384  0.00  0.00    +0.111 A 
ATOM     21  C   LIG    1      -28.259  88.520  34.383  0.00  0.00    +0.020 A 
ATOM     22  C   LIG    1      -28.997  87.921  33.357  0.00  0.00    +0.011 A 
ENDBRANCH  12  17
BRANCH  15  23
ATOM     23  C   LIG    1      -33.883  85.690  29.153  0.00  0.00    +0.417 C 
ATOM     24  F   LIG    1      -33.932  84.329  29.142  0.00  0.00    -0.166 F 
ATOM     25  F   LIG    1      -33.538  86.066  27.890  0.00  0.00    -0.166 F 
ATOM     26  F   LIG    1      -35.174  86.098  29.318  0.00  0.00    -0.166 F 
ENDBRANCH  15  23
ENDBRANCH   9  11
ENDBRANCH   8   9
BRANCH   8  27
ATOM     27  O   LIG    1      -29.972  83.635  33.317  0.00  0.00    -0.481 OA
ATOM     28  H   LIG    1      -30.005  82.783  33.774  0.00  0.00    +0.295 HD
ENDBRANCH   8  27
ENDBRANCH   4   7
BRANCH   1  29
ATOM     29  O   LIG    1      -25.561  82.651  37.602  0.00  0.00    -0.424 OA
BRANCH  29  33
ATOM     30  C   LIG    1      -22.736  80.467  35.396  0.00  0.00    -0.013 A 
ATOM     31  C   LIG    1      -22.457  81.788  35.735  0.00  0.00    +0.012 A 
ATOM     32  C   LIG    1      -23.392  82.551  36.423  0.00  0.00    +0.047 A 
ATOM     33  C   LIG    1      -24.597  82.002  36.861  0.00  0.00    +0.132 A 
ATOM     34  C   LIG    1      -24.898  80.687  36.495  0.00  0.00    +0.047 A 
ATOM     35  C   LIG    1      -23.979  79.931  35.755  0.00  0.00    +0.012 A 
BRANCH  30  39
ATOM     36  C   LIG    1      -23.015  77.529  32.032  0.00  0.00    +0.125 A 
ATOM     37  N   LIG    1      -23.121  78.354  33.051  0.00  0.00    -0.213 NA
ATOM     38  C   LIG    1      -21.970  78.813  33.644  0.00  0.00    +0.165 A 
ATOM     39  C   LIG    1      -21.735  79.724  34.657  0.00  0.00    +0.046 A 
ATOM     40  C   LIG    1      -20.334  79.705  34.838  0.00  0.00    +0.145 A 
ATOM     41  N   LIG    1      -19.706  78.885  34.000  0.00  0.00    -0.173 NA
ATOM     42  N   LIG    1      -20.709  78.358  33.253  0.00  0.00    -0.221 N 
ATOM     43  C   LIG    1      -20.584  77.465  32.203  0.00  0.00    +0.118 A 
ATOM     44  C   LIG    1      -21.671  77.036  31.552  0.00  0.00    +0.063 A 
BRANCH  36  46
ATOM     45  C   LIG    1      -24.963  77.964  30.579  0.00  0.00    +0.130 C 
ATOM     46  N   LIG    1      -24.155  77.049  31.381  0.00  0.00    -0.321 N 
ATOM     47  C   LIG    1      -24.215  75.649  30.951  0.00  0.00    +0.130 C 
ENDBRANCH  36  46
ENDBRANCH  30  39
ENDBRANCH  29  33
ENDBRANCH   1  29
TORSDOF 10
ENDMDL
MODEL 2
REMARK VINA RESULT:      -7.1      3.239      5.020
REMARK  Name = pdb/CHEMBL3915877.pdb
REMARK                            x       y       z     vdW  Elec       q    Type
REMARK                         _______ _______ _______ _____ _____    ______ ____
ROOT
ATOM      1  C   LIG    1      -26.056  81.587  36.947  0.00  0.00    +0.323 A 
ATOM      2  N   LIG    1      -27.377  81.421  37.107  0.00  0.00    -0.201 NA
ATOM      3  C   LIG    1      -28.135  82.543  37.020  0.00  0.00    +0.145 A 
ATOM      4  C   LIG    1      -27.639  83.816  36.775  0.00  0.00    +0.105 A 
ATOM      5  C   LIG    1      -26.274  83.836  36.595  0.00  0.00    +0.145 A 
ATOM      6  N   LIG    1      -25.467  82.780  36.762  0.00  0.00    -0.201 NA
ENDROOT
BRANCH   4   7
ATOM      7  N   LIG    1      -28.456  84.944  36.650  0.00  0.00    -0.196 NA
ATOM      8  C   LIG    1      -29.023  85.304  35.529  0.00  0.00    +0.285 C 
BRANCH   8   9
ATOM      9  N   LIG    1      -29.915  86.287  35.294  0.00  0.00    -0.269 N 
ATOM     10  H   LIG    1      -30.675  86.236  35.947  0.00  0.00    +0.157 HD
BRANCH   9  11
ATOM     11  C   LIG    1      -29.796  87.496  34.576  0.00  0.00    +0.043 A 
ATOM     12  C   LIG    1      -30.380  87.702  33.287  0.00  0.00    +0.005 A 
ATOM     13  C   LIG    1      -30.084  88.942  32.656  0.00  0.00    +0.011 A 
ATOM     14  C   LIG    1      -29.244  89.914  33.222  0.00  0.00    +0.013 A 
ATOM     15  C   LIG    1      -28.669  89.699  34.468  0.00  0.00    +0.057 A 
ATOM     16  C   LIG    1      -28.973  88.506  35.126  0.00  0.00    +0.036 A 
BRANCH  12  17
ATOM     17  C   LIG    1      -31.251  86.723  32.541  0.00  0.00    +0.002 A 
ATOM     18  C   LIG    1      -32.461  86.242  33.072  0.00  0.00    +0.119 A 
ATOM     19  N   LIG    1      -33.318  85.370  32.470  0.00  0.00    -0.263 NA
ATOM     20  C   LIG    1      -32.975  84.927  31.250  0.00  0.00    +0.111 A 
ATOM     21  C   LIG    1      -31.798  85.288  30.631  0.00  0.00    +0.020 A 
ATOM     22  C   LIG    1      -30.932  86.161  31.295  0.00  0.00    +0.011 A 
ENDBRANCH  12  17
BRANCH  15  23
ATOM     23  C   LIG    1      -27.711  90.681  35.098  0.00  0.00    +0.417 C 
ATOM     24  F   LIG    1      -26.488  90.143  35.365  0.00  0.00    -0.166 F 
ATOM     25  F   LIG    1      -28.176  91.167  36.282  0.00  0.00    -0.166 F 
ATOM     26  F   LIG    1      -27.465  91.775  34.322  0.00  0.00    -0.166 F 
ENDBRANCH  15  23
ENDBRANCH   9  11
ENDBRANCH   8   9
BRANCH   8  27
ATOM     27  O   LIG    1      -28.735  84.727  34.349  0.00  0.00    -0.481 OA
ATOM     28  H   LIG    1      -28.156  85.281  33.808  0.00  0.00    +0.295 HD
ENDBRANCH   8  27
ENDBRANCH   4   7
BRANCH   1  29
ATOM     29  O   LIG    1      -25.287  80.434  37.008  0.00  0.00    -0.424 OA
BRANCH  29  33
ATOM     30  C   LIG    1      -24.401  78.390  33.451  0.00  0.00    -0.013 A 
ATOM     31  C   LIG    1      -25.469  77.958  34.234  0.00  0.00    +0.012 A 
ATOM     32  C   LIG    1      -25.757  78.584  35.439  0.00  0.00    +0.047 A 
ATOM     33  C   LIG    1      -25.042  79.704  35.865  0.00  0.00    +0.132 A 
ATOM     34  C   LIG    1      -23.948  80.121  35.103  0.00  0.00    +0.047 A 
ATOM     35  C   LIG    1      -23.622  79.459  33.912  0.00  0.00    +0.012 A 
BRANCH  30  39
ATOM     36  C   LIG    1      -20.598  77.246  31.388  0.00  0.00    +0.125 A 
ATOM     37  N   LIG    1      -21.607  77.710  32.093  0.00  0.00    -0.213 NA
ATOM     38  C   LIG    1      -22.883  77.423  31.675  0.00  0.00    +0.165 A 
ATOM     39  C   LIG    1      -24.129  77.685  32.215  0.00  0.00    +0.046 A 
ATOM     40  C   LIG    1      -25.045  77.176  31.267  0.00  0.00    +0.145 A 
ATOM     41  N   LIG    1      -24.456  76.604  30.220  0.00  0.00    -0.173 NA
ATOM     42  N   LIG    1      -23.131  76.735  30.485  0.00  0.00    -0.221 N 
ATOM     43  C   LIG    1      -22.079  76.268  29.716  0.00  0.00    +0.118 A 
ATOM     44  C   LIG    1      -20.817  76.468  30.113  0.00  0.00    +0.063 A 
BRANCH  36  46
ATOM     45  C   LIG    1      -18.179  76.998  30.958  0.00  0.00    +0.130 C 
ATOM     46  N   LIG    1      -19.279  77.494  31.781  0.00  0.00    -0.321 N 
ATOM     47  C   LIG    1      -18.962  78.695  32.558  0.00  0.00    +0.130 C 
ENDBRANCH  36  46
ENDBRANCH  30  39
ENDBRANCH  29  33
ENDBRANCH   1  29
TORSDOF 10
ENDMDL
MODEL 3
REMARK VINA RESULT:      -7.0      1.512      2.123
REMARK  Name = pdb/CHEMBL3915877.pdb
REMARK                            x       y       z     vdW  Elec       q    Type
REMARK                         _______ _______ _______ _____ _____    ______ ____
ROOT
ATOM      1  C   LIG    1      -26.573  81.355  37.486  0.00  0.00    +0.323 A 
ATOM      2  N   LIG    1      -27.849  81.058  37.203  0.00  0.00    -0.201 NA
ATOM      3  C   LIG    1      -28.653  82.108  36.901  0.00  0.00    +0.145 A 
ATOM      4  C   LIG    1      -28.244  83.434  36.861  0.00  0.00    +0.105 A 
ATOM      5  C   LIG    1      -26.904  83.591  37.136  0.00  0.00    +0.145 A 
ATOM      6  N   LIG    1      -26.086  82.606  37.531  0.00  0.00    -0.201 NA
ENDROOT
BRANCH   4   7
ATOM      7  N   LIG    1      -29.093  84.487  36.503  0.00  0.00    -0.196 NA
ATOM      8  C   LIG    1      -29.361  84.809  35.266  0.00  0.00    +0.285 C 
BRANCH   8   9
ATOM      9  N   LIG    1      -30.238  85.712  34.784  0.00  0.00    -0.269 N 
ATOM     10  H   LIG    1      -30.809  86.077  35.524  0.00  0.00    +0.157 HD
BRANCH   9  11
ATOM     11  C   LIG    1      -30.251  86.439  33.575  0.00  0.00    +0.043 A 
ATOM     12  C   LIG    1      -29.452  87.604  33.352  0.00  0.00    +0.005 A 
ATOM     13  C   LIG    1      -29.656  88.277  32.115  0.00  0.00    +0.011 A 
ATOM     14  C   LIG    1      -30.602  87.868  31.162  0.00  0.00    +0.013 A 
ATOM     15  C   LIG    1      -31.385  86.744  31.394  0.00  0.00    +0.057 A 
ATOM     16  C   LIG    1      -31.179  86.044  32.583  0.00  0.00    +0.036 A 
BRANCH  12  17
ATOM     17  C   LIG    1      -28.443  88.184  34.311  0.00  0.00    +0.002 A 
ATOM     18  C   LIG    1      -27.271  87.495  34.671  0.00  0.00    +0.119 A 
ATOM     19  N   LIG    1      -26.299  87.940  35.516  0.00  0.00    -0.263 NA
ATOM     20  C   LIG    1      -26.476  89.157  36.056  0.00  0.00    +0.111 A 
ATOM     21  C   LIG    1      -27.597  89.921  35.818  0.00  0.00    +0.020 A 
ATOM     22  C   LIG    1      -28.586  89.414  34.969  0.00  0.00    +0.011 A 
ENDBRANCH  12  17
BRANCH  15  23
ATOM     23  C   LIG    1      -32.459  86.294  30.433  0.00  0.00    +0.417 C 
ATOM     24  F   LIG    1      -33.599  85.883  31.055  0.00  0.00    -0.166 F 
ATOM     25  F   LIG    1      -32.054  85.249  29.660  0.00  0.00    -0.166 F 
ATOM     26  F   LIG    1      -32.851  87.266  29.561  0.00  0.00    -0.166 F 
ENDBRANCH  15  23
ENDBRANCH   9  11
ENDBRANCH   8   9
BRANCH   8  27
ATOM     27  O   LIG    1      -28.711  84.274  34.217  0.00  0.00    -0.481 OA
ATOM     28  H   LIG    1      -28.962  83.352  34.069  0.00  0.00    +0.295 HD
ENDBRANCH   8  27
ENDBRANCH   4   7
BRANCH   1  29
ATOM     29  O   LIG    1      -25.746  80.277  37.767  0.00  0.00    -0.424 OA
BRANCH  29  33
ATOM     30  C   LIG    1      -22.560  79.448  35.164  0.00  0.00    -0.013 A 
ATOM     31  C   LIG    1      -22.319  79.502  36.534  0.00  0.00    +0.012 A 
ATOM     32  C   LIG    1      -23.343  79.822  37.417  0.00  0.00    +0.047 A 
ATOM     33  C   LIG    1      -24.650  80.020  36.971  0.00  0.00    +0.132 A 
ATOM     34  C   LIG    1      -24.892  80.001  35.595  0.00  0.00    +0.047 A 
ATOM     35  C   LIG    1      -23.850  79.731  34.698  0.00  0.00    +0.012 A 
BRANCH  30  39
ATOM     36  C   LIG    1      -22.285  77.165  31.324  0.00  0.00    +0.125 A 
ATOM     37  N   LIG    1      -22.536  77.745  32.478  0.00  0.00    -0.213 NA
ATOM     38  C   LIG    1      -21.507  78.382  33.127  0.00  0.00    +0.165 A 
ATOM     39  C   LIG    1      -21.450  79.134  34.286  0.00  0.00    +0.046 A 
ATOM     40  C   LIG    1      -20.083  79.456  34.439  0.00  0.00    +0.145 A 
ATOM     41  N   LIG    1      -19.319  78.988  33.455  0.00  0.00    -0.173 NA
ATOM     42  N   LIG    1      -20.198  78.352  32.640  0.00  0.00    -0.221 N 
ATOM     43  C   LIG    1      -19.914  77.717  31.443  0.00  0.00    +0.118 A 
ATOM     44  C   LIG    1      -20.893  77.136  30.742  0.00  0.00    +0.063 A 
BRANCH  36  46
ATOM     45  C   LIG    1      -23.522  75.090  30.815  0.00  0.00    +0.130 C 
ATOM     46  N   LIG    1      -23.302  76.520  30.614  0.00  0.00    -0.321 N 
ATOM     47  C   LIG    1      -24.496  77.267  30.207  0.00  0.00    +0.130 C 
ENDBRANCH  36  46
ENDBRANCH  30  39
ENDBRANCH  29  33
ENDBRANCH   1  29
TORSDOF 10
ENDMDL
MODEL 4
REMARK VINA RESULT:      -6.8      7.776     12.871
REMARK  Name = pdb/CHEMBL3915877.pdb
REMARK                            x       y       z     vdW  Elec       q    Type
REMARK                         _______ _______ _______ _____ _____    ______ ____
ROOT
ATOM      1  C   LIG    1      -28.753  75.633  32.563  0.00  0.00    +0.323 A 
ATOM      2  N   LIG    1      -28.689  76.234  33.759  0.00  0.00    -0.201 NA
ATOM      3  C   LIG    1      -27.592  77.001  33.984  0.00  0.00    +0.145 A 
ATOM      4  C   LIG    1      -26.564  77.200  33.073  0.00  0.00    +0.105 A 
ATOM      5  C   LIG    1      -26.776  76.555  31.875  0.00  0.00    +0.145 A 
ATOM      6  N   LIG    1      -27.789  75.713  31.630  0.00  0.00    -0.201 NA
ENDROOT
BRANCH   4   7
ATOM      7  N   LIG    1      -25.470  78.033  33.325  0.00  0.00    -0.196 NA
ATOM      8  C   LIG    1      -24.357  77.618  33.871  0.00  0.00    +0.285 C 
BRANCH   8   9
ATOM      9  N   LIG    1      -23.196  78.276  34.063  0.00  0.00    -0.269 N 
ATOM     10  H   LIG    1      -23.131  78.603  35.010  0.00  0.00    +0.157 HD
BRANCH   9  11
ATOM     11  C   LIG    1      -21.995  78.276  33.323  0.00  0.00    +0.043 A 
ATOM     12  C   LIG    1      -20.846  79.043  33.693  0.00  0.00    +0.005 A 
ATOM     13  C   LIG    1      -19.751  79.008  32.786  0.00  0.00    +0.011 A 
ATOM     14  C   LIG    1      -19.775  78.300  31.574  0.00  0.00    +0.013 A 
ATOM     15  C   LIG    1      -20.901  77.570  31.215  0.00  0.00    +0.057 A 
ATOM     16  C   LIG    1      -21.977  77.557  32.105  0.00  0.00    +0.036 A 
BRANCH  12  17
ATOM     17  C   LIG    1      -20.708  79.891  34.932  0.00  0.00    +0.002 A 
ATOM     18  C   LIG    1      -19.925  79.490  36.030  0.00  0.00    +0.119 A 
ATOM     19  N   LIG    1      -19.730  80.191  37.182  0.00  0.00    -0.263 NA
ATOM     20  C   LIG    1      -20.343  81.381  37.279  0.00  0.00    +0.111 A 
ATOM     21  C   LIG    1      -21.170  81.876  36.294  0.00  0.00    +0.020 A 
ATOM     22  C   LIG    1      -21.368  81.111  35.140  0.00  0.00    +0.011 A 
ENDBRANCH  12  17
BRANCH  15  23
ATOM     23  C   LIG    1      -21.007  76.840  29.899  0.00  0.00    +0.417 C 
ATOM     24  F   LIG    1      -19.988  77.126  29.041  0.00  0.00    -0.166 F 
ATOM     25  F   LIG    1      -22.156  77.141  29.233  0.00  0.00    -0.166 F 
ATOM     26  F   LIG    1      -21.002  75.482  30.028  0.00  0.00    -0.166 F 
ENDBRANCH  15  23
ENDBRANCH   9  11
ENDBRANCH   8   9
BRANCH   8  27
ATOM     27  O   LIG    1      -24.221  76.391  34.403  0.00  0.00    -0.481 OA
ATOM     28  H   LIG    1      -25.072  75.941  34.495  0.00  0.00    +0.295 HD
ENDBRANCH   8  27
ENDBRANCH   4   7
BRANCH   1  29
ATOM     29  O   LIG    1      -29.888  74.872  32.324  0.00  0.00    -0.424 OA
BRANCH  29  33
ATOM     30  C   LIG    1      -32.830  76.394  29.748  0.00  0.00    -0.013 A 
ATOM     31  C   LIG    1      -33.035  76.458  31.124  0.00  0.00    +0.012 A 
ATOM     32  C   LIG    1      -32.102  75.920  32.000  0.00  0.00    +0.047 A 
ATOM     33  C   LIG    1      -30.904  75.373  31.539  0.00  0.00    +0.132 A 
ATOM     34  C   LIG    1      -30.708  75.274  30.159  0.00  0.00    +0.047 A 
ATOM     35  C   LIG    1      -31.672  75.769  29.271  0.00  0.00    +0.012 A 
BRANCH  30  39
ATOM     36  C   LIG    1      -36.302  74.566  27.595  0.00  0.00    +0.125 A 
ATOM     37  N   LIG    1      -35.213  74.922  28.241  0.00  0.00    -0.213 NA
ATOM     38  C   LIG    1      -34.861  76.250  28.248  0.00  0.00    +0.165 A 
ATOM     39  C   LIG    1      -33.848  76.949  28.878  0.00  0.00    +0.046 A 
ATOM     40  C   LIG    1      -33.998  78.280  28.430  0.00  0.00    +0.145 A 
ATOM     41  N   LIG    1      -35.033  78.446  27.610  0.00  0.00    -0.173 NA
ATOM     42  N   LIG    1      -35.575  77.205  27.520  0.00  0.00    -0.221 N 
ATOM     43  C   LIG    1      -36.705  76.839  26.809  0.00  0.00    +0.118 A 
ATOM     44  C   LIG    1      -37.124  75.569  26.821  0.00  0.00    +0.063 A 
BRANCH  36  46
ATOM     45  C   LIG    1      -37.572  72.762  26.488  0.00  0.00    +0.130 C 
ATOM     46  N   LIG    1      -36.714  73.231  27.573  0.00  0.00    -0.321 N 
ATOM     47  C   LIG    1      -35.865  72.194  28.167  0.00  0.00    +0.130 C 
ENDBRANCH  36  46
ENDBRANCH  30  39
ENDBRANCH  29  33
ENDBRANCH   1  29
TORSDOF 10
ENDMDL
MODEL 5
REMARK VINA RESULT:      -6.8     19.645     23.279
REMARK  Name = pdb/CHEMBL3915877.pdb
REMARK                            x       y       z     vdW  Elec       q    Type
REMARK                         _______ _______ _______ _____ _____    ______ ____
ROOT
ATOM      1  C   LIG    1      -25.957  77.538  13.987  0.00  0.00    +0.323 A 
ATOM      2  N   LIG    1      -24.986  77.941  13.156  0.00  0.00    -0.201 NA
ATOM      3  C   LIG    1      -24.230  78.984  13.582  0.00  0.00    +0.145 A 
ATOM      4  C   LIG    1      -24.393  79.637  14.797  0.00  0.00    +0.105 A 
ATOM      5  C   LIG    1      -25.401  79.098  15.565  0.00  0.00    +0.145 A 
ATOM      6  N   LIG    1      -26.237  78.133  15.159  0.00  0.00    -0.201 NA
ENDROOT
BRANCH   4   7
ATOM      7  N   LIG    1      -23.566  80.682  15.221  0.00  0.00    -0.196 NA
ATOM      8  C   LIG    1      -23.771  81.935  14.912  0.00  0.00    +0.285 C 
BRANCH   8   9
ATOM      9  N   LIG    1      -23.130  83.042  15.340  0.00  0.00    -0.269 N 
ATOM     10  H   LIG    1      -23.148  83.091  16.343  0.00  0.00    +0.157 HD
BRANCH   9  11
ATOM     11  C   LIG    1      -22.204  83.887  14.694  0.00  0.00    +0.043 A 
ATOM     12  C   LIG    1      -20.918  83.447  14.251  0.00  0.00    +0.005 A 
ATOM     13  C   LIG    1      -20.066  84.447  13.706  0.00  0.00    +0.011 A 
ATOM     14  C   LIG    1      -20.423  85.802  13.624  0.00  0.00    +0.013 A 
ATOM     15  C   LIG    1      -21.669  86.224  14.070  0.00  0.00    +0.057 A 
ATOM     16  C   LIG    1      -22.539  85.255  14.575  0.00  0.00    +0.036 A 
BRANCH  12  17
ATOM     17  C   LIG    1      -20.386  82.038  14.333  0.00  0.00    +0.002 A 
ATOM     18  C   LIG    1      -20.351  81.185  13.215  0.00  0.00    +0.119 A 
ATOM     19  N   LIG    1      -19.879  79.907  13.188  0.00  0.00    -0.263 NA
ATOM     20  C   LIG    1      -19.399  79.414  14.340  0.00  0.00    +0.111 A 
ATOM     21  C   LIG    1      -19.410  80.128  15.518  0.00  0.00    +0.020 A 
ATOM     22  C   LIG    1      -19.931  81.425  15.510  0.00  0.00    +0.011 A 
ENDBRANCH  12  17
BRANCH  15  23
ATOM     23  C   LIG    1      -22.084  87.675  14.062  0.00  0.00    +0.417 C 
ATOM     24  F   LIG    1      -23.050  87.953  13.142  0.00  0.00    -0.166 F 
ATOM     25  F   LIG    1      -21.044  88.508  13.781  0.00  0.00    -0.166 F 
ATOM     26  F   LIG    1      -22.586  88.104  15.256  0.00  0.00    -0.166 F 
ENDBRANCH  15  23
ENDBRANCH   9  11
ENDBRANCH   8   9
BRANCH   8  27
ATOM     27  O   LIG    1      -24.694  82.323  14.013  0.00  0.00    -0.481 OA
ATOM     28  H   LIG    1      -24.895  81.622  13.378  0.00  0.00    +0.295 HD
ENDBRANCH   8  27
ENDBRANCH   4   7
BRANCH   1  29
ATOM     29  O   LIG    1      -26.710  76.454  13.562  0.00  0.00    -0.424 OA
BRANCH  29  33
ATOM     30  C   LIG    1      -30.045  77.262  11.145  0.00  0.00    -0.013 A 
ATOM     31  C   LIG    1      -29.599  75.948  11.268  0.00  0.00    +0.012 A 
ATOM     32  C   LIG    1      -28.469  75.656  12.021  0.00  0.00    +0.047 A 
ATOM     33  C   LIG    1      -27.797  76.647  12.737  0.00  0.00    +0.132 A 
ATOM     34  C   LIG    1      -28.219  77.971  12.591  0.00  0.00    +0.047 A 
ATOM     35  C   LIG    1      -29.326  78.276  11.788  0.00  0.00    +0.012 A 
BRANCH  30  39
ATOM     36  C   LIG    1      -32.097  81.029   9.872  0.00  0.00    +0.125 A 
ATOM     37  N   LIG    1      -31.412  80.030  10.385  0.00  0.00    -0.213 NA
ATOM     38  C   LIG    1      -31.762  78.749  10.035  0.00  0.00    +0.165 A 
ATOM     39  C   LIG    1      -31.214  77.513  10.327  0.00  0.00    +0.046 A 
ATOM     40  C   LIG    1      -32.080  76.583   9.710  0.00  0.00    +0.145 A 
ATOM     41  N   LIG    1      -33.082  77.155   9.047  0.00  0.00    -0.173 NA
ATOM     42  N   LIG    1      -32.870  78.483   9.228  0.00  0.00    -0.221 N 
ATOM     43  C   LIG    1      -33.620  79.523   8.707  0.00  0.00    +0.118 A 
ATOM     44  C   LIG    1      -33.283  80.791   8.968  0.00  0.00    +0.063 A 
BRANCH  36  46
ATOM     45  C   LIG    1      -30.567  82.948   9.603  0.00  0.00    +0.130 C 
ATOM     46  N   LIG    1      -31.769  82.353  10.181  0.00  0.00    -0.321 N 
ATOM     47  C   LIG    1      -32.830  83.312  10.500  0.00  0.00    +0.130 C 
ENDBRANCH  36  46
ENDBRANCH  30  39
ENDBRANCH  29  33
ENDBRANCH   1  29
TORSDOF 10
ENDMDL
MODEL 6
REMARK VINA RESULT:      -6.7      9.567     15.098
REMARK  Name = pdb/CHEMBL3915877.pdb
REMARK                            x       y       z     vdW  Elec       q    Type
REMARK                         _______ _______ _______ _____ _____    ______ ____
ROOT
ATOM      1  C   LIG    1      -36.278  80.072  29.864  0.00  0.00    +0.323 A 
ATOM      2  N   LIG    1      -37.302  80.069  28.998  0.00  0.00    -0.201 NA
ATOM      3  C   LIG    1      -37.242  79.147  28.004  0.00  0.00    +0.145 A 
ATOM      4  C   LIG    1      -36.215  78.227  27.838  0.00  0.00    +0.105 A 
ATOM      5  C   LIG    1      -35.250  78.318  28.816  0.00  0.00    +0.145 A 
ATOM      6  N   LIG    1      -35.209  79.264  29.763  0.00  0.00    -0.201 NA
ENDROOT
BRANCH   4   7
ATOM      7  N   LIG    1      -36.208  77.263  26.825  0.00  0.00    -0.196 NA
ATOM      8  C   LIG    1      -36.858  76.132  26.901  0.00  0.00    +0.285 C 
BRANCH   8   9
ATOM      9  N   LIG    1      -37.031  75.176  25.966  0.00  0.00    -0.269 N 
ATOM     10  H   LIG    1      -36.250  74.545  25.961  0.00  0.00    +0.157 HD
BRANCH   9  11
ATOM     11  C   LIG    1      -38.190  74.734  25.294  0.00  0.00    +0.043 A 
ATOM     12  C   LIG    1      -38.457  73.357  25.015  0.00  0.00    +0.005 A 
ATOM     13  C   LIG    1      -39.620  73.088  24.243  0.00  0.00    +0.011 A 
ATOM     14  C   LIG    1      -40.461  74.093  23.740  0.00  0.00    +0.013 A 
ATOM     15  C   LIG    1      -40.186  75.429  24.003  0.00  0.00    +0.057 A 
ATOM     16  C   LIG    1      -39.070  75.719  24.791  0.00  0.00    +0.036 A 
BRANCH  12  17
ATOM     17  C   LIG    1      -37.609  72.185  25.443  0.00  0.00    +0.002 A 
ATOM     18  C   LIG    1      -36.928  71.375  24.516  0.00  0.00    +0.119 A 
ATOM     19  N   LIG    1      -36.132  70.309  24.807  0.00  0.00    -0.263 NA
ATOM     20  C   LIG    1      -35.981  70.001  26.104  0.00  0.00    +0.111 A 
ATOM     21  C   LIG    1      -36.622  70.687  27.113  0.00  0.00    +0.020 A 
ATOM     22  C   LIG    1      -37.454  71.757  26.770  0.00  0.00    +0.011 A 
ENDBRANCH  12  17
BRANCH  15  23
ATOM     23  C   LIG    1      -41.020  76.554  23.439  0.00  0.00    +0.417 C 
ATOM     24  F   LIG    1      -41.999  76.126  22.595  0.00  0.00    -0.166 F 
ATOM     25  F   LIG    1      -40.273  77.445  22.730  0.00  0.00    -0.166 F 
ATOM     26  F   LIG    1      -41.659  77.289  24.394  0.00  0.00    -0.166 F 
ENDBRANCH  15  23
ENDBRANCH   9  11
ENDBRANCH   8   9
BRANCH   8  27
ATOM     27  O   LIG    1      -37.452  75.708  28.031  0.00  0.00    -0.481 OA
ATOM     28  H   LIG    1      -38.043  76.378  28.401  0.00  0.00    +0.295 HD
ENDBRANCH   8  27
ENDBRANCH   4   7
BRANCH   1  29
ATOM     29  O   LIG    1      -36.356  80.996  30.895  0.00  0.00    -0.424 OA
BRANCH  29  33
ATOM     30  C   LIG    1      -33.730  84.265  30.717  0.00  0.00    -0.013 A 
ATOM     31  C   LIG    1      -34.248  83.878  31.951  0.00  0.00    +0.012 A 
ATOM     32  C   LIG    1      -35.157  82.831  32.035  0.00  0.00    +0.047 A 
ATOM     33  C   LIG    1      -35.516  82.089  30.909  0.00  0.00    +0.132 A 
ATOM     34  C   LIG    1      -35.027  82.493  29.665  0.00  0.00    +0.047 A 
ATOM     35  C   LIG    1      -34.151  83.584  29.569  0.00  0.00    +0.012 A 
BRANCH  30  39
ATOM     36  C   LIG    1      -34.022  88.393  29.012  0.00  0.00    +0.125 A 
ATOM     37  N   LIG    1      -34.085  87.136  29.396  0.00  0.00    -0.213 NA
ATOM     38  C   LIG    1      -33.021  86.609  30.087  0.00  0.00    +0.165 A 
ATOM     39  C   LIG    1      -32.805  85.380  30.683  0.00  0.00    +0.046 A 
ATOM     40  C   LIG    1      -31.483  85.449  31.177  0.00  0.00    +0.145 A 
ATOM     41  N   LIG    1      -30.898  86.623  30.956  0.00  0.00    -0.173 NA
ATOM     42  N   LIG    1      -31.852  87.340  30.309  0.00  0.00    -0.221 N 
ATOM     43  C   LIG    1      -31.759  88.654  29.882  0.00  0.00    +0.118 A 
ATOM     44  C   LIG    1      -32.792  89.233  29.260  0.00  0.00    +0.063 A 
BRANCH  36  46
ATOM     45  C   LIG    1      -35.883  88.174  27.405  0.00  0.00    +0.130 C 
ATOM     46  N   LIG    1      -35.086  88.983  28.324  0.00  0.00    -0.321 N 
ATOM     47  C   LIG    1      -35.805  90.112  28.920  0.00  0.00    +0.130 C 
ENDBRANCH  36  46
ENDBRANCH  30  39
ENDBRANCH  29  33
ENDBRANCH   1  29
TORSDOF 10
ENDMDL
MODEL 7
REMARK VINA RESULT:      -6.7      7.056     12.345
REMARK  Name = pdb/CHEMBL3915877.pdb
REMARK                            x       y       z     vdW  Elec       q    Type
REMARK                         _______ _______ _______ _____ _____    ______ ____
ROOT
ATOM      1  C   LIG    1      -35.059  83.068  30.018  0.00  0.00    +0.323 A 
ATOM      2  N   LIG    1      -34.831  81.934  30.696  0.00  0.00    -0.201 NA
ATOM      3  C   LIG    1      -34.900  80.785  29.977  0.00  0.00    +0.145 A 
ATOM      4  C   LIG    1      -35.179  80.715  28.619  0.00  0.00    +0.105 A 
ATOM      5  C   LIG    1      -35.356  81.953  28.043  0.00  0.00    +0.145 A 
ATOM      6  N   LIG    1      -35.391  83.111  28.717  0.00  0.00    -0.201 NA
ENDROOT
BRANCH   4   7
ATOM      7  N   LIG    1      -35.201  79.514  27.903  0.00  0.00    -0.196 NA
ATOM      8  C   LIG    1      -34.123  78.890  27.509  0.00  0.00    +0.285 C 
BRANCH   8   9
ATOM      9  N   LIG    1      -33.995  77.684  26.920  0.00  0.00    -0.269 N 
ATOM     10  H   LIG    1      -33.357  77.736  26.147  0.00  0.00    +0.157 HD
BRANCH   9  11
ATOM     11  C   LIG    1      -34.302  76.387  27.384  0.00  0.00    +0.043 A 
ATOM     12  C   LIG    1      -35.600  75.799  27.265  0.00  0.00    +0.005 A 
ATOM     13  C   LIG    1      -35.768  74.524  27.872  0.00  0.00    +0.011 A 
ATOM     14  C   LIG    1      -34.750  73.867  28.583  0.00  0.00    +0.013 A 
ATOM     15  C   LIG    1      -33.497  74.453  28.706  0.00  0.00    +0.057 A 
ATOM     16  C   LIG    1      -33.294  75.689  28.088  0.00  0.00    +0.036 A 
BRANCH  12  17
ATOM     17  C   LIG    1      -36.794  76.416  26.581  0.00  0.00    +0.002 A 
ATOM     18  C   LIG    1      -37.657  77.307  27.243  0.00  0.00    +0.119 A 
ATOM     19  N   LIG    1      -38.748  77.924  26.708  0.00  0.00    -0.263 NA
ATOM     20  C   LIG    1      -39.025  77.655  25.422  0.00  0.00    +0.111 A 
ATOM     21  C   LIG    1      -38.285  76.771  24.669  0.00  0.00    +0.020 A 
ATOM     22  C   LIG    1      -37.191  76.137  25.265  0.00  0.00    +0.011 A 
ENDBRANCH  12  17
BRANCH  15  23
ATOM     23  C   LIG    1      -32.384  73.823  29.509  0.00  0.00    +0.417 C 
ATOM     24  F   LIG    1      -32.041  72.581  29.068  0.00  0.00    -0.166 F 
ATOM     25  F   LIG    1      -32.712  73.681  30.822  0.00  0.00    -0.166 F 
ATOM     26  F   LIG    1      -31.228  74.546  29.495  0.00  0.00    -0.166 F 
ENDBRANCH  15  23
ENDBRANCH   9  11
ENDBRANCH   8   9
BRANCH   8  27
ATOM     27  O   LIG    1      -32.894  79.430  27.598  0.00  0.00    -0.481 OA
ATOM     28  H   LIG    1      -32.467  79.501  26.733  0.00  0.00    +0.295 HD
ENDBRANCH   8  27
ENDBRANCH   4   7
BRANCH   1  29
ATOM     29  O   LIG    1      -34.959  84.243  30.748  0.00  0.00    -0.424 OA
BRANCH  29  33
ATOM     30  C   LIG    1      -31.522  84.846  33.080  0.00  0.00    -0.013 A 
ATOM     31  C   LIG    1      -32.744  84.637  33.715  0.00  0.00    +0.012 A 
ATOM     32  C   LIG    1      -33.906  84.483  32.971  0.00  0.00    +0.047 A 
ATOM     33  C   LIG    1      -33.877  84.453  31.576  0.00  0.00    +0.132 A 
ATOM     34  C   LIG    1      -32.661  84.696  30.933  0.00  0.00    +0.047 A 
ATOM     35  C   LIG    1      -31.495  84.906  31.681  0.00  0.00    +0.012 A 
BRANCH  30  39
ATOM     36  C   LIG    1      -29.023  88.429  34.052  0.00  0.00    +0.125 A 
ATOM     37  N   LIG    1      -29.823  87.480  33.616  0.00  0.00    -0.213 NA
ATOM     38  C   LIG    1      -29.647  86.205  34.095  0.00  0.00    +0.165 A 
ATOM     39  C   LIG    1      -30.344  85.026  33.905  0.00  0.00    +0.046 A 
ATOM     40  C   LIG    1      -29.616  84.058  34.631  0.00  0.00    +0.145 A 
ATOM     41  N   LIG    1      -28.559  84.560  35.266  0.00  0.00    -0.173 NA
ATOM     42  N   LIG    1      -28.595  85.880  34.955  0.00  0.00    -0.221 N 
ATOM     43  C   LIG    1      -27.727  86.863  35.397  0.00  0.00    +0.118 A 
ATOM     44  C   LIG    1      -27.893  88.132  35.009  0.00  0.00    +0.063 A 
BRANCH  36  46
ATOM     45  C   LIG    1      -30.390  90.134  32.903  0.00  0.00    +0.130 C 
ATOM     46  N   LIG    1      -29.172  89.747  33.611  0.00  0.00    -0.321 N 
ATOM     47  C   LIG    1      -28.519  90.840  34.338  0.00  0.00    +0.130 C 
ENDBRANCH  36  46
ENDBRANCH  30  39
ENDBRANCH  29  33
ENDBRANCH   1  29
TORSDOF 10
ENDMDL
MODEL 8
REMARK VINA RESULT:      -6.7      8.766     13.490
REMARK  Name = pdb/CHEMBL3915877.pdb
REMARK                            x       y       z     vdW  Elec       q    Type
REMARK                         _______ _______ _______ _____ _____    ______ ____
ROOT
ATOM      1  C   LIG    1      -29.768  74.949  31.920  0.00  0.00    +0.323 A 
ATOM      2  N   LIG    1      -28.638  74.269  32.162  0.00  0.00    -0.201 NA
ATOM      3  C   LIG    1      -27.511  75.013  32.296  0.00  0.00    +0.145 A 
ATOM      4  C   LIG    1      -27.460  76.397  32.207  0.00  0.00    +0.105 A 
ATOM      5  C   LIG    1      -28.694  76.968  31.993  0.00  0.00    +0.145 A 
ATOM      6  N   LIG    1      -29.822  76.283  31.760  0.00  0.00    -0.201 NA
ENDROOT
BRANCH   4   7
ATOM      7  N   LIG    1      -26.285  77.133  32.394  0.00  0.00    -0.196 NA
ATOM      8  C   LIG    1      -25.433  77.388  31.436  0.00  0.00    +0.285 C 
BRANCH   8   9
ATOM      9  N   LIG    1      -24.335  78.171  31.449  0.00  0.00    -0.269 N 
ATOM     10  H   LIG    1      -24.588  79.132  31.310  0.00  0.00    +0.157 HD
BRANCH   9  11
ATOM     11  C   LIG    1      -23.034  77.936  31.941  0.00  0.00    +0.043 A 
ATOM     12  C   LIG    1      -22.603  78.340  33.243  0.00  0.00    +0.005 A 
ATOM     13  C   LIG    1      -21.233  78.117  33.548  0.00  0.00    +0.011 A 
ATOM     14  C   LIG    1      -20.320  77.564  32.635  0.00  0.00    +0.013 A 
ATOM     15  C   LIG    1      -20.743  77.188  31.367  0.00  0.00    +0.057 A 
ATOM     16  C   LIG    1      -22.093  77.363  31.055  0.00  0.00    +0.036 A 
BRANCH  12  17
ATOM     17  C   LIG    1      -23.461  78.996  34.296  0.00  0.00    +0.002 A 
ATOM     18  C   LIG    1      -23.235  80.314  34.733  0.00  0.00    +0.119 A 
ATOM     19  N   LIG    1      -23.962  80.992  35.664  0.00  0.00    -0.263 NA
ATOM     20  C   LIG    1      -24.995  80.340  36.220  0.00  0.00    +0.111 A 
ATOM     21  C   LIG    1      -25.303  79.033  35.913  0.00  0.00    +0.020 A 
ATOM     22  C   LIG    1      -24.515  78.362  34.973  0.00  0.00    +0.011 A 
ENDBRANCH  12  17
BRANCH  15  23
ATOM     23  C   LIG    1      -19.796  76.645  30.325  0.00  0.00    +0.417 C 
ATOM     24  F   LIG    1      -19.572  75.307  30.446  0.00  0.00    -0.166 F 
ATOM     25  F   LIG    1      -18.572  77.239  30.381  0.00  0.00    -0.166 F 
ATOM     26  F   LIG    1      -20.233  76.825  29.046  0.00  0.00    -0.166 F 
ENDBRANCH  15  23
ENDBRANCH   9  11
ENDBRANCH   8   9
BRANCH   8  27
ATOM     27  O   LIG    1      -25.514  76.821  30.220  0.00  0.00    -0.481 OA
ATOM     28  H   LIG    1      -25.625  75.862  30.276  0.00  0.00    +0.295 HD
ENDBRANCH   8  27
ENDBRANCH   4   7
BRANCH   1  29
ATOM     29  O   LIG    1      -30.923  74.190  31.811  0.00  0.00    -0.424 OA
BRANCH  29  33
ATOM     30  C   LIG    1      -33.901  75.404  29.114  0.00  0.00    -0.013 A 
ATOM     31  C   LIG    1      -34.042  75.714  30.464  0.00  0.00    +0.012 A 
ATOM     32  C   LIG    1      -33.098  75.284  31.388  0.00  0.00    +0.047 A 
ATOM     33  C   LIG    1      -31.948  74.602  30.987  0.00  0.00    +0.132 A 
ATOM     34  C   LIG    1      -31.817  74.258  29.639  0.00  0.00    +0.047 A 
ATOM     35  C   LIG    1      -32.795  74.644  28.712  0.00  0.00    +0.012 A 
BRANCH  30  39
ATOM     36  C   LIG    1      -37.169  73.262  26.932  0.00  0.00    +0.125 A 
ATOM     37  N   LIG    1      -36.127  73.716  27.595  0.00  0.00    -0.213 NA
ATOM     38  C   LIG    1      -35.870  75.065  27.565  0.00  0.00    +0.165 A 
ATOM     39  C   LIG    1      -34.928  75.855  28.197  0.00  0.00    +0.046 A 
ATOM     40  C   LIG    1      -35.159  77.157  27.698  0.00  0.00    +0.145 A 
ATOM     41  N   LIG    1      -36.178  77.221  26.845  0.00  0.00    -0.173 NA
ATOM     42  N   LIG    1      -36.627  75.942  26.784  0.00  0.00    -0.221 N 
ATOM     43  C   LIG    1      -37.707  75.473  26.056  0.00  0.00    +0.118 A 
ATOM     44  C   LIG    1      -38.036  74.177  26.101  0.00  0.00    +0.063 A 
BRANCH  36  46
ATOM     45  C   LIG    1      -37.399  71.131  25.707  0.00  0.00    +0.130 C 
ATOM     46  N   LIG    1      -37.485  71.900  26.946  0.00  0.00    -0.321 N 
ATOM     47  C   LIG    1      -37.277  71.114  28.165  0.00  0.00    +0.130 C 
ENDBRANCH  36  46
ENDBRANCH  30  39
ENDBRANCH  29  33
ENDBRANCH   1  29
TORSDOF 10
ENDMDL
MODEL 9
REMARK VINA RESULT:      -6.6      6.144     13.887
REMARK  Name = pdb/CHEMBL3915877.pdb
REMARK                            x       y       z     vdW  Elec       q    Type
REMARK                         _______ _______ _______ _____ _____    ______ ____
ROOT
ATOM      1  C   LIG    1      -32.974  76.562  30.289  0.00  0.00    +0.323 A 
ATOM      2  N   LIG    1      -32.033  76.411  29.346  0.00  0.00    -0.201 NA
ATOM      3  C   LIG    1      -30.801  76.050  29.786  0.00  0.00    +0.145 A 
ATOM      4  C   LIG    1      -30.467  75.827  31.115  0.00  0.00    +0.105 A 
ATOM      5  C   LIG    1      -31.536  75.982  31.970  0.00  0.00    +0.145 A 
ATOM      6  N   LIG    1      -32.746  76.426  31.606  0.00  0.00    -0.201 NA
ENDROOT
BRANCH   4   7
ATOM      7  N   LIG    1      -29.196  75.414  31.526  0.00  0.00    -0.196 NA
ATOM      8  C   LIG    1      -28.215  76.240  31.776  0.00  0.00    +0.285 C 
BRANCH   8   9
ATOM      9  N   LIG    1      -26.990  75.991  32.283  0.00  0.00    -0.269 N 
ATOM     10  H   LIG    1      -27.032  75.921  33.284  0.00  0.00    +0.157 HD
BRANCH   9  11
ATOM     11  C   LIG    1      -25.817  75.496  31.676  0.00  0.00    +0.043 A 
ATOM     12  C   LIG    1      -25.438  74.117  31.711  0.00  0.00    +0.005 A 
ATOM     13  C   LIG    1      -24.177  73.799  31.136  0.00  0.00    +0.011 A 
ATOM     14  C   LIG    1      -23.315  74.761  30.586  0.00  0.00    +0.013 A 
ATOM     15  C   LIG    1      -23.685  76.100  30.570  0.00  0.00    +0.057 A 
ATOM     16  C   LIG    1      -24.934  76.435  31.095  0.00  0.00    +0.036 A 
BRANCH  12  17
ATOM     17  C   LIG    1      -26.239  72.993  32.319  0.00  0.00    +0.002 A 
ATOM     18  C   LIG    1      -26.974  72.088  31.532  0.00  0.00    +0.119 A 
ATOM     19  N   LIG    1      -27.714  71.037  31.987  0.00  0.00    -0.263 NA
ATOM     20  C   LIG    1      -27.743  70.847  33.316  0.00  0.00    +0.111 A 
ATOM     21  C   LIG    1      -27.100  71.682  34.202  0.00  0.00    +0.020 A 
ATOM     22  C   LIG    1      -26.376  72.767  33.697  0.00  0.00    +0.011 A 
ENDBRANCH  12  17
BRANCH  15  23
ATOM     23  C   LIG    1      -22.774  77.185  30.048  0.00  0.00    +0.417 C 
ATOM     24  F   LIG    1      -21.953  76.762  29.047  0.00  0.00    -0.166 F 
ATOM     25  F   LIG    1      -21.960  77.686  31.017  0.00  0.00    -0.166 F 
ATOM     26  F   LIG    1      -23.444  78.259  29.539  0.00  0.00    -0.166 F 
ENDBRANCH  15  23
ENDBRANCH   9  11
ENDBRANCH   8   9
BRANCH   8  27
ATOM     27  O   LIG    1      -28.278  77.554  31.494  0.00  0.00    -0.481 OA
ATOM     28  H   LIG    1      -28.253  78.096  32.294  0.00  0.00    +0.295 HD
ENDBRANCH   8  27
ENDBRANCH   4   7
BRANCH   1  29
ATOM     29  O   LIG    1      -34.239  76.904  29.835  0.00  0.00    -0.424 OA
BRANCH  29  33
ATOM     30  C   LIG    1      -35.189  80.884  28.901  0.00  0.00    -0.013 A 
ATOM     31  C   LIG    1      -34.737  80.040  27.890  0.00  0.00    +0.012 A 
ATOM     32  C   LIG    1      -34.369  78.732  28.177  0.00  0.00    +0.047 A 
ATOM     33  C   LIG    1      -34.513  78.202  29.459  0.00  0.00    +0.132 A 
ATOM     34  C   LIG    1      -34.933  79.053  30.485  0.00  0.00    +0.047 A 
ATOM     35  C   LIG    1      -35.254  80.388  30.209  0.00  0.00    +0.012 A 
BRANCH  30  39
ATOM     36  C   LIG    1      -33.766  84.853  30.401  0.00  0.00    +0.125 A 
ATOM     37  N   LIG    1      -34.110  83.614  30.125  0.00  0.00    -0.213 NA
ATOM     38  C   LIG    1      -35.029  83.397  29.127  0.00  0.00    +0.165 A 
ATOM     39  C   LIG    1      -35.535  82.247  28.551  0.00  0.00    +0.046 A 
ATOM     40  C   LIG    1      -36.491  82.704  27.616  0.00  0.00    +0.145 A 
ATOM     41  N   LIG    1      -36.579  84.031  27.559  0.00  0.00    -0.173 NA
ATOM     42  N   LIG    1      -35.664  84.453  28.469  0.00  0.00    -0.221 N 
ATOM     43  C   LIG    1      -35.335  85.763  28.772  0.00  0.00    +0.118 A 
ATOM     44  C   LIG    1      -34.402  86.026  29.693  0.00  0.00    +0.063 A 
BRANCH  36  46
ATOM     45  C   LIG    1      -33.160  84.880  32.794  0.00  0.00    +0.130 C 
ATOM     46  N   LIG    1      -32.822  85.127  31.395  0.00  0.00    -0.321 N 
ATOM     47  C   LIG    1      -31.391  85.031  31.089  0.00  0.00    +0.130 C 
ENDBRANCH  36  46
ENDBRANCH  30  39
ENDBRANCH  29  33
ENDBRANCH   1  29
TORSDOF 10
ENDMDL
