MODEL 1
REMARK VINA RESULT:      -6.0      0.000      0.000
REMARK  Name = pdb/CHEMBL3671149.pdb
REMARK                            x       y       z     vdW  Elec       q    Type
REMARK                         _______ _______ _______ _____ _____    ______ ____
ROOT
ATOM      1  C   LIG    1      -20.202  77.167  30.571  0.00  0.00    +0.100 A 
ATOM      2  C   LIG    1      -19.984  77.828  31.767  0.00  0.00    +0.170 A 
ATOM      3  N   LIG    1      -20.825  78.519  32.611  0.00  0.00    -0.212 NA
ATOM      4  C   LIG    1      -20.328  78.989  33.737  0.00  0.00    +0.126 A 
ATOM      5  C   LIG    1      -18.880  78.777  34.115  0.00  0.00    +0.063 A 
ATOM      6  C   LIG    1      -18.105  78.113  33.253  0.00  0.00    +0.118 A 
ATOM      7  N   LIG    1      -18.634  77.639  32.066  0.00  0.00    -0.221 N 
ATOM      8  N   LIG    1      -17.985  76.943  31.104  0.00  0.00    -0.173 NA
ATOM      9  C   LIG    1      -18.939  76.645  30.222  0.00  0.00    +0.150 A 
ENDROOT
BRANCH   4  10
ATOM     10  N   LIG    1      -21.153  79.670  34.617  0.00  0.00    -0.308 N 
ATOM     11  C   LIG    1      -22.623  79.638  34.543  0.00  0.00    +0.108 C 
ATOM     12  C   LIG    1      -23.044  80.884  35.340  0.00  0.00    +0.029 C 
ATOM     13  C   LIG    1      -21.963  81.000  36.402  0.00  0.00    +0.021 C 
ATOM     14  C   LIG    1      -20.701  80.602  35.647  0.00  0.00    +0.107 C 
BRANCH  11  15
ATOM     15  C   LIG    1      -23.182  78.359  35.141  0.00  0.00    +0.011 A 
ATOM     16  C   LIG    1      -24.408  77.872  34.676  0.00  0.00    +0.129 A 
ATOM     17  F   LIG    1      -25.125  78.609  33.817  0.00  0.00    -0.205 F 
ATOM     18  C   LIG    1      -24.938  76.661  35.122  0.00  0.00    +0.041 A 
ATOM     19  C   LIG    1      -24.276  75.944  36.117  0.00  0.00    +0.041 A 
ATOM     20  C   LIG    1      -23.094  76.449  36.642  0.00  0.00    +0.124 A 
ATOM     21  F   LIG    1      -22.481  75.797  37.638  0.00  0.00    -0.205 F 
ATOM     22  C   LIG    1      -22.539  77.632  36.158  0.00  0.00    +0.046 A 
ENDBRANCH  11  15
ENDBRANCH   4  10
BRANCH   1  25
ATOM     23  N   LIG    1      -22.548  77.524  30.425  0.00  0.00    -0.306 N 
ATOM     24  H   LIG    1      -22.458  77.898  31.367  0.00  0.00    +0.149 HD
ATOM     25  C   LIG    1      -21.432  77.005  29.818  0.00  0.00    +0.250 C 
ATOM     26  O   LIG    1      -21.456  76.461  28.727  0.00  0.00    -0.270 OA
BRANCH  23  27
ATOM     27  C   LIG    1      -23.852  77.395  29.825  0.00  0.00    +0.161 C 
BRANCH  27  31
ATOM     28  C   LIG    1      -25.717  73.819  32.808  0.00  0.00    +0.150 C 
ATOM     29  N   LIG    1      -25.529  74.989  31.990  0.00  0.00    -0.340 N 
ATOM     30  C   LIG    1      -24.402  75.346  31.311  0.00  0.00    +0.111 A 
ATOM     31  C   LIG    1      -24.714  76.543  30.693  0.00  0.00    +0.076 A 
ATOM     32  N   LIG    1      -26.012  76.904  30.990  0.00  0.00    -0.239 NA
ATOM     33  C   LIG    1      -26.473  75.948  31.764  0.00  0.00    +0.199 A 
ENDBRANCH  27  31
ENDBRANCH  23  27
ENDBRANCH   1  25
TORSDOF 5
ENDMDL
MODEL 2
REMARK VINA RESULT:      -5.7      2.250      5.254
REMARK  Name = pdb/CHEMBL3671149.pdb
REMARK                            x       y       z     vdW  Elec       q    Type
REMARK                         _______ _______ _______ _____ _____    ______ ____
ROOT
ATOM      1  C   LIG    1      -25.353  77.396  32.164  0.00  0.00    +0.100 A 
ATOM      2  C   LIG    1      -25.053  78.013  33.367  0.00  0.00    +0.170 A 
ATOM      3  N   LIG    1      -23.982  78.775  33.775  0.00  0.00    -0.212 NA
ATOM      4  C   LIG    1      -24.011  79.294  34.986  0.00  0.00    +0.126 A 
ATOM      5  C   LIG    1      -25.186  79.079  35.912  0.00  0.00    +0.063 A 
ATOM      6  C   LIG    1      -26.193  78.319  35.470  0.00  0.00    +0.118 A 
ATOM      7  N   LIG    1      -26.142  77.765  34.204  0.00  0.00    -0.221 N 
ATOM      8  N   LIG    1      -27.080  76.990  33.614  0.00  0.00    -0.173 NA
ATOM      9  C   LIG    1      -26.609  76.792  32.383  0.00  0.00    +0.150 A 
ENDROOT
BRANCH   4  10
ATOM     10  N   LIG    1      -22.958  80.083  35.418  0.00  0.00    -0.308 N 
ATOM     11  C   LIG    1      -21.831  79.570  36.213  0.00  0.00    +0.108 C 
ATOM     12  C   LIG    1      -21.244  80.840  36.853  0.00  0.00    +0.029 C 
ATOM     13  C   LIG    1      -21.500  81.908  35.804  0.00  0.00    +0.021 C 
ATOM     14  C   LIG    1      -22.874  81.533  35.264  0.00  0.00    +0.107 C 
BRANCH  11  15
ATOM     15  C   LIG    1      -20.820  78.846  35.342  0.00  0.00    +0.011 A 
ATOM     16  C   LIG    1      -20.250  77.657  35.810  0.00  0.00    +0.129 A 
ATOM     17  F   LIG    1      -20.502  77.256  37.063  0.00  0.00    -0.205 F 
ATOM     18  C   LIG    1      -19.378  76.900  35.027  0.00  0.00    +0.041 A 
ATOM     19  C   LIG    1      -18.994  77.368  33.772  0.00  0.00    +0.041 A 
ATOM     20  C   LIG    1      -19.495  78.583  33.322  0.00  0.00    +0.124 A 
ATOM     21  F   LIG    1      -19.087  79.070  32.143  0.00  0.00    -0.205 F 
ATOM     22  C   LIG    1      -20.406  79.313  34.083  0.00  0.00    +0.046 A 
ENDBRANCH  11  15
ENDBRANCH   4  10
BRANCH   1  25
ATOM     23  N   LIG    1      -23.239  77.527  31.085  0.00  0.00    -0.306 N 
ATOM     24  H   LIG    1      -22.880  77.735  32.014  0.00  0.00    +0.149 HD
ATOM     25  C   LIG    1      -24.593  77.365  30.929  0.00  0.00    +0.250 C 
ATOM     26  O   LIG    1      -25.125  77.195  29.845  0.00  0.00    -0.270 OA
BRANCH  23  27
ATOM     27  C   LIG    1      -22.356  77.570  29.947  0.00  0.00    +0.161 C 
BRANCH  27  31
ATOM     28  C   LIG    1      -18.981  74.250  31.608  0.00  0.00    +0.150 C 
ATOM     29  N   LIG    1      -19.644  75.362  30.977  0.00  0.00    -0.340 N 
ATOM     30  C   LIG    1      -20.973  75.660  31.020  0.00  0.00    +0.111 A 
ATOM     31  C   LIG    1      -21.115  76.804  30.255  0.00  0.00    +0.076 A 
ATOM     32  N   LIG    1      -19.889  77.195  29.760  0.00  0.00    -0.239 NA
ATOM     33  C   LIG    1      -19.029  76.313  30.215  0.00  0.00    +0.199 A 
ENDBRANCH  27  31
ENDBRANCH  23  27
ENDBRANCH   1  25
TORSDOF 5
ENDMDL
MODEL 3
REMARK VINA RESULT:      -5.6      1.849      3.237
REMARK  Name = pdb/CHEMBL3671149.pdb
REMARK                            x       y       z     vdW  Elec       q    Type
REMARK                         _______ _______ _______ _____ _____    ______ ____
ROOT
ATOM      1  C   LIG    1      -20.516  76.899  30.625  0.00  0.00    +0.100 A 
ATOM      2  C   LIG    1      -20.269  76.971  31.985  0.00  0.00    +0.170 A 
ATOM      3  N   LIG    1      -21.106  77.022  33.077  0.00  0.00    -0.212 NA
ATOM      4  C   LIG    1      -20.565  77.015  34.278  0.00  0.00    +0.126 A 
ATOM      5  C   LIG    1      -19.068  76.942  34.473  0.00  0.00    +0.063 A 
ATOM      6  C   LIG    1      -18.302  76.909  33.379  0.00  0.00    +0.118 A 
ATOM      7  N   LIG    1      -18.881  76.934  32.124  0.00  0.00    -0.221 N 
ATOM      8  N   LIG    1      -18.244  76.895  30.930  0.00  0.00    -0.173 NA
ATOM      9  C   LIG    1      -19.234  76.851  30.038  0.00  0.00    +0.150 A 
ENDROOT
BRANCH   4  10
ATOM     10  N   LIG    1      -21.382  77.044  35.397  0.00  0.00    -0.308 N 
ATOM     11  C   LIG    1      -21.160  77.942  36.542  0.00  0.00    +0.108 C 
ATOM     12  C   LIG    1      -21.954  77.272  37.676  0.00  0.00    +0.029 C 
ATOM     13  C   LIG    1      -23.121  76.626  36.949  0.00  0.00    +0.021 C 
ATOM     14  C   LIG    1      -22.483  76.122  35.660  0.00  0.00    +0.107 C 
BRANCH  11  15
ATOM     15  C   LIG    1      -21.653  79.348  36.250  0.00  0.00    +0.011 A 
ATOM     16  C   LIG    1      -20.721  80.342  35.931  0.00  0.00    +0.129 A 
ATOM     17  F   LIG    1      -19.412  80.069  36.022  0.00  0.00    -0.205 F 
ATOM     18  C   LIG    1      -21.112  81.632  35.572  0.00  0.00    +0.041 A 
ATOM     19  C   LIG    1      -22.462  81.977  35.603  0.00  0.00    +0.041 A 
ATOM     20  C   LIG    1      -23.395  81.023  35.987  0.00  0.00    +0.124 A 
ATOM     21  F   LIG    1      -24.687  81.361  36.077  0.00  0.00    -0.205 F 
ATOM     22  C   LIG    1      -23.008  79.720  36.295  0.00  0.00    +0.046 A 
ENDBRANCH  11  15
ENDBRANCH   4  10
BRANCH   1  25
ATOM     23  N   LIG    1      -22.834  77.423  30.597  0.00  0.00    -0.306 N 
ATOM     24  H   LIG    1      -22.681  77.741  31.551  0.00  0.00    +0.149 HD
ATOM     25  C   LIG    1      -21.782  76.861  29.918  0.00  0.00    +0.250 C 
ATOM     26  O   LIG    1      -21.888  76.376  28.804  0.00  0.00    -0.270 OA
BRANCH  23  27
ATOM     27  C   LIG    1      -24.167  77.415  30.048  0.00  0.00    +0.161 C 
BRANCH  27  31
ATOM     28  C   LIG    1      -26.567  77.371  34.452  0.00  0.00    +0.150 C 
ATOM     29  N   LIG    1      -26.203  77.233  33.066  0.00  0.00    -0.340 N 
ATOM     30  C   LIG    1      -25.009  77.556  32.493  0.00  0.00    +0.111 A 
ATOM     31  C   LIG    1      -25.155  77.255  31.151  0.00  0.00    +0.076 A 
ATOM     32  N   LIG    1      -26.418  76.752  30.916  0.00  0.00    -0.239 NA
ATOM     33  C   LIG    1      -27.017  76.748  32.085  0.00  0.00    +0.199 A 
ENDBRANCH  27  31
ENDBRANCH  23  27
ENDBRANCH   1  25
TORSDOF 5
ENDMDL
MODEL 4
REMARK VINA RESULT:      -5.5      4.631      7.733
REMARK  Name = pdb/CHEMBL3671149.pdb
REMARK                            x       y       z     vdW  Elec       q    Type
REMARK                         _______ _______ _______ _____ _____    ______ ____
ROOT
ATOM      1  C   LIG    1      -24.174  81.819  36.348  0.00  0.00    +0.100 A 
ATOM      2  C   LIG    1      -23.866  80.653  35.668  0.00  0.00    +0.170 A 
ATOM      3  N   LIG    1      -24.643  79.610  35.218  0.00  0.00    -0.212 NA
ATOM      4  C   LIG    1      -24.061  78.652  34.526  0.00  0.00    +0.126 A 
ATOM      5  C   LIG    1      -22.583  78.686  34.213  0.00  0.00    +0.063 A 
ATOM      6  C   LIG    1      -21.873  79.715  34.687  0.00  0.00    +0.118 A 
ATOM      7  N   LIG    1      -22.492  80.705  35.427  0.00  0.00    -0.221 N 
ATOM      8  N   LIG    1      -21.915  81.807  35.960  0.00  0.00    -0.173 NA
ATOM      9  C   LIG    1      -22.936  82.481  36.491  0.00  0.00    +0.150 A 
ENDROOT
BRANCH   4  10
ATOM     10  N   LIG    1      -24.820  77.600  34.041  0.00  0.00    -0.308 N 
ATOM     11  C   LIG    1      -25.335  77.536  32.664  0.00  0.00    +0.108 C 
ATOM     12  C   LIG    1      -26.481  76.514  32.762  0.00  0.00    +0.029 C 
ATOM     13  C   LIG    1      -26.001  75.557  33.841  0.00  0.00    +0.021 C 
ATOM     14  C   LIG    1      -25.320  76.484  34.840  0.00  0.00    +0.107 C 
BRANCH  11  15
ATOM     15  C   LIG    1      -24.258  77.098  31.687  0.00  0.00    +0.011 A 
ATOM     16  C   LIG    1      -24.116  77.791  30.479  0.00  0.00    +0.129 A 
ATOM     17  F   LIG    1      -25.013  78.732  30.151  0.00  0.00    -0.205 F 
ATOM     18  C   LIG    1      -23.096  77.495  29.575  0.00  0.00    +0.041 A 
ATOM     19  C   LIG    1      -22.235  76.430  29.832  0.00  0.00    +0.041 A 
ATOM     20  C   LIG    1      -22.407  75.686  30.992  0.00  0.00    +0.124 A 
ATOM     21  F   LIG    1      -21.622  74.625  31.219  0.00  0.00    -0.205 F 
ATOM     22  C   LIG    1      -23.393  76.016  31.919  0.00  0.00    +0.046 A 
ENDBRANCH  11  15
ENDBRANCH   4  10
BRANCH   1  25
ATOM     23  N   LIG    1      -25.498  83.644  37.104  0.00  0.00    -0.306 N 
ATOM     24  H   LIG    1      -24.632  84.174  37.055  0.00  0.00    +0.149 HD
ATOM     25  C   LIG    1      -25.460  82.302  36.814  0.00  0.00    +0.250 C 
ATOM     26  O   LIG    1      -26.427  81.567  36.924  0.00  0.00    -0.270 OA
BRANCH  23  27
ATOM     27  C   LIG    1      -26.691  84.261  37.626  0.00  0.00    +0.161 C 
BRANCH  27  31
ATOM     28  C   LIG    1      -30.187  85.492  34.246  0.00  0.00    +0.150 C 
ATOM     29  N   LIG    1      -28.984  85.402  35.032  0.00  0.00    -0.340 N 
ATOM     30  C   LIG    1      -28.747  84.562  36.079  0.00  0.00    +0.111 A 
ATOM     31  C   LIG    1      -27.466  84.865  36.506  0.00  0.00    +0.076 A 
ATOM     32  N   LIG    1      -26.935  85.870  35.726  0.00  0.00    -0.239 NA
ATOM     33  C   LIG    1      -27.868  86.165  34.850  0.00  0.00    +0.199 A 
ENDBRANCH  27  31
ENDBRANCH  23  27
ENDBRANCH   1  25
TORSDOF 5
ENDMDL
MODEL 5
REMARK VINA RESULT:      -5.4      2.601      5.810
REMARK  Name = pdb/CHEMBL3671149.pdb
REMARK                            x       y       z     vdW  Elec       q    Type
REMARK                         _______ _______ _______ _____ _____    ______ ____
ROOT
ATOM      1  C   LIG    1      -24.745  77.678  32.378  0.00  0.00    +0.100 A 
ATOM      2  C   LIG    1      -23.530  77.614  31.716  0.00  0.00    +0.170 A 
ATOM      3  N   LIG    1      -22.231  77.764  32.147  0.00  0.00    -0.212 NA
ATOM      4  C   LIG    1      -21.260  77.574  31.278  0.00  0.00    +0.126 A 
ATOM      5  C   LIG    1      -21.544  77.190  29.844  0.00  0.00    +0.063 A 
ATOM      6  C   LIG    1      -22.823  77.072  29.475  0.00  0.00    +0.118 A 
ATOM      7  N   LIG    1      -23.833  77.291  30.393  0.00  0.00    -0.221 N 
ATOM      8  N   LIG    1      -25.166  77.200  30.176  0.00  0.00    -0.173 NA
ATOM      9  C   LIG    1      -25.703  77.411  31.378  0.00  0.00    +0.150 A 
ENDROOT
BRANCH   4  10
ATOM     10  N   LIG    1      -19.942  77.696  31.686  0.00  0.00    -0.308 N 
ATOM     11  C   LIG    1      -19.500  78.623  32.740  0.00  0.00    +0.108 C 
ATOM     12  C   LIG    1      -17.992  78.767  32.475  0.00  0.00    +0.029 C 
ATOM     13  C   LIG    1      -17.604  77.404  31.926  0.00  0.00    +0.021 C 
ATOM     14  C   LIG    1      -18.801  77.033  31.060  0.00  0.00    +0.107 C 
BRANCH  11  15
ATOM     15  C   LIG    1      -19.789  78.070  34.125  0.00  0.00    +0.011 A 
ATOM     16  C   LIG    1      -20.161  78.953  35.144  0.00  0.00    +0.129 A 
ATOM     17  F   LIG    1      -20.122  80.273  34.917  0.00  0.00    -0.205 F 
ATOM     18  C   LIG    1      -20.519  78.503  36.415  0.00  0.00    +0.041 A 
ATOM     19  C   LIG    1      -20.435  77.145  36.715  0.00  0.00    +0.041 A 
ATOM     20  C   LIG    1      -19.999  76.262  35.735  0.00  0.00    +0.124 A 
ATOM     21  F   LIG    1      -19.859  74.964  36.031  0.00  0.00    -0.205 F 
ATOM     22  C   LIG    1      -19.691  76.706  34.451  0.00  0.00    +0.046 A 
ENDBRANCH  11  15
ENDBRANCH   4  10
BRANCH   1  25
ATOM     23  N   LIG    1      -23.967  78.476  34.478  0.00  0.00    -0.306 N 
ATOM     24  H   LIG    1      -23.071  78.572  34.006  0.00  0.00    +0.149 HD
ATOM     25  C   LIG    1      -25.019  77.939  33.778  0.00  0.00    +0.250 C 
ATOM     26  O   LIG    1      -26.106  77.707  34.279  0.00  0.00    -0.270 OA
BRANCH  23  27
ATOM     27  C   LIG    1      -24.069  78.742  35.891  0.00  0.00    +0.161 C 
BRANCH  27  31
ATOM     28  C   LIG    1      -25.508  83.409  37.040  0.00  0.00    +0.150 C 
ATOM     29  N   LIG    1      -24.776  82.246  36.608  0.00  0.00    -0.340 N 
ATOM     30  C   LIG    1      -25.217  80.956  36.592  0.00  0.00    +0.111 A 
ATOM     31  C   LIG    1      -24.154  80.214  36.111  0.00  0.00    +0.076 A 
ATOM     32  N   LIG    1      -23.087  81.042  35.835  0.00  0.00    -0.239 NA
ATOM     33  C   LIG    1      -23.495  82.253  36.139  0.00  0.00    +0.199 A 
ENDBRANCH  27  31
ENDBRANCH  23  27
ENDBRANCH   1  25
TORSDOF 5
ENDMDL
MODEL 6
REMARK VINA RESULT:      -5.3     13.642     16.506
REMARK  Name = pdb/CHEMBL3671149.pdb
REMARK                            x       y       z     vdW  Elec       q    Type
REMARK                         _______ _______ _______ _____ _____    ______ ____
ROOT
ATOM      1  C   LIG    1      -39.348  75.237  24.672  0.00  0.00    +0.100 A 
ATOM      2  C   LIG    1      -38.851  76.078  25.653  0.00  0.00    +0.170 A 
ATOM      3  N   LIG    1      -38.010  75.860  26.721  0.00  0.00    -0.212 NA
ATOM      4  C   LIG    1      -37.653  76.894  27.455  0.00  0.00    +0.126 A 
ATOM      5  C   LIG    1      -38.135  78.292  27.142  0.00  0.00    +0.063 A 
ATOM      6  C   LIG    1      -38.961  78.445  26.103  0.00  0.00    +0.118 A 
ATOM      7  N   LIG    1      -39.342  77.349  25.351  0.00  0.00    -0.221 N 
ATOM      8  N   LIG    1      -40.156  77.344  24.270  0.00  0.00    -0.173 NA
ATOM      9  C   LIG    1      -40.136  76.076  23.856  0.00  0.00    +0.150 A 
ENDROOT
BRANCH   4  10
ATOM     10  N   LIG    1      -36.791  76.711  28.524  0.00  0.00    -0.308 N 
ATOM     11  C   LIG    1      -35.425  76.181  28.384  0.00  0.00    +0.108 C 
ATOM     12  C   LIG    1      -35.088  75.695  29.804  0.00  0.00    +0.029 C 
ATOM     13  C   LIG    1      -35.842  76.669  30.693  0.00  0.00    +0.021 C 
ATOM     14  C   LIG    1      -37.142  76.890  29.930  0.00  0.00    +0.107 C 
BRANCH  11  15
ATOM     15  C   LIG    1      -34.461  77.249  27.899  0.00  0.00    +0.011 A 
ATOM     16  C   LIG    1      -33.335  76.863  27.163  0.00  0.00    +0.129 A 
ATOM     17  F   LIG    1      -33.059  75.559  27.018  0.00  0.00    -0.205 F 
ATOM     18  C   LIG    1      -32.455  77.797  26.618  0.00  0.00    +0.041 A 
ATOM     19  C   LIG    1      -32.646  79.154  26.870  0.00  0.00    +0.041 A 
ATOM     20  C   LIG    1      -33.718  79.550  27.659  0.00  0.00    +0.124 A 
ATOM     21  F   LIG    1      -33.877  80.846  27.957  0.00  0.00    -0.205 F 
ATOM     22  C   LIG    1      -34.626  78.620  28.160  0.00  0.00    +0.046 A 
ENDBRANCH  11  15
ENDBRANCH   4  10
BRANCH   1  25
ATOM     23  N   LIG    1      -37.911  73.360  24.922  0.00  0.00    -0.306 N 
ATOM     24  H   LIG    1      -37.238  74.037  25.271  0.00  0.00    +0.149 HD
ATOM     25  C   LIG    1      -39.126  73.818  24.475  0.00  0.00    +0.250 C 
ATOM     26  O   LIG    1      -39.964  73.096  23.963  0.00  0.00    -0.270 OA
BRANCH  23  27
ATOM     27  C   LIG    1      -37.523  71.983  24.749  0.00  0.00    +0.161 C 
BRANCH  27  31
ATOM     28  C   LIG    1      -34.546  69.543  27.967  0.00  0.00    +0.150 C 
ATOM     29  N   LIG    1      -35.433  70.484  27.334  0.00  0.00    -0.340 N 
ATOM     30  C   LIG    1      -35.952  70.406  26.076  0.00  0.00    +0.111 A 
ATOM     31  C   LIG    1      -36.727  71.543  25.930  0.00  0.00    +0.076 A 
ATOM     32  N   LIG    1      -36.681  72.295  27.085  0.00  0.00    -0.239 NA
ATOM     33  C   LIG    1      -35.902  71.630  27.907  0.00  0.00    +0.199 A 
ENDBRANCH  27  31
ENDBRANCH  23  27
ENDBRANCH   1  25
TORSDOF 5
ENDMDL
MODEL 7
REMARK VINA RESULT:      -5.2     13.127     16.007
REMARK  Name = pdb/CHEMBL3671149.pdb
REMARK                            x       y       z     vdW  Elec       q    Type
REMARK                         _______ _______ _______ _____ _____    ______ ____
ROOT
ATOM      1  C   LIG    1      -39.020  74.730  25.082  0.00  0.00    +0.100 A 
ATOM      2  C   LIG    1      -38.207  75.576  25.817  0.00  0.00    +0.170 A 
ATOM      3  N   LIG    1      -36.953  75.414  26.362  0.00  0.00    -0.212 NA
ATOM      4  C   LIG    1      -36.396  76.446  26.961  0.00  0.00    +0.126 A 
ATOM      5  C   LIG    1      -37.093  77.784  27.048  0.00  0.00    +0.063 A 
ATOM      6  C   LIG    1      -38.314  77.882  26.514  0.00  0.00    +0.118 A 
ATOM      7  N   LIG    1      -38.896  76.787  25.903  0.00  0.00    -0.221 N 
ATOM      8  N   LIG    1      -40.111  76.732  25.312  0.00  0.00    -0.173 NA
ATOM      9  C   LIG    1      -40.167  75.501  24.802  0.00  0.00    +0.150 A 
ENDROOT
BRANCH   4  10
ATOM     10  N   LIG    1      -35.126  76.321  27.501  0.00  0.00    -0.308 N 
ATOM     11  C   LIG    1      -34.127  77.402  27.490  0.00  0.00    +0.108 C 
ATOM     12  C   LIG    1      -32.799  76.658  27.707  0.00  0.00    +0.029 C 
ATOM     13  C   LIG    1      -33.195  75.488  28.591  0.00  0.00    +0.021 C 
ATOM     14  C   LIG    1      -34.555  75.086  28.034  0.00  0.00    +0.107 C 
BRANCH  11  15
ATOM     15  C   LIG    1      -34.399  78.421  28.583  0.00  0.00    +0.011 A 
ATOM     16  C   LIG    1      -34.209  79.779  28.306  0.00  0.00    +0.129 A 
ATOM     17  F   LIG    1      -33.666  80.142  27.136  0.00  0.00    -0.205 F 
ATOM     18  C   LIG    1      -34.518  80.772  29.236  0.00  0.00    +0.041 A 
ATOM     19  C   LIG    1      -34.957  80.411  30.509  0.00  0.00    +0.041 A 
ATOM     20  C   LIG    1      -35.082  79.065  30.824  0.00  0.00    +0.124 A 
ATOM     21  F   LIG    1      -35.445  78.707  32.063  0.00  0.00    -0.205 F 
ATOM     22  C   LIG    1      -34.823  78.076  29.877  0.00  0.00    +0.046 A 
ENDBRANCH  11  15
ENDBRANCH   4  10
BRANCH   1  25
ATOM     23  N   LIG    1      -37.565  72.851  25.025  0.00  0.00    -0.306 N 
ATOM     24  H   LIG    1      -36.898  73.469  25.480  0.00  0.00    +0.149 HD
ATOM     25  C   LIG    1      -38.784  73.363  24.658  0.00  0.00    +0.250 C 
ATOM     26  O   LIG    1      -39.616  72.726  24.035  0.00  0.00    -0.270 OA
BRANCH  23  27
ATOM     27  C   LIG    1      -37.163  71.524  24.632  0.00  0.00    +0.161 C 
BRANCH  27  31
ATOM     28  C   LIG    1      -34.074  70.720  28.502  0.00  0.00    +0.150 C 
ATOM     29  N   LIG    1      -34.741  70.691  27.226  0.00  0.00    -0.340 N 
ATOM     30  C   LIG    1      -35.811  71.442  26.840  0.00  0.00    +0.111 A 
ATOM     31  C   LIG    1      -36.088  71.042  25.546  0.00  0.00    +0.076 A 
ATOM     32  N   LIG    1      -35.196  70.067  25.152  0.00  0.00    -0.239 NA
ATOM     33  C   LIG    1      -34.400  69.884  26.180  0.00  0.00    +0.199 A 
ENDBRANCH  27  31
ENDBRANCH  23  27
ENDBRANCH   1  25
TORSDOF 5
ENDMDL
MODEL 8
REMARK VINA RESULT:      -5.2     14.620     19.344
REMARK  Name = pdb/CHEMBL3671149.pdb
REMARK                            x       y       z     vdW  Elec       q    Type
REMARK                         _______ _______ _______ _____ _____    ______ ____
ROOT
ATOM      1  C   LIG    1      -38.193  75.509  25.356  0.00  0.00    +0.100 A 
ATOM      2  C   LIG    1      -38.488  74.218  24.950  0.00  0.00    +0.170 A 
ATOM      3  N   LIG    1      -37.844  73.016  25.143  0.00  0.00    -0.212 NA
ATOM      4  C   LIG    1      -38.417  71.922  24.684  0.00  0.00    +0.126 A 
ATOM      5  C   LIG    1      -39.751  71.964  23.975  0.00  0.00    +0.063 A 
ATOM      6  C   LIG    1      -40.325  73.158  23.803  0.00  0.00    +0.118 A 
ATOM      7  N   LIG    1      -39.705  74.301  24.273  0.00  0.00    -0.221 N 
ATOM      8  N   LIG    1      -40.162  75.571  24.186  0.00  0.00    -0.173 NA
ATOM      9  C   LIG    1      -39.259  76.286  24.859  0.00  0.00    +0.150 A 
ENDROOT
BRANCH   4  10
ATOM     10  N   LIG    1      -37.805  70.695  24.881  0.00  0.00    -0.308 N 
ATOM     11  C   LIG    1      -38.517  69.410  24.802  0.00  0.00    +0.108 C 
ATOM     12  C   LIG    1      -37.594  68.447  25.567  0.00  0.00    +0.029 C 
ATOM     13  C   LIG    1      -36.206  68.995  25.281  0.00  0.00    +0.021 C 
ATOM     14  C   LIG    1      -36.423  70.503  25.312  0.00  0.00    +0.107 C 
BRANCH  11  15
ATOM     15  C   LIG    1      -38.729  68.978  23.361  0.00  0.00    +0.011 A 
ATOM     16  C   LIG    1      -39.885  68.263  23.031  0.00  0.00    +0.129 A 
ATOM     17  F   LIG    1      -40.710  67.858  24.006  0.00  0.00    -0.205 F 
ATOM     18  C   LIG    1      -40.181  67.908  21.714  0.00  0.00    +0.041 A 
ATOM     19  C   LIG    1      -39.271  68.200  20.700  0.00  0.00    +0.041 A 
ATOM     20  C   LIG    1      -38.085  68.846  21.022  0.00  0.00    +0.124 A 
ATOM     21  F   LIG    1      -37.177  69.078  20.065  0.00  0.00    -0.205 F 
ATOM     22  C   LIG    1      -37.814  69.246  22.329  0.00  0.00    +0.046 A 
ENDBRANCH  11  15
ENDBRANCH   4  10
BRANCH   1  25
ATOM     23  N   LIG    1      -36.402  75.032  26.846  0.00  0.00    -0.306 N 
ATOM     24  H   LIG    1      -36.780  74.088  26.853  0.00  0.00    +0.149 HD
ATOM     25  C   LIG    1      -37.067  75.997  26.130  0.00  0.00    +0.250 C 
ATOM     26  O   LIG    1      -36.740  77.172  26.127  0.00  0.00    -0.270 OA
BRANCH  23  27
ATOM     27  C   LIG    1      -35.294  75.371  27.704  0.00  0.00    +0.161 C 
BRANCH  27  31
ATOM     28  C   LIG    1      -33.909  70.620  28.527  0.00  0.00    +0.150 C 
ATOM     29  N   LIG    1      -33.991  72.057  28.486  0.00  0.00    -0.340 N 
ATOM     30  C   LIG    1      -34.973  72.809  27.912  0.00  0.00    +0.111 A 
ATOM     31  C   LIG    1      -34.597  74.122  28.125  0.00  0.00    +0.076 A 
ATOM     32  N   LIG    1      -33.408  74.166  28.823  0.00  0.00    -0.239 NA
ATOM     33  C   LIG    1      -33.076  72.911  29.028  0.00  0.00    +0.199 A 
ENDBRANCH  27  31
ENDBRANCH  23  27
ENDBRANCH   1  25
TORSDOF 5
ENDMDL
MODEL 9
REMARK VINA RESULT:      -5.2     18.610     21.299
REMARK  Name = pdb/CHEMBL3671149.pdb
REMARK                            x       y       z     vdW  Elec       q    Type
REMARK                         _______ _______ _______ _____ _____    ______ ____
ROOT
ATOM      1  C   LIG    1      -19.045  82.449  14.178  0.00  0.00    +0.100 A 
ATOM      2  C   LIG    1      -19.188  83.747  13.719  0.00  0.00    +0.170 A 
ATOM      3  N   LIG    1      -20.177  84.689  13.895  0.00  0.00    -0.212 NA
ATOM      4  C   LIG    1      -19.995  85.888  13.379  0.00  0.00    +0.126 A 
ATOM      5  C   LIG    1      -18.735  86.242  12.623  0.00  0.00    +0.063 A 
ATOM      6  C   LIG    1      -17.814  85.286  12.469  0.00  0.00    +0.118 A 
ATOM      7  N   LIG    1      -18.025  84.027  13.000  0.00  0.00    -0.221 N 
ATOM      8  N   LIG    1      -17.188  82.965  12.939  0.00  0.00    -0.173 NA
ATOM      9  C   LIG    1      -17.799  82.030  13.668  0.00  0.00    +0.150 A 
ENDROOT
BRANCH   4  10
ATOM     10  N   LIG    1      -20.962  86.863  13.557  0.00  0.00    -0.308 N 
ATOM     11  C   LIG    1      -21.558  87.628  12.450  0.00  0.00    +0.108 C 
ATOM     12  C   LIG    1      -22.141  88.867  13.150  0.00  0.00    +0.029 C 
ATOM     13  C   LIG    1      -22.551  88.336  14.514  0.00  0.00    +0.021 C 
ATOM     14  C   LIG    1      -21.431  87.359  14.849  0.00  0.00    +0.107 C 
BRANCH  11  15
ATOM     15  C   LIG    1      -22.625  86.822  11.729  0.00  0.00    +0.011 A 
ATOM     16  C   LIG    1      -23.050  87.240  10.463  0.00  0.00    +0.129 A 
ATOM     17  F   LIG    1      -22.611  88.408   9.974  0.00  0.00    -0.205 F 
ATOM     18  C   LIG    1      -23.965  86.502   9.712  0.00  0.00    +0.041 A 
ATOM     19  C   LIG    1      -24.538  85.354  10.257  0.00  0.00    +0.041 A 
ATOM     20  C   LIG    1      -24.181  84.965  11.542  0.00  0.00    +0.124 A 
ATOM     21  F   LIG    1      -24.770  83.898  12.097  0.00  0.00    -0.205 F 
ATOM     22  C   LIG    1      -23.228  85.674  12.270  0.00  0.00    +0.046 A 
ENDBRANCH  11  15
ENDBRANCH   4  10
BRANCH   1  25
ATOM     23  N   LIG    1      -20.958  82.373  15.588  0.00  0.00    -0.306 N 
ATOM     24  H   LIG    1      -20.972  83.383  15.469  0.00  0.00    +0.149 HD
ATOM     25  C   LIG    1      -19.937  81.662  15.009  0.00  0.00    +0.250 C 
ATOM     26  O   LIG    1      -19.787  80.462  15.163  0.00  0.00    -0.270 OA
BRANCH  23  27
ATOM     27  C   LIG    1      -21.895  81.741  16.483  0.00  0.00    +0.161 C 
BRANCH  27  31
ATOM     28  C   LIG    1      -25.499  80.778  13.128  0.00  0.00    +0.150 C 
ATOM     29  N   LIG    1      -24.578  80.724  14.234  0.00  0.00    -0.340 N 
ATOM     30  C   LIG    1      -23.646  81.658  14.575  0.00  0.00    +0.111 A 
ATOM     31  C   LIG    1      -23.008  81.145  15.691  0.00  0.00    +0.076 A 
ATOM     32  N   LIG    1      -23.550  79.921  16.023  0.00  0.00    -0.239 NA
ATOM     33  C   LIG    1      -24.491  79.701  15.133  0.00  0.00    +0.199 A 
ENDBRANCH  27  31
ENDBRANCH  23  27
ENDBRANCH   1  25
TORSDOF 5
ENDMDL
