MODEL 1
REMARK VINA RESULT:      -6.6      0.000      0.000
REMARK  Name = pdb/CHEMBL3666259.pdb
REMARK                            x       y       z     vdW  Elec       q    Type
REMARK                         _______ _______ _______ _____ _____    ______ ____
ROOT
ATOM      1  C   LIG    1      -33.084  73.186  29.071  0.00  0.00    +0.042 A 
ATOM      2  C   LIG    1      -33.947  73.105  27.970  0.00  0.00    +0.038 A 
ATOM      3  C   LIG    1      -34.558  71.886  27.650  0.00  0.00    +0.052 A 
ATOM      4  C   LIG    1      -34.293  70.800  28.485  0.00  0.00    +0.134 A 
ATOM      5  N   LIG    1      -33.461  70.849  29.556  0.00  0.00    -0.261 NA
ATOM      6  C   LIG    1      -32.857  72.030  29.805  0.00  0.00    +0.122 A 
ENDROOT
BRANCH   3   7
ATOM      7  N   LIG    1      -35.384  71.837  26.504  0.00  0.00    -0.284 N 
ATOM      8  H   LIG    1      -34.910  71.770  25.610  0.00  0.00    +0.155 HD
ATOM      9  C   LIG    1      -36.772  71.805  26.492  0.00  0.00    +0.222 C 
ATOM     10  O   LIG    1      -37.485  71.787  27.489  0.00  0.00    -0.275 OA
BRANCH   9  11
ATOM     11  C   LIG    1      -37.348  71.747  25.079  0.00  0.00    +0.131 C 
BRANCH  11  12
ATOM     12  C   LIG    1      -38.313  72.870  24.784  0.00  0.00    -0.038 A 
ATOM     13  C   LIG    1      -37.940  74.210  24.977  0.00  0.00    +0.016 A 
ATOM     14  C   LIG    1      -38.817  75.260  24.653  0.00  0.00    +0.055 A 
ATOM     15  C   LIG    1      -40.083  74.949  24.136  0.00  0.00    +0.012 A 
ATOM     16  C   LIG    1      -40.460  73.621  23.937  0.00  0.00    +0.001 A 
ATOM     17  C   LIG    1      -39.579  72.588  24.254  0.00  0.00    +0.004 A 
BRANCH  14  18
ATOM     18  C   LIG    1      -38.385  76.692  24.849  0.00  0.00    +0.417 C 
ATOM     19  F   LIG    1      -38.154  77.338  23.671  0.00  0.00    -0.166 F 
ATOM     20  F   LIG    1      -37.229  76.794  25.562  0.00  0.00    -0.166 F 
ATOM     21  F   LIG    1      -39.299  77.452  25.516  0.00  0.00    -0.166 F 
ENDBRANCH  14  18
ENDBRANCH  11  12
ENDBRANCH   9  11
ENDBRANCH   3   7
BRANCH   1  22
ATOM     22  C   LIG    1      -32.376  74.451  29.391  0.00  0.00    +0.197 C 
ATOM     23  O   LIG    1      -31.145  74.433  29.459  0.00  0.00    -0.287 OA
BRANCH  22  31
ATOM     24  N   LIG    1      -34.476  77.191  30.660  0.00  0.00    -0.323 N 
ATOM     25  C   LIG    1      -34.063  77.737  29.462  0.00  0.00    +0.147 A 
ATOM     26  N   LIG    1      -34.410  78.943  28.990  0.00  0.00    -0.197 NA
ATOM     27  C   LIG    1      -33.894  79.221  27.790  0.00  0.00    +0.214 A 
ATOM     28  N   LIG    1      -33.052  78.450  27.093  0.00  0.00    -0.222 NA
ATOM     29  C   LIG    1      -32.715  77.237  27.595  0.00  0.00    +0.126 A 
ATOM     30  C   LIG    1      -33.239  76.825  28.818  0.00  0.00    +0.048 A 
ATOM     31  C   LIG    1      -33.144  75.668  29.644  0.00  0.00    +0.051 A 
ATOM     32  C   LIG    1      -33.967  75.910  30.736  0.00  0.00    +0.100 A 
BRANCH  24  34
ATOM     33  C   LIG    1      -35.271  76.969  32.980  0.00  0.00    +0.036 C 
ATOM     34  C   LIG    1      -35.264  77.863  31.723  0.00  0.00    +0.064 C 
ATOM     35  C   LIG    1      -36.733  78.080  31.281  0.00  0.00    +0.036 C 
BRANCH  34  36
ATOM     36  C   LIG    1      -34.701  79.252  32.137  0.00  0.00    +0.183 C 
BRANCH  36  37
ATOM     37  O   LIG    1      -33.687  79.149  33.132  0.00  0.00    -0.393 OA
ATOM     38  H   LIG    1      -34.065  78.602  33.849  0.00  0.00    +0.209 HD
ENDBRANCH  36  37
ENDBRANCH  34  36
ENDBRANCH  24  34
BRANCH  27  39
ATOM     39  N   LIG    1      -34.253  80.431  27.232  0.00  0.00    -0.327 N 
ATOM     40  H   LIG    1      -35.018  80.841  27.747  0.00  0.00    +0.145 HD
ATOM     41  H   LIG    1      -33.431  80.999  27.081  0.00  0.00    +0.145 HD
ENDBRANCH  27  39
ENDBRANCH  22  31
ENDBRANCH   1  22
TORSDOF 10
ENDMDL
MODEL 2
REMARK VINA RESULT:      -6.5     11.887     15.574
REMARK  Name = pdb/CHEMBL3666259.pdb
REMARK                            x       y       z     vdW  Elec       q    Type
REMARK                         _______ _______ _______ _____ _____    ______ ____
ROOT
ATOM      1  C   LIG    1      -20.444  76.950  30.575  0.00  0.00    +0.042 A 
ATOM      2  C   LIG    1      -20.537  77.810  31.678  0.00  0.00    +0.038 A 
ATOM      3  C   LIG    1      -19.372  78.258  32.314  0.00  0.00    +0.052 A 
ATOM      4  C   LIG    1      -18.153  77.840  31.782  0.00  0.00    +0.134 A 
ATOM      5  N   LIG    1      -18.032  77.006  30.718  0.00  0.00    -0.261 NA
ATOM      6  C   LIG    1      -19.177  76.560  30.160  0.00  0.00    +0.122 A 
ENDROOT
BRANCH   3   7
ATOM      7  N   LIG    1      -19.513  79.087  33.450  0.00  0.00    -0.284 N 
ATOM      8  H   LIG    1      -19.793  80.046  33.275  0.00  0.00    +0.155 HD
ATOM      9  C   LIG    1      -19.370  78.697  34.776  0.00  0.00    +0.222 C 
ATOM     10  O   LIG    1      -19.124  77.557  35.152  0.00  0.00    -0.275 OA
BRANCH   9  11
ATOM     11  C   LIG    1      -19.598  79.846  35.755  0.00  0.00    +0.131 C 
BRANCH  11  12
ATOM     12  C   LIG    1      -21.011  80.376  35.731  0.00  0.00    -0.038 A 
ATOM     13  C   LIG    1      -22.087  79.541  35.390  0.00  0.00    +0.016 A 
ATOM     14  C   LIG    1      -23.410  80.017  35.418  0.00  0.00    +0.055 A 
ATOM     15  C   LIG    1      -23.643  81.350  35.787  0.00  0.00    +0.012 A 
ATOM     16  C   LIG    1      -22.580  82.185  36.130  0.00  0.00    +0.001 A 
ATOM     17  C   LIG    1      -21.273  81.700  36.108  0.00  0.00    +0.004 A 
BRANCH  14  18
ATOM     18  C   LIG    1      -24.552  79.095  35.070  0.00  0.00    +0.417 C 
ATOM     19  F   LIG    1      -25.753  79.547  35.528  0.00  0.00    -0.166 F 
ATOM     20  F   LIG    1      -24.396  77.850  35.601  0.00  0.00    -0.166 F 
ATOM     21  F   LIG    1      -24.713  78.906  33.729  0.00  0.00    -0.166 F 
ENDBRANCH  14  18
ENDBRANCH  11  12
ENDBRANCH   9  11
ENDBRANCH   3   7
BRANCH   1  22
ATOM     22  C   LIG    1      -21.665  76.411  29.926  0.00  0.00    +0.197 C 
ATOM     23  O   LIG    1      -21.752  76.471  28.697  0.00  0.00    -0.287 OA
BRANCH  22  31
ATOM     24  N   LIG    1      -23.872  74.500  32.163  0.00  0.00    -0.323 N 
ATOM     25  C   LIG    1      -24.713  75.540  31.824  0.00  0.00    +0.147 A 
ATOM     26  N   LIG    1      -25.975  75.698  32.247  0.00  0.00    -0.197 NA
ATOM     27  C   LIG    1      -26.580  76.778  31.748  0.00  0.00    +0.214 A 
ATOM     28  N   LIG    1      -26.027  77.696  30.948  0.00  0.00    -0.222 NA
ATOM     29  C   LIG    1      -24.749  77.515  30.538  0.00  0.00    +0.126 A 
ATOM     30  C   LIG    1      -24.039  76.392  30.959  0.00  0.00    +0.048 A 
ATOM     31  C   LIG    1      -22.738  75.855  30.748  0.00  0.00    +0.051 A 
ATOM     32  C   LIG    1      -22.697  74.662  31.457  0.00  0.00    +0.100 A 
BRANCH  24  34
ATOM     33  C   LIG    1      -22.864  72.564  33.302  0.00  0.00    +0.036 C 
ATOM     34  C   LIG    1      -24.133  73.429  33.156  0.00  0.00    +0.064 C 
ATOM     35  C   LIG    1      -25.291  72.508  32.699  0.00  0.00    +0.036 C 
BRANCH  34  36
ATOM     36  C   LIG    1      -24.503  73.963  34.569  0.00  0.00    +0.183 C 
BRANCH  36  37
ATOM     37  O   LIG    1      -25.911  73.992  34.783  0.00  0.00    -0.393 OA
ATOM     38  H   LIG    1      -26.148  73.116  35.146  0.00  0.00    +0.209 HD
ENDBRANCH  36  37
ENDBRANCH  34  36
ENDBRANCH  24  34
BRANCH  27  39
ATOM     39  N   LIG    1      -27.898  76.967  32.112  0.00  0.00    -0.327 N 
ATOM     40  H   LIG    1      -28.018  76.793  33.099  0.00  0.00    +0.145 HD
ATOM     41  H   LIG    1      -28.234  77.848  31.747  0.00  0.00    +0.145 HD
ENDBRANCH  27  39
ENDBRANCH  22  31
ENDBRANCH   1  22
TORSDOF 10
ENDMDL
MODEL 3
REMARK VINA RESULT:      -6.5      2.380      3.399
REMARK  Name = pdb/CHEMBL3666259.pdb
REMARK                            x       y       z     vdW  Elec       q    Type
REMARK                         _______ _______ _______ _____ _____    ______ ____
ROOT
ATOM      1  C   LIG    1      -34.703  71.384  28.685  0.00  0.00    +0.042 A 
ATOM      2  C   LIG    1      -35.909  71.401  27.972  0.00  0.00    +0.038 A 
ATOM      3  C   LIG    1      -36.101  70.516  26.903  0.00  0.00    +0.052 A 
ATOM      4  C   LIG    1      -35.068  69.622  26.621  0.00  0.00    +0.134 A 
ATOM      5  N   LIG    1      -33.889  69.586  27.292  0.00  0.00    -0.261 NA
ATOM      6  C   LIG    1      -33.724  70.483  28.285  0.00  0.00    +0.122 A 
ENDROOT
BRANCH   3   7
ATOM      7  N   LIG    1      -37.314  70.597  26.183  0.00  0.00    -0.284 N 
ATOM      8  H   LIG    1      -38.164  70.443  26.714  0.00  0.00    +0.155 HD
ATOM      9  C   LIG    1      -37.454  70.932  24.842  0.00  0.00    +0.222 C 
ATOM     10  O   LIG    1      -36.532  71.234  24.092  0.00  0.00    -0.275 OA
BRANCH   9  11
ATOM     11  C   LIG    1      -38.910  70.933  24.384  0.00  0.00    +0.131 C 
BRANCH  11  12
ATOM     12  C   LIG    1      -39.493  72.321  24.258  0.00  0.00    -0.038 A 
ATOM     13  C   LIG    1      -38.761  73.448  24.667  0.00  0.00    +0.016 A 
ATOM     14  C   LIG    1      -39.279  74.745  24.503  0.00  0.00    +0.055 A 
ATOM     15  C   LIG    1      -40.549  74.900  23.928  0.00  0.00    +0.012 A 
ATOM     16  C   LIG    1      -41.279  73.786  23.516  0.00  0.00    +0.001 A 
ATOM     17  C   LIG    1      -40.752  72.505  23.675  0.00  0.00    +0.004 A 
BRANCH  14  18
ATOM     18  C   LIG    1      -38.465  75.942  24.930  0.00  0.00    +0.417 C 
ATOM     19  F   LIG    1      -38.409  76.085  26.283  0.00  0.00    -0.166 F 
ATOM     20  F   LIG    1      -38.974  77.113  24.453  0.00  0.00    -0.166 F 
ATOM     21  F   LIG    1      -37.170  75.902  24.506  0.00  0.00    -0.166 F 
ENDBRANCH  14  18
ENDBRANCH  11  12
ENDBRANCH   9  11
ENDBRANCH   3   7
BRANCH   1  22
ATOM     22  C   LIG    1      -34.452  72.356  29.779  0.00  0.00    +0.197 C 
ATOM     23  O   LIG    1      -34.753  72.033  30.930  0.00  0.00    -0.287 OA
BRANCH  22  31
ATOM     24  N   LIG    1      -33.619  75.724  28.560  0.00  0.00    -0.323 N 
ATOM     25  C   LIG    1      -32.584  75.526  29.450  0.00  0.00    +0.147 A 
ATOM     26  N   LIG    1      -31.594  76.392  29.707  0.00  0.00    -0.197 NA
ATOM     27  C   LIG    1      -30.700  75.944  30.592  0.00  0.00    +0.214 A 
ATOM     28  N   LIG    1      -30.754  74.781  31.250  0.00  0.00    -0.222 NA
ATOM     29  C   LIG    1      -31.767  73.925  30.975  0.00  0.00    +0.126 A 
ATOM     30  C   LIG    1      -32.728  74.271  30.027  0.00  0.00    +0.048 A 
ATOM     31  C   LIG    1      -33.890  73.668  29.468  0.00  0.00    +0.051 A 
ATOM     32  C   LIG    1      -34.373  74.569  28.528  0.00  0.00    +0.100 A 
BRANCH  24  34
ATOM     33  C   LIG    1      -35.305  76.815  27.134  0.00  0.00    +0.036 C 
ATOM     34  C   LIG    1      -33.929  76.969  27.815  0.00  0.00    +0.064 C 
ATOM     35  C   LIG    1      -32.876  77.240  26.711  0.00  0.00    +0.036 C 
BRANCH  34  36
ATOM     36  C   LIG    1      -33.988  78.238  28.712  0.00  0.00    +0.183 C 
BRANCH  36  37
ATOM     37  O   LIG    1      -32.844  79.071  28.545  0.00  0.00    -0.393 OA
ATOM     38  H   LIG    1      -33.181  79.986  28.490  0.00  0.00    +0.209 HD
ENDBRANCH  36  37
ENDBRANCH  34  36
ENDBRANCH  24  34
BRANCH  27  39
ATOM     39  N   LIG    1      -29.632  76.775  30.862  0.00  0.00    -0.327 N 
ATOM     40  H   LIG    1      -28.930  76.690  30.142  0.00  0.00    +0.145 HD
ATOM     41  H   LIG    1      -29.965  77.703  31.085  0.00  0.00    +0.145 HD
ENDBRANCH  27  39
ENDBRANCH  22  31
ENDBRANCH   1  22
TORSDOF 10
ENDMDL
MODEL 4
REMARK VINA RESULT:      -6.5      2.520      3.405
REMARK  Name = pdb/CHEMBL3666259.pdb
REMARK                            x       y       z     vdW  Elec       q    Type
REMARK                         _______ _______ _______ _____ _____    ______ ____
ROOT
ATOM      1  C   LIG    1      -35.423  72.332  28.486  0.00  0.00    +0.042 A 
ATOM      2  C   LIG    1      -36.545  72.071  27.688  0.00  0.00    +0.038 A 
ATOM      3  C   LIG    1      -36.524  71.003  26.781  0.00  0.00    +0.052 A 
ATOM      4  C   LIG    1      -35.371  70.219  26.746  0.00  0.00    +0.134 A 
ATOM      5  N   LIG    1      -34.270  70.450  27.504  0.00  0.00    -0.261 NA
ATOM      6  C   LIG    1      -34.312  71.514  28.332  0.00  0.00    +0.122 A 
ENDROOT
BRANCH   3   7
ATOM      7  N   LIG    1      -37.659  70.804  25.963  0.00  0.00    -0.284 N 
ATOM      8  H   LIG    1      -38.533  70.621  26.443  0.00  0.00    +0.155 HD
ATOM      9  C   LIG    1      -37.702  70.900  24.578  0.00  0.00    +0.222 C 
ATOM     10  O   LIG    1      -36.752  71.202  23.863  0.00  0.00    -0.275 OA
BRANCH   9  11
ATOM     11  C   LIG    1      -39.093  70.630  24.012  0.00  0.00    +0.131 C 
BRANCH  11  12
ATOM     12  C   LIG    1      -39.924  71.881  23.854  0.00  0.00    -0.038 A 
ATOM     13  C   LIG    1      -39.421  73.132  24.245  0.00  0.00    +0.016 A 
ATOM     14  C   LIG    1      -40.171  74.306  24.050  0.00  0.00    +0.055 A 
ATOM     15  C   LIG    1      -41.441  74.209  23.464  0.00  0.00    +0.012 A 
ATOM     16  C   LIG    1      -41.946  72.970  23.070  0.00  0.00    +0.001 A 
ATOM     17  C   LIG    1      -41.190  71.814  23.259  0.00  0.00    +0.004 A 
BRANCH  14  18
ATOM     18  C   LIG    1      -39.600  75.642  24.457  0.00  0.00    +0.417 C 
ATOM     19  F   LIG    1      -38.265  75.586  24.721  0.00  0.00    -0.166 F 
ATOM     20  F   LIG    1      -40.182  76.134  25.586  0.00  0.00    -0.166 F 
ATOM     21  F   LIG    1      -39.751  76.612  23.511  0.00  0.00    -0.166 F 
ENDBRANCH  14  18
ENDBRANCH  11  12
ENDBRANCH   9  11
ENDBRANCH   3   7
BRANCH   1  22
ATOM     22  C   LIG    1      -35.400  73.497  29.406  0.00  0.00    +0.197 C 
ATOM     23  O   LIG    1      -35.647  73.307  30.599  0.00  0.00    -0.287 OA
BRANCH  22  31
ATOM     24  N   LIG    1      -33.989  76.677  28.212  0.00  0.00    -0.323 N 
ATOM     25  C   LIG    1      -35.327  76.895  27.958  0.00  0.00    +0.147 A 
ATOM     26  N   LIG    1      -35.853  78.008  27.429  0.00  0.00    -0.197 NA
ATOM     27  C   LIG    1      -37.182  77.974  27.311  0.00  0.00    +0.214 A 
ATOM     28  N   LIG    1      -37.977  76.940  27.611  0.00  0.00    -0.222 NA
ATOM     29  C   LIG    1      -37.419  75.825  28.141  0.00  0.00    +0.126 A 
ATOM     30  C   LIG    1      -36.043  75.774  28.354  0.00  0.00    +0.048 A 
ATOM     31  C   LIG    1      -35.116  74.830  28.881  0.00  0.00    +0.051 A 
ATOM     32  C   LIG    1      -33.873  75.448  28.831  0.00  0.00    +0.100 A 
BRANCH  24  34
ATOM     33  C   LIG    1      -31.608  77.135  28.642  0.00  0.00    +0.036 C 
ATOM     34  C   LIG    1      -32.854  77.555  27.835  0.00  0.00    +0.064 C 
ATOM     35  C   LIG    1      -33.158  79.038  28.160  0.00  0.00    +0.036 C 
BRANCH  34  36
ATOM     36  C   LIG    1      -32.483  77.484  26.326  0.00  0.00    +0.183 C 
BRANCH  36  37
ATOM     37  O   LIG    1      -32.360  78.777  25.740  0.00  0.00    -0.393 OA
ATOM     38  H   LIG    1      -33.233  78.983  25.352  0.00  0.00    +0.209 HD
ENDBRANCH  36  37
ENDBRANCH  34  36
ENDBRANCH  24  34
BRANCH  27  39
ATOM     39  N   LIG    1      -37.785  79.112  26.815  0.00  0.00    -0.327 N 
ATOM     40  H   LIG    1      -37.954  79.773  27.559  0.00  0.00    +0.145 HD
ATOM     41  H   LIG    1      -37.284  79.441  26.001  0.00  0.00    +0.145 HD
ENDBRANCH  27  39
ENDBRANCH  22  31
ENDBRANCH   1  22
TORSDOF 10
ENDMDL
MODEL 5
REMARK VINA RESULT:      -6.4      2.106      2.580
REMARK  Name = pdb/CHEMBL3666259.pdb
REMARK                            x       y       z     vdW  Elec       q    Type
REMARK                         _______ _______ _______ _____ _____    ______ ____
ROOT
ATOM      1  C   LIG    1      -35.408  73.337  28.898  0.00  0.00    +0.042 A 
ATOM      2  C   LIG    1      -36.518  73.126  28.070  0.00  0.00    +0.038 A 
ATOM      3  C   LIG    1      -36.544  72.025  27.205  0.00  0.00    +0.052 A 
ATOM      4  C   LIG    1      -35.451  71.159  27.239  0.00  0.00    +0.134 A 
ATOM      5  N   LIG    1      -34.361  71.341  28.028  0.00  0.00    -0.261 NA
ATOM      6  C   LIG    1      -34.354  72.437  28.815  0.00  0.00    +0.122 A 
ENDROOT
BRANCH   3   7
ATOM      7  N   LIG    1      -37.663  71.874  26.354  0.00  0.00    -0.284 N 
ATOM      8  H   LIG    1      -38.573  71.993  26.783  0.00  0.00    +0.155 HD
ATOM      9  C   LIG    1      -37.629  71.648  24.984  0.00  0.00    +0.222 C 
ATOM     10  O   LIG    1      -36.610  71.572  24.307  0.00  0.00    -0.275 OA
BRANCH   9  11
ATOM     11  C   LIG    1      -39.023  71.543  24.370  0.00  0.00    +0.131 C 
BRANCH  11  12
ATOM     12  C   LIG    1      -39.694  72.883  24.185  0.00  0.00    -0.038 A 
ATOM     13  C   LIG    1      -39.018  74.075  24.493  0.00  0.00    +0.016 A 
ATOM     14  C   LIG    1      -39.619  75.326  24.272  0.00  0.00    +0.055 A 
ATOM     15  C   LIG    1      -40.917  75.370  23.743  0.00  0.00    +0.012 A 
ATOM     16  C   LIG    1      -41.594  74.191  23.430  0.00  0.00    +0.001 A 
ATOM     17  C   LIG    1      -40.984  72.956  23.645  0.00  0.00    +0.004 A 
BRANCH  14  18
ATOM     18  C   LIG    1      -38.865  76.593  24.590  0.00  0.00    +0.417 C 
ATOM     19  F   LIG    1      -37.575  76.359  24.962  0.00  0.00    -0.166 F 
ATOM     20  F   LIG    1      -39.427  77.290  25.617  0.00  0.00    -0.166 F 
ATOM     21  F   LIG    1      -38.797  77.466  23.545  0.00  0.00    -0.166 F 
ENDBRANCH  14  18
ENDBRANCH  11  12
ENDBRANCH   9  11
ENDBRANCH   3   7
BRANCH   1  22
ATOM     22  C   LIG    1      -35.330  74.532  29.776  0.00  0.00    +0.197 C 
ATOM     23  O   LIG    1      -35.261  74.361  30.995  0.00  0.00    -0.287 OA
BRANCH  22  31
ATOM     24  N   LIG    1      -36.063  77.952  28.639  0.00  0.00    -0.323 N 
ATOM     25  C   LIG    1      -34.823  77.766  28.064  0.00  0.00    +0.147 A 
ATOM     26  N   LIG    1      -34.169  78.657  27.306  0.00  0.00    -0.197 NA
ATOM     27  C   LIG    1      -32.994  78.218  26.848  0.00  0.00    +0.214 A 
ATOM     28  N   LIG    1      -32.428  77.038  27.127  0.00  0.00    -0.222 NA
ATOM     29  C   LIG    1      -33.108  76.157  27.899  0.00  0.00    +0.126 A 
ATOM     30  C   LIG    1      -34.368  76.495  28.388  0.00  0.00    +0.048 A 
ATOM     31  C   LIG    1      -35.367  75.868  29.186  0.00  0.00    +0.051 A 
ATOM     32  C   LIG    1      -36.416  76.774  29.266  0.00  0.00    +0.100 A 
BRANCH  24  34
ATOM     33  C   LIG    1      -37.905  79.114  29.788  0.00  0.00    +0.036 C 
ATOM     34  C   LIG    1      -36.860  79.203  28.656  0.00  0.00    +0.064 C 
ATOM     35  C   LIG    1      -37.617  79.406  27.320  0.00  0.00    +0.036 C 
BRANCH  34  36
ATOM     36  C   LIG    1      -36.011  80.483  28.899  0.00  0.00    +0.183 C 
BRANCH  36  37
ATOM     37  O   LIG    1      -35.692  81.158  27.686  0.00  0.00    -0.393 OA
ATOM     38  H   LIG    1      -34.716  81.187  27.641  0.00  0.00    +0.209 HD
ENDBRANCH  36  37
ENDBRANCH  34  36
ENDBRANCH  24  34
BRANCH  27  39
ATOM     39  N   LIG    1      -32.295  79.076  26.023  0.00  0.00    -0.327 N 
ATOM     40  H   LIG    1      -32.410  80.030  26.332  0.00  0.00    +0.145 HD
ATOM     41  H   LIG    1      -31.353  78.736  25.891  0.00  0.00    +0.145 HD
ENDBRANCH  27  39
ENDBRANCH  22  31
ENDBRANCH   1  22
TORSDOF 10
ENDMDL
MODEL 6
REMARK VINA RESULT:      -6.1     16.970     19.841
REMARK  Name = pdb/CHEMBL3666259.pdb
REMARK                            x       y       z     vdW  Elec       q    Type
REMARK                         _______ _______ _______ _____ _____    ______ ____
ROOT
ATOM      1  C   LIG    1      -20.704  80.496  15.996  0.00  0.00    +0.042 A 
ATOM      2  C   LIG    1      -20.573  79.101  15.943  0.00  0.00    +0.038 A 
ATOM      3  C   LIG    1      -19.320  78.527  15.690  0.00  0.00    +0.052 A 
ATOM      4  C   LIG    1      -18.240  79.396  15.534  0.00  0.00    +0.134 A 
ATOM      5  N   LIG    1      -18.338  80.749  15.577  0.00  0.00    -0.261 NA
ATOM      6  C   LIG    1      -19.569  81.264  15.778  0.00  0.00    +0.122 A 
ENDROOT
BRANCH   3   7
ATOM      7  N   LIG    1      -19.241  77.119  15.600  0.00  0.00    -0.284 N 
ATOM      8  H   LIG    1      -19.592  76.703  14.745  0.00  0.00    +0.155 HD
ATOM      9  C   LIG    1      -18.670  76.266  16.536  0.00  0.00    +0.222 C 
ATOM     10  O   LIG    1      -18.124  76.623  17.574  0.00  0.00    -0.275 OA
BRANCH   9  11
ATOM     11  C   LIG    1      -18.748  74.799  16.120  0.00  0.00    +0.131 C 
BRANCH  11  12
ATOM     12  C   LIG    1      -19.299  73.902  17.203  0.00  0.00    -0.038 A 
ATOM     13  C   LIG    1      -20.679  73.845  17.456  0.00  0.00    +0.016 A 
ATOM     14  C   LIG    1      -21.201  72.972  18.426  0.00  0.00    +0.055 A 
ATOM     15  C   LIG    1      -20.318  72.157  19.150  0.00  0.00    +0.012 A 
ATOM     16  C   LIG    1      -18.947  72.205  18.902  0.00  0.00    +0.001 A 
ATOM     17  C   LIG    1      -18.441  73.069  17.930  0.00  0.00    +0.004 A 
BRANCH  14  18
ATOM     18  C   LIG    1      -22.690  72.911  18.665  0.00  0.00    +0.417 C 
ATOM     19  F   LIG    1      -23.305  71.953  17.917  0.00  0.00    -0.166 F 
ATOM     20  F   LIG    1      -23.314  74.083  18.357  0.00  0.00    -0.166 F 
ATOM     21  F   LIG    1      -23.025  72.644  19.960  0.00  0.00    -0.166 F 
ENDBRANCH  14  18
ENDBRANCH  11  12
ENDBRANCH   9  11
ENDBRANCH   3   7
BRANCH   1  22
ATOM     22  C   LIG    1      -22.033  81.127  16.198  0.00  0.00    +0.197 C 
ATOM     23  O   LIG    1      -22.255  81.696  17.269  0.00  0.00    -0.287 OA
BRANCH  22  31
ATOM     24  N   LIG    1      -24.223  81.460  13.262  0.00  0.00    -0.323 N 
ATOM     25  C   LIG    1      -24.801  80.367  13.873  0.00  0.00    +0.147 A 
ATOM     26  N   LIG    1      -25.875  79.698  13.430  0.00  0.00    -0.197 NA
ATOM     27  C   LIG    1      -26.250  78.692  14.223  0.00  0.00    +0.214 A 
ATOM     28  N   LIG    1      -25.628  78.288  15.336  0.00  0.00    -0.222 NA
ATOM     29  C   LIG    1      -24.542  78.979  15.760  0.00  0.00    +0.126 A 
ATOM     30  C   LIG    1      -24.095  80.080  15.033  0.00  0.00    +0.048 A 
ATOM     31  C   LIG    1      -23.046  81.036  15.149  0.00  0.00    +0.051 A 
ATOM     32  C   LIG    1      -23.197  81.901  14.074  0.00  0.00    +0.100 A 
BRANCH  24  34
ATOM     33  C   LIG    1      -23.459  83.007  11.505  0.00  0.00    +0.036 C 
ATOM     34  C   LIG    1      -24.574  82.033  11.939  0.00  0.00    +0.064 C 
ATOM     35  C   LIG    1      -25.904  82.824  12.005  0.00  0.00    +0.036 C 
BRANCH  34  36
ATOM     36  C   LIG    1      -24.730  80.967  10.817  0.00  0.00    +0.183 C 
BRANCH  36  37
ATOM     37  O   LIG    1      -23.504  80.299  10.532  0.00  0.00    -0.393 OA
ATOM     38  H   LIG    1      -23.481  80.178   9.563  0.00  0.00    +0.209 HD
ENDBRANCH  36  37
ENDBRANCH  34  36
ENDBRANCH  24  34
BRANCH  27  39
ATOM     39  N   LIG    1      -27.379  77.996  13.842  0.00  0.00    -0.327 N 
ATOM     40  H   LIG    1      -27.830  78.457  13.065  0.00  0.00    +0.145 HD
ATOM     41  H   LIG    1      -27.162  77.014  13.743  0.00  0.00    +0.145 HD
ENDBRANCH  27  39
ENDBRANCH  22  31
ENDBRANCH   1  22
TORSDOF 10
ENDMDL
MODEL 7
REMARK VINA RESULT:      -6.1     14.522     17.277
REMARK  Name = pdb/CHEMBL3666259.pdb
REMARK                            x       y       z     vdW  Elec       q    Type
REMARK                         _______ _______ _______ _____ _____    ______ ____
ROOT
ATOM      1  C   LIG    1      -26.811  72.796  13.694  0.00  0.00    +0.042 A 
ATOM      2  C   LIG    1      -26.870  74.072  14.272  0.00  0.00    +0.038 A 
ATOM      3  C   LIG    1      -26.996  75.203  13.455  0.00  0.00    +0.052 A 
ATOM      4  C   LIG    1      -27.090  74.990  12.080  0.00  0.00    +0.134 A 
ATOM      5  N   LIG    1      -27.032  73.768  11.493  0.00  0.00    -0.261 NA
ATOM      6  C   LIG    1      -26.866  72.707  12.309  0.00  0.00    +0.122 A 
ENDROOT
BRANCH   3   7
ATOM      7  N   LIG    1      -27.006  76.472  14.076  0.00  0.00    -0.284 N 
ATOM      8  H   LIG    1      -27.843  76.713  14.594  0.00  0.00    +0.155 HD
ATOM      9  C   LIG    1      -25.959  77.385  14.099  0.00  0.00    +0.222 C 
ATOM     10  O   LIG    1      -24.854  77.203  13.599  0.00  0.00    -0.275 OA
BRANCH   9  11
ATOM     11  C   LIG    1      -26.304  78.659  14.866  0.00  0.00    +0.131 C 
BRANCH  11  12
ATOM     12  C   LIG    1      -25.312  79.775  14.644  0.00  0.00    -0.038 A 
ATOM     13  C   LIG    1      -24.321  80.057  15.597  0.00  0.00    +0.016 A 
ATOM     14  C   LIG    1      -23.362  81.060  15.370  0.00  0.00    +0.055 A 
ATOM     15  C   LIG    1      -23.414  81.787  14.172  0.00  0.00    +0.012 A 
ATOM     16  C   LIG    1      -24.393  81.510  13.218  0.00  0.00    +0.001 A 
ATOM     17  C   LIG    1      -25.333  80.507  13.450  0.00  0.00    +0.004 A 
BRANCH  14  18
ATOM     18  C   LIG    1      -22.293  81.330  16.399  0.00  0.00    +0.417 C 
ATOM     19  F   LIG    1      -21.123  81.754  15.845  0.00  0.00    -0.166 F 
ATOM     20  F   LIG    1      -21.980  80.221  17.127  0.00  0.00    -0.166 F 
ATOM     21  F   LIG    1      -22.639  82.284  17.310  0.00  0.00    -0.166 F 
ENDBRANCH  14  18
ENDBRANCH  11  12
ENDBRANCH   9  11
ENDBRANCH   3   7
BRANCH   1  22
ATOM     22  C   LIG    1      -26.613  71.589  14.535  0.00  0.00    +0.197 C 
ATOM     23  O   LIG    1      -25.606  70.902  14.349  0.00  0.00    -0.287 OA
BRANCH  22  31
ATOM     24  N   LIG    1      -29.611  70.741  16.490  0.00  0.00    -0.323 N 
ATOM     25  C   LIG    1      -28.641  70.603  17.461  0.00  0.00    +0.147 A 
ATOM     26  N   LIG    1      -28.855  70.261  18.739  0.00  0.00    -0.197 NA
ATOM     27  C   LIG    1      -27.746  70.224  19.482  0.00  0.00    +0.214 A 
ATOM     28  N   LIG    1      -26.498  70.433  19.049  0.00  0.00    -0.222 NA
ATOM     29  C   LIG    1      -26.308  70.774  17.752  0.00  0.00    +0.126 A 
ATOM     30  C   LIG    1      -27.405  70.891  16.900  0.00  0.00    +0.048 A 
ATOM     31  C   LIG    1      -27.618  71.228  15.533  0.00  0.00    +0.051 A 
ATOM     32  C   LIG    1      -28.992  71.182  15.338  0.00  0.00    +0.100 A 
BRANCH  24  34
ATOM     33  C   LIG    1      -31.739  71.493  17.474  0.00  0.00    +0.036 C 
ATOM     34  C   LIG    1      -31.052  70.412  16.614  0.00  0.00    +0.064 C 
ATOM     35  C   LIG    1      -31.259  69.044  17.310  0.00  0.00    +0.036 C 
BRANCH  34  36
ATOM     36  C   LIG    1      -31.800  70.350  15.252  0.00  0.00    +0.183 C 
BRANCH  36  37
ATOM     37  O   LIG    1      -32.474  71.568  14.950  0.00  0.00    -0.393 OA
ATOM     38  H   LIG    1      -31.793  72.174  14.599  0.00  0.00    +0.209 HD
ENDBRANCH  36  37
ENDBRANCH  34  36
ENDBRANCH  24  34
BRANCH  27  39
ATOM     39  N   LIG    1      -27.910  69.922  20.818  0.00  0.00    -0.327 N 
ATOM     40  H   LIG    1      -27.382  70.564  21.390  0.00  0.00    +0.145 HD
ATOM     41  H   LIG    1      -28.892  69.807  21.028  0.00  0.00    +0.145 HD
ENDBRANCH  27  39
ENDBRANCH  22  31
ENDBRANCH   1  22
TORSDOF 10
ENDMDL
MODEL 8
REMARK VINA RESULT:      -5.9     19.672     22.375
REMARK  Name = pdb/CHEMBL3666259.pdb
REMARK                            x       y       z     vdW  Elec       q    Type
REMARK                         _______ _______ _______ _____ _____    ______ ____
ROOT
ATOM      1  C   LIG    1      -24.175  85.384  10.079  0.00  0.00    +0.042 A 
ATOM      2  C   LIG    1      -24.393  84.380  11.033  0.00  0.00    +0.038 A 
ATOM      3  C   LIG    1      -25.541  83.581  10.956  0.00  0.00    +0.052 A 
ATOM      4  C   LIG    1      -26.409  83.812   9.888  0.00  0.00    +0.134 A 
ATOM      5  N   LIG    1      -26.225  84.778   8.953  0.00  0.00    -0.261 NA
ATOM      6  C   LIG    1      -25.131  85.556   9.087  0.00  0.00    +0.122 A 
ENDROOT
BRANCH   3   7
ATOM      7  N   LIG    1      -25.745  82.612  11.964  0.00  0.00    -0.284 N 
ATOM      8  H   LIG    1      -26.345  82.883  12.734  0.00  0.00    +0.155 HD
ATOM      9  C   LIG    1      -25.258  81.311  11.964  0.00  0.00    +0.222 C 
ATOM     10  O   LIG    1      -24.596  80.806  11.064  0.00  0.00    -0.275 OA
BRANCH   9  11
ATOM     11  C   LIG    1      -25.673  80.527  13.207  0.00  0.00    +0.131 C 
BRANCH  11  12
ATOM     12  C   LIG    1      -24.550  80.349  14.200  0.00  0.00    -0.038 A 
ATOM     13  C   LIG    1      -23.895  81.461  14.753  0.00  0.00    +0.016 A 
ATOM     14  C   LIG    1      -22.885  81.300  15.718  0.00  0.00    +0.055 A 
ATOM     15  C   LIG    1      -22.531  80.003  16.119  0.00  0.00    +0.012 A 
ATOM     16  C   LIG    1      -23.179  78.894  15.577  0.00  0.00    +0.001 A 
ATOM     17  C   LIG    1      -24.186  79.065  14.627  0.00  0.00    +0.004 A 
BRANCH  14  18
ATOM     18  C   LIG    1      -22.212  82.511  16.315  0.00  0.00    +0.417 C 
ATOM     19  F   LIG    1      -20.866  82.351  16.452  0.00  0.00    -0.166 F 
ATOM     20  F   LIG    1      -22.679  82.805  17.561  0.00  0.00    -0.166 F 
ATOM     21  F   LIG    1      -22.378  83.647  15.580  0.00  0.00    -0.166 F 
ENDBRANCH  14  18
ENDBRANCH  11  12
ENDBRANCH   9  11
ENDBRANCH   3   7
BRANCH   1  22
ATOM     22  C   LIG    1      -22.999  86.284  10.179  0.00  0.00    +0.197 C 
ATOM     23  O   LIG    1      -22.874  87.180   9.341  0.00  0.00    -0.287 OA
BRANCH  22  31
ATOM     24  N   LIG    1      -20.155  85.381  12.328  0.00  0.00    -0.323 N 
ATOM     25  C   LIG    1      -20.887  86.151  13.207  0.00  0.00    +0.147 A 
ATOM     26  N   LIG    1      -20.558  86.418  14.479  0.00  0.00    -0.197 NA
ATOM     27  C   LIG    1      -21.454  87.168  15.123  0.00  0.00    +0.214 A 
ATOM     28  N   LIG    1      -22.567  87.696  14.600  0.00  0.00    -0.222 NA
ATOM     29  C   LIG    1      -22.875  87.414  13.311  0.00  0.00    +0.126 A 
ATOM     30  C   LIG    1      -22.033  86.596  12.561  0.00  0.00    +0.048 A 
ATOM     31  C   LIG    1      -22.013  86.075  11.236  0.00  0.00    +0.051 A 
ATOM     32  C   LIG    1      -20.874  85.285  11.154  0.00  0.00    +0.100 A 
BRANCH  24  34
ATOM     33  C   LIG    1      -18.328  84.126  11.256  0.00  0.00    +0.036 C 
ATOM     34  C   LIG    1      -18.805  84.807  12.555  0.00  0.00    +0.064 C 
ATOM     35  C   LIG    1      -18.830  83.738  13.675  0.00  0.00    +0.036 C 
BRANCH  34  36
ATOM     36  C   LIG    1      -17.736  85.863  12.953  0.00  0.00    +0.183 C 
BRANCH  36  37
ATOM     37  O   LIG    1      -18.172  87.195  12.700  0.00  0.00    -0.393 OA
ATOM     38  H   LIG    1      -19.074  87.260  13.070  0.00  0.00    +0.209 HD
ENDBRANCH  36  37
ENDBRANCH  34  36
ENDBRANCH  24  34
BRANCH  27  39
ATOM     39  N   LIG    1      -21.190  87.437  16.451  0.00  0.00    -0.327 N 
ATOM     40  H   LIG    1      -21.154  88.434  16.606  0.00  0.00    +0.145 HD
ATOM     41  H   LIG    1      -21.803  86.893  17.042  0.00  0.00    +0.145 HD
ENDBRANCH  27  39
ENDBRANCH  22  31
ENDBRANCH   1  22
TORSDOF 10
ENDMDL
MODEL 9
REMARK VINA RESULT:      -5.9      2.972      5.849
REMARK  Name = pdb/CHEMBL3666259.pdb
REMARK                            x       y       z     vdW  Elec       q    Type
REMARK                         _______ _______ _______ _____ _____    ______ ____
ROOT
ATOM      1  C   LIG    1      -35.034  76.699  27.797  0.00  0.00    +0.042 A 
ATOM      2  C   LIG    1      -36.129  76.427  26.966  0.00  0.00    +0.038 A 
ATOM      3  C   LIG    1      -37.363  77.042  27.213  0.00  0.00    +0.052 A 
ATOM      4  C   LIG    1      -37.427  77.940  28.279  0.00  0.00    +0.134 A 
ATOM      5  N   LIG    1      -36.384  78.221  29.101  0.00  0.00    -0.261 NA
ATOM      6  C   LIG    1      -35.225  77.574  28.858  0.00  0.00    +0.122 A 
ENDROOT
BRANCH   3   7
ATOM      7  N   LIG    1      -38.453  76.703  26.379  0.00  0.00    -0.284 N 
ATOM      8  H   LIG    1      -39.345  76.564  26.840  0.00  0.00    +0.155 HD
ATOM      9  C   LIG    1      -38.430  76.611  24.993  0.00  0.00    +0.222 C 
ATOM     10  O   LIG    1      -37.454  76.839  24.288  0.00  0.00    -0.275 OA
BRANCH   9  11
ATOM     11  C   LIG    1      -39.787  76.230  24.407  0.00  0.00    +0.131 C 
BRANCH  11  12
ATOM     12  C   LIG    1      -39.939  74.745  24.175  0.00  0.00    -0.038 A 
ATOM     13  C   LIG    1      -38.937  73.848  24.577  0.00  0.00    +0.016 A 
ATOM     14  C   LIG    1      -39.098  72.461  24.411  0.00  0.00    +0.055 A 
ATOM     15  C   LIG    1      -40.280  71.982  23.827  0.00  0.00    +0.012 A 
ATOM     16  C   LIG    1      -41.282  72.866  23.429  0.00  0.00    +0.001 A 
ATOM     17  C   LIG    1      -41.115  74.239  23.607  0.00  0.00    +0.004 A 
BRANCH  14  18
ATOM     18  C   LIG    1      -38.017  71.515  24.870  0.00  0.00    +0.417 C 
ATOM     19  F   LIG    1      -36.788  71.840  24.379  0.00  0.00    -0.166 F 
ATOM     20  F   LIG    1      -38.247  70.231  24.476  0.00  0.00    -0.166 F 
ATOM     21  F   LIG    1      -37.873  71.465  26.226  0.00  0.00    -0.166 F 
ENDBRANCH  14  18
ENDBRANCH  11  12
ENDBRANCH   9  11
ENDBRANCH   3   7
BRANCH   1  22
ATOM     22  C   LIG    1      -33.735  76.010  27.594  0.00  0.00    +0.197 C 
ATOM     23  O   LIG    1      -32.898  76.540  26.860  0.00  0.00    -0.287 OA
BRANCH  22  31
ATOM     24  N   LIG    1      -33.645  72.524  28.764  0.00  0.00    -0.323 N 
ATOM     25  C   LIG    1      -32.630  73.063  29.528  0.00  0.00    +0.147 A 
ATOM     26  N   LIG    1      -31.891  72.400  30.429  0.00  0.00    -0.197 NA
ATOM     27  C   LIG    1      -30.991  73.162  31.054  0.00  0.00    +0.214 A 
ATOM     28  N   LIG    1      -30.746  74.455  30.814  0.00  0.00    -0.222 NA
ATOM     29  C   LIG    1      -31.505  75.101  29.896  0.00  0.00    +0.126 A 
ATOM     30  C   LIG    1      -32.509  74.411  29.221  0.00  0.00    +0.048 A 
ATOM     31  C   LIG    1      -33.491  74.721  28.236  0.00  0.00    +0.051 A 
ATOM     32  C   LIG    1      -34.206  73.549  28.029  0.00  0.00    +0.100 A 
BRANCH  24  34
ATOM     33  C   LIG    1      -34.764  70.857  27.339  0.00  0.00    +0.036 C 
ATOM     34  C   LIG    1      -34.035  71.095  28.677  0.00  0.00    +0.064 C 
ATOM     35  C   LIG    1      -35.000  70.705  29.825  0.00  0.00    +0.036 C 
BRANCH  34  36
ATOM     36  C   LIG    1      -32.831  70.113  28.738  0.00  0.00    +0.183 C 
BRANCH  36  37
ATOM     37  O   LIG    1      -32.699  69.500  30.018  0.00  0.00    -0.393 OA
ATOM     38  H   LIG    1      -33.414  68.837  30.075  0.00  0.00    +0.209 HD
ENDBRANCH  36  37
ENDBRANCH  34  36
ENDBRANCH  24  34
BRANCH  27  39
ATOM     39  N   LIG    1      -30.231  72.544  32.026  0.00  0.00    -0.327 N 
ATOM     40  H   LIG    1      -30.109  73.157  32.819  0.00  0.00    +0.145 HD
ATOM     41  H   LIG    1      -30.585  71.614  32.202  0.00  0.00    +0.145 HD
ENDBRANCH  27  39
ENDBRANCH  22  31
ENDBRANCH   1  22
TORSDOF 10
ENDMDL
