MODEL 1
REMARK VINA RESULT:      -6.5      0.000      0.000
REMARK  Name = pdb/CHEMBL3940800.pdb
REMARK                            x       y       z     vdW  Elec       q    Type
REMARK                         _______ _______ _______ _____ _____    ______ ____
ROOT
ATOM      1  N   LIG    1      -20.444  81.898  15.628  0.00  0.00    -0.196 NA
ATOM      2  C   LIG    1      -21.626  82.153  16.027  0.00  0.00    +0.285 C 
ENDROOT
BRANCH   1   6
ATOM      3  C   LIG    1      -18.873  78.078  15.368  0.00  0.00    +0.323 A 
ATOM      4  N   LIG    1      -18.927  78.601  16.601  0.00  0.00    -0.201 NA
ATOM      5  C   LIG    1      -19.403  79.874  16.677  0.00  0.00    +0.145 A 
ATOM      6  C   LIG    1      -19.881  80.609  15.608  0.00  0.00    +0.105 A 
ATOM      7  C   LIG    1      -19.729  79.974  14.401  0.00  0.00    +0.145 A 
ATOM      8  N   LIG    1      -19.191  78.752  14.253  0.00  0.00    -0.201 NA
BRANCH   3   9
ATOM      9  O   LIG    1      -18.472  76.745  15.282  0.00  0.00    -0.424 OA
BRANCH   9  13
ATOM     10  C   LIG    1      -21.043  73.840  16.838  0.00  0.00    -0.010 A 
ATOM     11  C   LIG    1      -19.726  73.854  17.265  0.00  0.00    +0.012 A 
ATOM     12  C   LIG    1      -18.849  74.785  16.730  0.00  0.00    +0.047 A 
ATOM     13  C   LIG    1      -19.277  75.754  15.813  0.00  0.00    +0.132 A 
ATOM     14  C   LIG    1      -20.599  75.712  15.359  0.00  0.00    +0.047 A 
ATOM     15  C   LIG    1      -21.481  74.755  15.871  0.00  0.00    +0.012 A 
BRANCH  10  19
ATOM     16  N   LIG    1      -25.223  71.131  17.783  0.00  0.00    -0.261 NA
ATOM     17  C   LIG    1      -24.019  71.570  17.836  0.00  0.00    +0.167 A 
ATOM     18  S   LIG    1      -22.991  71.946  16.418  0.00  0.00    -0.050 S 
ATOM     19  C   LIG    1      -21.958  72.897  17.429  0.00  0.00    +0.039 A 
ATOM     20  C   LIG    1      -22.235  72.742  18.729  0.00  0.00    +0.100 A 
ATOM     21  N   LIG    1      -23.312  71.922  18.972  0.00  0.00    -0.340 N 
ATOM     22  H   LIG    1      -23.763  71.982  19.878  0.00  0.00    +0.167 HD
BRANCH  16  23
ATOM     23  C   LIG    1      -25.850  70.907  16.484  0.00  0.00    +0.144 C 
BRANCH  23  25
ATOM     24  C   LIG    1      -28.110  71.857  17.052  0.00  0.00    +0.005 C 
ATOM     25  C   LIG    1      -26.862  72.007  16.195  0.00  0.00    +0.020 C 
ENDBRANCH  23  25
ENDBRANCH  16  23
ENDBRANCH  10  19
ENDBRANCH   9  13
ENDBRANCH   3   9
ENDBRANCH   1   6
BRANCH   2  26
ATOM     26  N   LIG    1      -22.287  83.360  15.992  0.00  0.00    -0.267 N 
ATOM     27  H   LIG    1      -22.642  83.760  16.856  0.00  0.00    +0.157 HD
BRANCH  26  28
ATOM     28  C   LIG    1      -22.549  84.192  14.877  0.00  0.00    +0.061 A 
ATOM     29  C   LIG    1      -23.119  83.693  13.675  0.00  0.00    +0.087 A 
ATOM     30  C   LIG    1      -23.407  84.583  12.616  0.00  0.00    +0.030 A 
ATOM     31  C   LIG    1      -23.166  85.952  12.732  0.00  0.00    +0.014 A 
ATOM     32  C   LIG    1      -22.603  86.462  13.895  0.00  0.00    +0.057 A 
ATOM     33  C   LIG    1      -22.269  85.572  14.923  0.00  0.00    +0.037 A 
BRANCH  29  34
ATOM     34  N   LIG    1      -23.423  82.305  13.491  0.00  0.00    -0.238 N 
ATOM     35  N   LIG    1      -24.451  81.696  14.160  0.00  0.00    -0.162 NA
ATOM     36  C   LIG    1      -24.470  80.425  13.696  0.00  0.00    +0.166 A 
ATOM     37  C   LIG    1      -23.426  80.204  12.770  0.00  0.00    +0.054 A 
ATOM     38  C   LIG    1      -22.778  81.407  12.666  0.00  0.00    +0.115 A 
BRANCH  36  39
ATOM     39  C   LIG    1      -25.490  79.403  14.130  0.00  0.00    +0.436 C 
ATOM     40  F   LIG    1      -25.987  79.673  15.365  0.00  0.00    -0.164 F 
ATOM     41  F   LIG    1      -24.969  78.149  14.175  0.00  0.00    -0.164 F 
ATOM     42  F   LIG    1      -26.554  79.354  13.283  0.00  0.00    -0.164 F 
ENDBRANCH  36  39
ENDBRANCH  29  34
BRANCH  32  43
ATOM     43  C   LIG    1      -22.365  87.941  14.065  0.00  0.00    +0.417 C 
ATOM     44  F   LIG    1      -21.045  88.267  13.984  0.00  0.00    -0.166 F 
ATOM     45  F   LIG    1      -22.793  88.401  15.273  0.00  0.00    -0.166 F 
ATOM     46  F   LIG    1      -22.995  88.708  13.131  0.00  0.00    -0.166 F 
ENDBRANCH  32  43
ENDBRANCH  26  28
ENDBRANCH   2  26
BRANCH   2  47
ATOM     47  O   LIG    1      -22.399  81.175  16.547  0.00  0.00    -0.481 OA
ATOM     48  H   LIG    1      -22.008  80.750  17.315  0.00  0.00    +0.295 HD
ENDBRANCH   2  47
TORSDOF 12
ENDMDL
MODEL 2
REMARK VINA RESULT:      -6.5     17.184     21.294
REMARK  Name = pdb/CHEMBL3940800.pdb
REMARK                            x       y       z     vdW  Elec       q    Type
REMARK                         _______ _______ _______ _____ _____    ______ ____
ROOT
ATOM      1  N   LIG    1      -37.605  80.999  27.744  0.00  0.00    -0.196 NA
ATOM      2  C   LIG    1      -36.938  79.915  27.713  0.00  0.00    +0.285 C 
ENDROOT
BRANCH   1   6
ATOM      3  C   LIG    1      -36.047  84.817  27.396  0.00  0.00    +0.323 A 
ATOM      4  N   LIG    1      -36.014  84.074  26.282  0.00  0.00    -0.201 NA
ATOM      5  C   LIG    1      -36.488  82.804  26.411  0.00  0.00    +0.145 A 
ATOM      6  C   LIG    1      -37.042  82.275  27.563  0.00  0.00    +0.105 A 
ATOM      7  C   LIG    1      -36.974  83.125  28.638  0.00  0.00    +0.145 A 
ATOM      8  N   LIG    1      -36.444  84.360  28.593  0.00  0.00    -0.201 NA
BRANCH   3   9
ATOM      9  O   LIG    1      -35.649  86.148  27.260  0.00  0.00    -0.424 OA
BRANCH   9  13
ATOM     10  C   LIG    1      -32.791  87.859  29.787  0.00  0.00    -0.010 A 
ATOM     11  C   LIG    1      -32.650  86.528  29.434  0.00  0.00    +0.012 A 
ATOM     12  C   LIG    1      -33.608  85.933  28.628  0.00  0.00    +0.047 A 
ATOM     13  C   LIG    1      -34.687  86.662  28.111  0.00  0.00    +0.132 A 
ATOM     14  C   LIG    1      -34.845  87.995  28.501  0.00  0.00    +0.047 A 
ATOM     15  C   LIG    1      -33.898  88.593  29.338  0.00  0.00    +0.012 A 
BRANCH  10  19
ATOM     16  N   LIG    1      -29.281  88.632  33.361  0.00  0.00    -0.261 NA
ATOM     17  C   LIG    1      -30.035  88.805  32.338  0.00  0.00    +0.167 A 
ATOM     18  S   LIG    1      -30.391  87.567  31.094  0.00  0.00    -0.050 S 
ATOM     19  C   LIG    1      -31.769  88.482  30.589  0.00  0.00    +0.039 A 
ATOM     20  C   LIG    1      -31.805  89.698  31.145  0.00  0.00    +0.100 A 
ATOM     21  N   LIG    1      -30.786  89.928  32.040  0.00  0.00    -0.340 N 
ATOM     22  H   LIG    1      -30.898  90.682  32.708  0.00  0.00    +0.167 HD
BRANCH  16  23
ATOM     23  C   LIG    1      -28.640  87.338  33.571  0.00  0.00    +0.144 C 
BRANCH  23  25
ATOM     24  C   LIG    1      -27.659  85.826  35.328  0.00  0.00    +0.005 C 
ATOM     25  C   LIG    1      -28.125  87.236  35.001  0.00  0.00    +0.020 C 
ENDBRANCH  23  25
ENDBRANCH  16  23
ENDBRANCH  10  19
ENDBRANCH   9  13
ENDBRANCH   3   9
ENDBRANCH   1   6
BRANCH   2  26
ATOM     26  N   LIG    1      -37.418  78.627  27.784  0.00  0.00    -0.267 N 
ATOM     27  H   LIG    1      -37.552  78.193  28.693  0.00  0.00    +0.157 HD
BRANCH  26  28
ATOM     28  C   LIG    1      -37.795  77.765  26.726  0.00  0.00    +0.061 A 
ATOM     29  C   LIG    1      -36.994  76.663  26.322  0.00  0.00    +0.087 A 
ATOM     30  C   LIG    1      -37.451  75.807  25.295  0.00  0.00    +0.030 A 
ATOM     31  C   LIG    1      -38.688  76.004  24.682  0.00  0.00    +0.014 A 
ATOM     32  C   LIG    1      -39.485  77.078  25.056  0.00  0.00    +0.057 A 
ATOM     33  C   LIG    1      -39.008  77.956  26.036  0.00  0.00    +0.037 A 
BRANCH  29  34
ATOM     34  N   LIG    1      -35.726  76.378  26.924  0.00  0.00    -0.238 N 
ATOM     35  N   LIG    1      -34.650  77.210  26.773  0.00  0.00    -0.162 NA
ATOM     36  C   LIG    1      -33.665  76.655  27.517  0.00  0.00    +0.166 A 
ATOM     37  C   LIG    1      -34.092  75.442  28.102  0.00  0.00    +0.054 A 
ATOM     38  C   LIG    1      -35.394  75.289  27.705  0.00  0.00    +0.115 A 
BRANCH  36  39
ATOM     39  C   LIG    1      -32.302  77.278  27.680  0.00  0.00    +0.436 C 
ATOM     40  F   LIG    1      -31.495  76.532  28.478  0.00  0.00    -0.164 F 
ATOM     41  F   LIG    1      -32.370  78.518  28.229  0.00  0.00    -0.164 F 
ATOM     42  F   LIG    1      -31.658  77.411  26.489  0.00  0.00    -0.164 F 
ENDBRANCH  36  39
ENDBRANCH  29  34
BRANCH  32  43
ATOM     43  C   LIG    1      -40.844  77.295  24.438  0.00  0.00    +0.417 C 
ATOM     44  F   LIG    1      -41.227  78.601  24.477  0.00  0.00    -0.166 F 
ATOM     45  F   LIG    1      -41.822  76.596  25.075  0.00  0.00    -0.166 F 
ATOM     46  F   LIG    1      -40.915  76.926  23.128  0.00  0.00    -0.166 F 
ENDBRANCH  32  43
ENDBRANCH  26  28
ENDBRANCH   2  26
BRANCH   2  47
ATOM     47  O   LIG    1      -35.594  79.942  27.581  0.00  0.00    -0.481 OA
ATOM     48  H   LIG    1      -35.145  79.309  28.148  0.00  0.00    +0.295 HD
ENDBRANCH   2  47
TORSDOF 12
ENDMDL
MODEL 3
REMARK VINA RESULT:      -6.5      5.197      7.994
REMARK  Name = pdb/CHEMBL3940800.pdb
REMARK                            x       y       z     vdW  Elec       q    Type
REMARK                         _______ _______ _______ _____ _____    ______ ____
ROOT
ATOM      1  N   LIG    1      -23.475  80.922  15.647  0.00  0.00    -0.196 NA
ATOM      2  C   LIG    1      -23.591  82.116  15.220  0.00  0.00    +0.285 C 
ENDROOT
BRANCH   1   6
ATOM      3  C   LIG    1      -25.338  77.716  13.808  0.00  0.00    +0.323 A 
ATOM      4  N   LIG    1      -25.896  78.133  14.952  0.00  0.00    -0.201 NA
ATOM      5  C   LIG    1      -25.255  79.160  15.577  0.00  0.00    +0.145 A 
ATOM      6  C   LIG    1      -24.143  79.818  15.086  0.00  0.00    +0.105 A 
ATOM      7  C   LIG    1      -23.649  79.265  13.932  0.00  0.00    +0.145 A 
ATOM      8  N   LIG    1      -24.189  78.202  13.312  0.00  0.00    -0.201 NA
BRANCH   3   9
ATOM      9  O   LIG    1      -26.030  76.726  13.110  0.00  0.00    -0.424 OA
BRANCH   9  13
ATOM     10  C   LIG    1      -29.592  77.541  11.079  0.00  0.00    -0.010 A 
ATOM     11  C   LIG    1      -28.668  78.561  11.229  0.00  0.00    +0.012 A 
ATOM     12  C   LIG    1      -27.498  78.320  11.933  0.00  0.00    +0.047 A 
ATOM     13  C   LIG    1      -27.199  77.051  12.446  0.00  0.00    +0.132 A 
ATOM     14  C   LIG    1      -28.152  76.035  12.323  0.00  0.00    +0.047 A 
ATOM     15  C   LIG    1      -29.347  76.280  11.640  0.00  0.00    +0.012 A 
BRANCH  10  19
ATOM     16  N   LIG    1      -33.815  79.714   9.307  0.00  0.00    -0.261 NA
ATOM     17  C   LIG    1      -32.831  78.903   9.452  0.00  0.00    +0.167 A 
ATOM     18  S   LIG    1      -31.129  79.381   9.736  0.00  0.00    -0.050 S 
ATOM     19  C   LIG    1      -30.785  77.787  10.311  0.00  0.00    +0.039 A 
ATOM     20  C   LIG    1      -31.792  76.935  10.082  0.00  0.00    +0.100 A 
ATOM     21  N   LIG    1      -32.895  77.522   9.508  0.00  0.00    -0.340 N 
ATOM     22  H   LIG    1      -33.782  77.035   9.570  0.00  0.00    +0.167 HD
BRANCH  16  23
ATOM     23  C   LIG    1      -33.577  81.152   9.374  0.00  0.00    +0.144 C 
BRANCH  23  25
ATOM     24  C   LIG    1      -33.291  82.967  11.094  0.00  0.00    +0.005 C 
ATOM     25  C   LIG    1      -34.037  81.696  10.720  0.00  0.00    +0.020 C 
ENDBRANCH  23  25
ENDBRANCH  16  23
ENDBRANCH  10  19
ENDBRANCH   9  13
ENDBRANCH   3   9
ENDBRANCH   1   6
BRANCH   2  26
ATOM     26  N   LIG    1      -22.907  83.234  15.643  0.00  0.00    -0.267 N 
ATOM     27  H   LIG    1      -22.919  83.484  16.627  0.00  0.00    +0.157 HD
BRANCH  26  28
ATOM     28  C   LIG    1      -22.126  84.134  14.878  0.00  0.00    +0.061 A 
ATOM     29  C   LIG    1      -20.996  83.710  14.129  0.00  0.00    +0.087 A 
ATOM     30  C   LIG    1      -20.288  84.646  13.341  0.00  0.00    +0.030 A 
ATOM     31  C   LIG    1      -20.689  85.979  13.263  0.00  0.00    +0.014 A 
ATOM     32  C   LIG    1      -21.787  86.418  13.993  0.00  0.00    +0.057 A 
ATOM     33  C   LIG    1      -22.455  85.502  14.814  0.00  0.00    +0.037 A 
BRANCH  29  34
ATOM     34  N   LIG    1      -20.540  82.352  14.133  0.00  0.00    -0.238 N 
ATOM     35  N   LIG    1      -20.031  81.764  15.260  0.00  0.00    -0.162 NA
ATOM     36  C   LIG    1      -19.766  80.486  14.904  0.00  0.00    +0.166 A 
ATOM     37  C   LIG    1      -20.054  80.268  13.538  0.00  0.00    +0.054 A 
ATOM     38  C   LIG    1      -20.535  81.465  13.076  0.00  0.00    +0.115 A 
BRANCH  36  39
ATOM     39  C   LIG    1      -19.233  79.454  15.865  0.00  0.00    +0.436 C 
ATOM     40  F   LIG    1      -19.803  79.562  17.093  0.00  0.00    -0.164 F 
ATOM     41  F   LIG    1      -17.891  79.560  16.037  0.00  0.00    -0.164 F 
ATOM     42  F   LIG    1      -19.473  78.186  15.433  0.00  0.00    -0.164 F 
ENDBRANCH  36  39
ENDBRANCH  29  34
BRANCH  32  43
ATOM     43  C   LIG    1      -22.268  87.845  13.900  0.00  0.00    +0.417 C 
ATOM     44  F   LIG    1      -21.250  88.720  13.671  0.00  0.00    -0.166 F 
ATOM     45  F   LIG    1      -22.875  88.264  15.043  0.00  0.00    -0.166 F 
ATOM     46  F   LIG    1      -23.170  88.055  12.900  0.00  0.00    -0.166 F 
ENDBRANCH  32  43
ENDBRANCH  26  28
ENDBRANCH   2  26
BRANCH   2  47
ATOM     47  O   LIG    1      -24.455  82.407  14.223  0.00  0.00    -0.481 OA
ATOM     48  H   LIG    1      -25.147  81.748  14.116  0.00  0.00    +0.295 HD
ENDBRANCH   2  47
TORSDOF 12
ENDMDL
MODEL 4
REMARK VINA RESULT:      -6.4     19.298     22.213
REMARK  Name = pdb/CHEMBL3940800.pdb
REMARK                            x       y       z     vdW  Elec       q    Type
REMARK                         _______ _______ _______ _____ _____    ______ ____
ROOT
ATOM      1  N   LIG    1      -23.671  80.359  36.373  0.00  0.00    -0.196 NA
ATOM      2  C   LIG    1      -23.613  79.630  35.331  0.00  0.00    +0.285 C 
ENDROOT
BRANCH   1   6
ATOM      3  C   LIG    1      -26.520  83.267  37.121  0.00  0.00    +0.323 A 
ATOM      4  N   LIG    1      -26.925  82.002  37.290  0.00  0.00    -0.201 NA
ATOM      5  C   LIG    1      -25.998  81.046  37.001  0.00  0.00    +0.145 A 
ATOM      6  C   LIG    1      -24.692  81.295  36.622  0.00  0.00    +0.105 A 
ATOM      7  C   LIG    1      -24.422  82.629  36.446  0.00  0.00    +0.145 A 
ATOM      8  N   LIG    1      -25.317  83.612  36.636  0.00  0.00    -0.201 NA
BRANCH   3   9
ATOM      9  O   LIG    1      -27.426  84.259  37.497  0.00  0.00    -0.424 OA
BRANCH   9  13
ATOM     10  C   LIG    1      -29.198  86.549  34.482  0.00  0.00    -0.010 A 
ATOM     11  C   LIG    1      -28.309  87.166  35.345  0.00  0.00    +0.012 A 
ATOM     12  C   LIG    1      -27.741  86.432  36.375  0.00  0.00    +0.047 A 
ATOM     13  C   LIG    1      -27.998  85.063  36.528  0.00  0.00    +0.132 A 
ATOM     14  C   LIG    1      -28.924  84.454  35.677  0.00  0.00    +0.047 A 
ATOM     15  C   LIG    1      -29.524  85.196  34.654  0.00  0.00    +0.012 A 
BRANCH  10  19
ATOM     16  N   LIG    1      -31.711  87.764  30.250  0.00  0.00    -0.261 NA
ATOM     17  C   LIG    1      -31.022  87.863  31.328  0.00  0.00    +0.167 A 
ATOM     18  S   LIG    1      -31.371  87.006  32.861  0.00  0.00    -0.050 S 
ATOM     19  C   LIG    1      -29.752  87.307  33.389  0.00  0.00    +0.039 A 
ATOM     20  C   LIG    1      -29.106  88.165  32.590  0.00  0.00    +0.100 A 
ATOM     21  N   LIG    1      -29.841  88.563  31.497  0.00  0.00    -0.340 N 
ATOM     22  H   LIG    1      -29.345  88.963  30.709  0.00  0.00    +0.167 HD
BRANCH  16  23
ATOM     23  C   LIG    1      -32.883  86.894  30.223  0.00  0.00    +0.144 C 
BRANCH  23  25
ATOM     24  C   LIG    1      -33.524  84.479  29.928  0.00  0.00    +0.005 C 
ATOM     25  C   LIG    1      -32.536  85.572  29.552  0.00  0.00    +0.020 C 
ENDBRANCH  23  25
ENDBRANCH  16  23
ENDBRANCH  10  19
ENDBRANCH   9  13
ENDBRANCH   3   9
ENDBRANCH   1   6
BRANCH   2  26
ATOM     26  N   LIG    1      -22.710  78.628  35.052  0.00  0.00    -0.267 N 
ATOM     27  H   LIG    1      -22.749  77.760  35.578  0.00  0.00    +0.157 HD
BRANCH  26  28
ATOM     28  C   LIG    1      -21.687  78.609  34.073  0.00  0.00    +0.061 A 
ATOM     29  C   LIG    1      -20.410  79.188  34.299  0.00  0.00    +0.087 A 
ATOM     30  C   LIG    1      -19.411  79.088  33.304  0.00  0.00    +0.030 A 
ATOM     31  C   LIG    1      -19.643  78.410  32.108  0.00  0.00    +0.014 A 
ATOM     32  C   LIG    1      -20.887  77.842  31.862  0.00  0.00    +0.057 A 
ATOM     33  C   LIG    1      -21.892  77.987  32.826  0.00  0.00    +0.037 A 
BRANCH  29  34
ATOM     34  N   LIG    1      -20.084  79.874  35.514  0.00  0.00    -0.238 N 
ATOM     35  N   LIG    1      -20.547  81.136  35.777  0.00  0.00    -0.162 NA
ATOM     36  C   LIG    1      -20.091  81.428  37.017  0.00  0.00    +0.166 A 
ATOM     37  C   LIG    1      -19.295  80.378  37.527  0.00  0.00    +0.054 A 
ATOM     38  C   LIG    1      -19.303  79.414  36.554  0.00  0.00    +0.115 A 
BRANCH  36  39
ATOM     39  C   LIG    1      -20.412  82.715  37.733  0.00  0.00    +0.436 C 
ATOM     40  F   LIG    1      -20.477  83.770  36.879  0.00  0.00    -0.164 F 
ATOM     41  F   LIG    1      -19.482  83.022  38.674  0.00  0.00    -0.164 F 
ATOM     42  F   LIG    1      -21.611  82.656  38.373  0.00  0.00    -0.164 F 
ENDBRANCH  36  39
ENDBRANCH  29  34
BRANCH  32  43
ATOM     43  C   LIG    1      -21.157  77.070  30.594  0.00  0.00    +0.417 C 
ATOM     44  F   LIG    1      -22.203  77.582  29.889  0.00  0.00    -0.166 F 
ATOM     45  F   LIG    1      -21.467  75.767  30.836  0.00  0.00    -0.166 F 
ATOM     46  F   LIG    1      -20.102  77.048  29.731  0.00  0.00    -0.166 F 
ENDBRANCH  32  43
ENDBRANCH  26  28
ENDBRANCH   2  26
BRANCH   2  47
ATOM     47  O   LIG    1      -24.515  79.782  34.337  0.00  0.00    -0.481 OA
ATOM     48  H   LIG    1      -25.010  78.981  34.149  0.00  0.00    +0.295 HD
ENDBRANCH   2  47
TORSDOF 12
ENDMDL
MODEL 5
REMARK VINA RESULT:      -6.2      8.330     13.143
REMARK  Name = pdb/CHEMBL3940800.pdb
REMARK                            x       y       z     vdW  Elec       q    Type
REMARK                         _______ _______ _______ _____ _____    ______ ____
ROOT
ATOM      1  N   LIG    1      -26.191  83.884  11.263  0.00  0.00    -0.196 NA
ATOM      2  C   LIG    1      -25.121  84.314  11.803  0.00  0.00    +0.285 C 
ENDROOT
BRANCH   1   6
ATOM      3  C   LIG    1      -29.487  86.232  10.394  0.00  0.00    +0.323 A 
ATOM      4  N   LIG    1      -28.654  85.998   9.370  0.00  0.00    -0.201 NA
ATOM      5  C   LIG    1      -27.549  85.261   9.670  0.00  0.00    +0.145 A 
ATOM      6  C   LIG    1      -27.276  84.704  10.906  0.00  0.00    +0.105 A 
ATOM      7  C   LIG    1      -28.184  85.057  11.873  0.00  0.00    +0.145 A 
ATOM      8  N   LIG    1      -29.250  85.846  11.657  0.00  0.00    -0.201 NA
BRANCH   3   9
ATOM      9  O   LIG    1      -30.667  86.908  10.086  0.00  0.00    -0.424 OA
BRANCH   9  13
ATOM     10  C   LIG    1      -34.340  85.197  11.116  0.00  0.00    -0.010 A 
ATOM     11  C   LIG    1      -33.940  86.349  11.771  0.00  0.00    +0.012 A 
ATOM     12  C   LIG    1      -32.708  86.909  11.470  0.00  0.00    +0.047 A 
ATOM     13  C   LIG    1      -31.881  86.372  10.474  0.00  0.00    +0.132 A 
ATOM     14  C   LIG    1      -32.274  85.188   9.842  0.00  0.00    +0.047 A 
ATOM     15  C   LIG    1      -33.503  84.602  10.163  0.00  0.00    +0.012 A 
BRANCH  10  19
ATOM     16  N   LIG    1      -39.146  83.672  10.594  0.00  0.00    -0.261 NA
ATOM     17  C   LIG    1      -37.984  83.885  11.094  0.00  0.00    +0.167 A 
ATOM     18  S   LIG    1      -36.430  83.643  10.237  0.00  0.00    -0.050 S 
ATOM     19  C   LIG    1      -35.639  84.646  11.404  0.00  0.00    +0.039 A 
ATOM     20  C   LIG    1      -36.426  84.928  12.449  0.00  0.00    +0.100 A 
ATOM     21  N   LIG    1      -37.699  84.421  12.337  0.00  0.00    -0.340 N 
ATOM     22  H   LIG    1      -38.426  84.822  12.919  0.00  0.00    +0.167 HD
BRANCH  16  23
ATOM     23  C   LIG    1      -39.262  83.195   9.220  0.00  0.00    +0.144 C 
BRANCH  23  25
ATOM     24  C   LIG    1      -40.787  85.177   8.937  0.00  0.00    +0.005 C 
ATOM     25  C   LIG    1      -40.548  83.715   8.593  0.00  0.00    +0.020 C 
ENDBRANCH  23  25
ENDBRANCH  16  23
ENDBRANCH  10  19
ENDBRANCH   9  13
ENDBRANCH   3   9
ENDBRANCH   1   6
BRANCH   2  26
ATOM     26  N   LIG    1      -23.979  83.603  12.097  0.00  0.00    -0.267 N 
ATOM     27  H   LIG    1      -23.253  83.511  11.392  0.00  0.00    +0.157 HD
BRANCH  26  28
ATOM     28  C   LIG    1      -23.627  82.956  13.306  0.00  0.00    +0.061 A 
ATOM     29  C   LIG    1      -22.761  83.553  14.262  0.00  0.00    +0.087 A 
ATOM     30  C   LIG    1      -22.491  82.881  15.475  0.00  0.00    +0.030 A 
ATOM     31  C   LIG    1      -23.076  81.650  15.769  0.00  0.00    +0.014 A 
ATOM     32  C   LIG    1      -23.921  81.044  14.847  0.00  0.00    +0.057 A 
ATOM     33  C   LIG    1      -24.146  81.686  13.624  0.00  0.00    +0.037 A 
BRANCH  29  34
ATOM     34  N   LIG    1      -22.146  84.828  14.046  0.00  0.00    -0.238 N 
ATOM     35  N   LIG    1      -22.851  85.998  14.148  0.00  0.00    -0.162 NA
ATOM     36  C   LIG    1      -21.943  86.978  13.939  0.00  0.00    +0.166 A 
ATOM     37  C   LIG    1      -20.669  86.439  13.652  0.00  0.00    +0.054 A 
ATOM     38  C   LIG    1      -20.829  85.080  13.720  0.00  0.00    +0.115 A 
BRANCH  36  39
ATOM     39  C   LIG    1      -22.280  88.445  14.012  0.00  0.00    +0.436 C 
ATOM     40  F   LIG    1      -22.797  88.789  15.220  0.00  0.00    -0.164 F 
ATOM     41  F   LIG    1      -23.190  88.808  13.072  0.00  0.00    -0.164 F 
ATOM     42  F   LIG    1      -21.184  89.229  13.819  0.00  0.00    -0.164 F 
ENDBRANCH  36  39
ENDBRANCH  29  34
BRANCH  32  43
ATOM     43  C   LIG    1      -24.598  79.731  15.152  0.00  0.00    +0.417 C 
ATOM     44  F   LIG    1      -24.200  79.208  16.345  0.00  0.00    -0.166 F 
ATOM     45  F   LIG    1      -24.332  78.780  14.216  0.00  0.00    -0.166 F 
ATOM     46  F   LIG    1      -25.956  79.818  15.219  0.00  0.00    -0.166 F 
ENDBRANCH  32  43
ENDBRANCH  26  28
ENDBRANCH   2  26
BRANCH   2  47
ATOM     47  O   LIG    1      -25.002  85.615  12.147  0.00  0.00    -0.481 OA
ATOM     48  H   LIG    1      -24.091  85.919  12.172  0.00  0.00    +0.295 HD
ENDBRANCH   2  47
TORSDOF 12
ENDMDL
MODEL 6
REMARK VINA RESULT:      -6.2     17.760     21.253
REMARK  Name = pdb/CHEMBL3940800.pdb
REMARK                            x       y       z     vdW  Elec       q    Type
REMARK                         _______ _______ _______ _____ _____    ______ ____
ROOT
ATOM      1  N   LIG    1      -35.500  79.435  27.872  0.00  0.00    -0.196 NA
ATOM      2  C   LIG    1      -34.389  78.835  27.709  0.00  0.00    +0.285 C 
ENDROOT
BRANCH   1   6
ATOM      3  C   LIG    1      -35.823  83.405  28.996  0.00  0.00    +0.323 A 
ATOM      4  N   LIG    1      -35.563  82.541  29.986  0.00  0.00    -0.201 NA
ATOM      5  C   LIG    1      -35.501  81.231  29.620  0.00  0.00    +0.145 A 
ATOM      6  C   LIG    1      -35.618  80.762  28.324  0.00  0.00    +0.105 A 
ATOM      7  C   LIG    1      -35.925  81.744  27.416  0.00  0.00    +0.145 A 
ATOM      8  N   LIG    1      -36.079  83.041  27.730  0.00  0.00    -0.201 NA
BRANCH   3   9
ATOM      9  O   LIG    1      -35.801  84.758  29.338  0.00  0.00    -0.424 OA
BRANCH   9  13
ATOM     10  C   LIG    1      -32.218  86.343  30.793  0.00  0.00    -0.010 A 
ATOM     11  C   LIG    1      -33.351  86.437  31.582  0.00  0.00    +0.012 A 
ATOM     12  C   LIG    1      -34.557  85.951  31.100  0.00  0.00    +0.047 A 
ATOM     13  C   LIG    1      -34.646  85.312  29.856  0.00  0.00    +0.132 A 
ATOM     14  C   LIG    1      -33.506  85.253  29.049  0.00  0.00    +0.047 A 
ATOM     15  C   LIG    1      -32.293  85.768  29.517  0.00  0.00    +0.012 A 
BRANCH  10  19
ATOM     16  N   LIG    1      -28.782  88.648  33.723  0.00  0.00    -0.261 NA
ATOM     17  C   LIG    1      -29.310  87.931  32.799  0.00  0.00    +0.167 A 
ATOM     18  S   LIG    1      -30.678  86.797  33.024  0.00  0.00    -0.050 S 
ATOM     19  C   LIG    1      -30.961  86.811  31.318  0.00  0.00    +0.039 A 
ATOM     20  C   LIG    1      -29.977  87.418  30.644  0.00  0.00    +0.100 A 
ATOM     21  N   LIG    1      -28.999  87.952  31.451  0.00  0.00    -0.340 N 
ATOM     22  H   LIG    1      -28.392  88.662  31.059  0.00  0.00    +0.167 HD
BRANCH  16  23
ATOM     23  C   LIG    1      -29.306  88.569  35.083  0.00  0.00    +0.144 C 
BRANCH  23  25
ATOM     24  C   LIG    1      -28.994  86.541  36.540  0.00  0.00    +0.005 C 
ATOM     25  C   LIG    1      -28.343  87.791  35.969  0.00  0.00    +0.020 C 
ENDBRANCH  23  25
ENDBRANCH  16  23
ENDBRANCH  10  19
ENDBRANCH   9  13
ENDBRANCH   3   9
ENDBRANCH   1   6
BRANCH   2  26
ATOM     26  N   LIG    1      -34.177  77.580  27.183  0.00  0.00    -0.267 N 
ATOM     27  H   LIG    1      -33.949  77.483  26.198  0.00  0.00    +0.157 HD
BRANCH  26  28
ATOM     28  C   LIG    1      -34.208  76.328  27.845  0.00  0.00    +0.061 A 
ATOM     29  C   LIG    1      -35.359  75.497  27.841  0.00  0.00    +0.087 A 
ATOM     30  C   LIG    1      -35.311  74.233  28.473  0.00  0.00    +0.030 A 
ATOM     31  C   LIG    1      -34.145  73.771  29.083  0.00  0.00    +0.014 A 
ATOM     32  C   LIG    1      -33.008  74.570  29.104  0.00  0.00    +0.057 A 
ATOM     33  C   LIG    1      -33.074  75.842  28.524  0.00  0.00    +0.037 A 
BRANCH  29  34
ATOM     34  N   LIG    1      -36.585  75.888  27.211  0.00  0.00    -0.238 N 
ATOM     35  N   LIG    1      -36.613  76.396  25.939  0.00  0.00    -0.162 NA
ATOM     36  C   LIG    1      -37.923  76.592  25.666  0.00  0.00    +0.166 A 
ATOM     37  C   LIG    1      -38.731  76.262  26.777  0.00  0.00    +0.054 A 
ATOM     38  C   LIG    1      -37.857  75.826  27.739  0.00  0.00    +0.115 A 
BRANCH  36  39
ATOM     39  C   LIG    1      -38.423  77.098  24.337  0.00  0.00    +0.436 C 
ATOM     40  F   LIG    1      -39.436  76.335  23.850  0.00  0.00    -0.164 F 
ATOM     41  F   LIG    1      -37.445  77.111  23.395  0.00  0.00    -0.164 F 
ATOM     42  F   LIG    1      -38.899  78.370  24.423  0.00  0.00    -0.164 F 
ENDBRANCH  36  39
ENDBRANCH  29  34
BRANCH  32  43
ATOM     43  C   LIG    1      -31.722  74.082  29.722  0.00  0.00    +0.417 C 
ATOM     44  F   LIG    1      -31.202  73.012  29.060  0.00  0.00    -0.166 F 
ATOM     45  F   LIG    1      -31.884  73.684  31.013  0.00  0.00    -0.166 F 
ATOM     46  F   LIG    1      -30.734  75.021  29.743  0.00  0.00    -0.166 F 
ENDBRANCH  32  43
ENDBRANCH  26  28
ENDBRANCH   2  26
BRANCH   2  47
ATOM     47  O   LIG    1      -33.229  79.435  28.053  0.00  0.00    -0.481 OA
ATOM     48  H   LIG    1      -32.671  79.642  27.298  0.00  0.00    +0.295 HD
ENDBRANCH   2  47
TORSDOF 12
ENDMDL
MODEL 7
REMARK VINA RESULT:      -6.2      7.035     10.576
REMARK  Name = pdb/CHEMBL3940800.pdb
REMARK                            x       y       z     vdW  Elec       q    Type
REMARK                         _______ _______ _______ _____ _____    ______ ____
ROOT
ATOM      1  N   LIG    1      -24.660  81.298  11.239  0.00  0.00    -0.196 NA
ATOM      2  C   LIG    1      -24.504  82.264  12.054  0.00  0.00    +0.285 C 
ENDROOT
BRANCH   1   6
ATOM      3  C   LIG    1      -28.271  79.464  10.387  0.00  0.00    +0.323 A 
ATOM      4  N   LIG    1      -27.987  80.552   9.659  0.00  0.00    -0.201 NA
ATOM      5  C   LIG    1      -26.819  81.178   9.972  0.00  0.00    +0.145 A 
ATOM      6  C   LIG    1      -25.909  80.737  10.915  0.00  0.00    +0.105 A 
ATOM      7  C   LIG    1      -26.341  79.640  11.616  0.00  0.00    +0.145 A 
ATOM      8  N   LIG    1      -27.519  79.027  11.409  0.00  0.00    -0.201 NA
BRANCH   3   9
ATOM      9  O   LIG    1      -29.418  78.760  10.021  0.00  0.00    -0.424 OA
BRANCH   9  13
ATOM     10  C   LIG    1      -33.065  80.772   9.666  0.00  0.00    -0.010 A 
ATOM     11  C   LIG    1      -32.489  80.663  10.920  0.00  0.00    +0.012 A 
ATOM     12  C   LIG    1      -31.299  79.966  11.063  0.00  0.00    +0.047 A 
ATOM     13  C   LIG    1      -30.632  79.419   9.959  0.00  0.00    +0.132 A 
ATOM     14  C   LIG    1      -31.237  79.500   8.701  0.00  0.00    +0.047 A 
ATOM     15  C   LIG    1      -32.453  80.176   8.555  0.00  0.00    +0.012 A 
BRANCH  10  19
ATOM     16  N   LIG    1      -37.191  83.512  10.747  0.00  0.00    -0.261 NA
ATOM     17  C   LIG    1      -36.273  82.900  10.092  0.00  0.00    +0.167 A 
ATOM     18  S   LIG    1      -34.521  82.963  10.462  0.00  0.00    -0.050 S 
ATOM     19  C   LIG    1      -34.279  81.534   9.519  0.00  0.00    +0.039 A 
ATOM     20  C   LIG    1      -35.367  81.197   8.816  0.00  0.00    +0.100 A 
ATOM     21  N   LIG    1      -36.450  82.013   9.046  0.00  0.00    -0.340 N 
ATOM     22  H   LIG    1      -37.369  81.668   8.794  0.00  0.00    +0.167 HD
BRANCH  16  23
ATOM     23  C   LIG    1      -36.827  84.337  11.895  0.00  0.00    +0.144 C 
BRANCH  23  25
ATOM     24  C   LIG    1      -38.892  84.854  13.239  0.00  0.00    +0.005 C 
ATOM     25  C   LIG    1      -37.925  85.354  12.176  0.00  0.00    +0.020 C 
ENDBRANCH  23  25
ENDBRANCH  16  23
ENDBRANCH  10  19
ENDBRANCH   9  13
ENDBRANCH   3   9
ENDBRANCH   1   6
BRANCH   2  26
ATOM     26  N   LIG    1      -23.339  82.934  12.355  0.00  0.00    -0.267 N 
ATOM     27  H   LIG    1      -22.522  82.805  11.766  0.00  0.00    +0.157 HD
BRANCH  26  28
ATOM     28  C   LIG    1      -23.091  83.845  13.411  0.00  0.00    +0.061 A 
ATOM     29  C   LIG    1      -22.929  83.420  14.757  0.00  0.00    +0.087 A 
ATOM     30  C   LIG    1      -22.629  84.371  15.759  0.00  0.00    +0.030 A 
ATOM     31  C   LIG    1      -22.465  85.721  15.451  0.00  0.00    +0.014 A 
ATOM     32  C   LIG    1      -22.626  86.161  14.143  0.00  0.00    +0.057 A 
ATOM     33  C   LIG    1      -22.974  85.226  13.161  0.00  0.00    +0.037 A 
BRANCH  29  34
ATOM     34  N   LIG    1      -23.053  82.047  15.147  0.00  0.00    -0.238 N 
ATOM     35  N   LIG    1      -24.250  81.386  15.095  0.00  0.00    -0.162 NA
ATOM     36  C   LIG    1      -23.971  80.118  15.476  0.00  0.00    +0.166 A 
ATOM     37  C   LIG    1      -22.609  79.978  15.822  0.00  0.00    +0.054 A 
ATOM     38  C   LIG    1      -22.055  81.214  15.611  0.00  0.00    +0.115 A 
BRANCH  36  39
ATOM     39  C   LIG    1      -25.004  79.021  15.513  0.00  0.00    +0.436 C 
ATOM     40  F   LIG    1      -25.250  78.596  16.779  0.00  0.00    -0.164 F 
ATOM     41  F   LIG    1      -24.621  77.933  14.795  0.00  0.00    -0.164 F 
ATOM     42  F   LIG    1      -26.197  79.427  14.999  0.00  0.00    -0.164 F 
ENDBRANCH  36  39
ENDBRANCH  29  34
BRANCH  32  43
ATOM     43  C   LIG    1      -22.417  87.608  13.773  0.00  0.00    +0.417 C 
ATOM     44  F   LIG    1      -21.101  87.916  13.610  0.00  0.00    -0.166 F 
ATOM     45  F   LIG    1      -22.888  88.460  14.724  0.00  0.00    -0.166 F 
ATOM     46  F   LIG    1      -23.030  87.970  12.611  0.00  0.00    -0.166 F 
ENDBRANCH  32  43
ENDBRANCH  26  28
ENDBRANCH   2  26
BRANCH   2  47
ATOM     47  O   LIG    1      -25.558  82.764  12.735  0.00  0.00    -0.481 OA
ATOM     48  H   LIG    1      -25.803  82.232  13.497  0.00  0.00    +0.295 HD
ENDBRANCH   2  47
TORSDOF 12
ENDMDL
MODEL 8
REMARK VINA RESULT:      -6.2      2.301      3.056
REMARK  Name = pdb/CHEMBL3940800.pdb
REMARK                            x       y       z     vdW  Elec       q    Type
REMARK                         _______ _______ _______ _____ _____    ______ ____
ROOT
ATOM      1  N   LIG    1      -19.999  81.186  13.843  0.00  0.00    -0.196 NA
ATOM      2  C   LIG    1      -19.757  82.435  13.804  0.00  0.00    +0.285 C 
ENDROOT
BRANCH   1   6
ATOM      3  C   LIG    1      -17.916  78.424  16.115  0.00  0.00    +0.323 A 
ATOM      4  N   LIG    1      -18.926  79.045  16.738  0.00  0.00    -0.201 NA
ATOM      5  C   LIG    1      -19.581  79.984  16.002  0.00  0.00    +0.145 A 
ATOM      6  C   LIG    1      -19.321  80.278  14.676  0.00  0.00    +0.105 A 
ATOM      7  C   LIG    1      -18.237  79.603  14.173  0.00  0.00    +0.145 A 
ATOM      8  N   LIG    1      -17.501  78.726  14.875  0.00  0.00    -0.201 NA
BRANCH   3   9
ATOM      9  O   LIG    1      -17.292  77.398  16.824  0.00  0.00    -0.424 OA
BRANCH   9  13
ATOM     10  C   LIG    1      -19.481  73.891  17.444  0.00  0.00    -0.010 A 
ATOM     11  C   LIG    1      -18.554  74.269  18.400  0.00  0.00    +0.012 A 
ATOM     12  C   LIG    1      -17.791  75.408  18.193  0.00  0.00    +0.047 A 
ATOM     13  C   LIG    1      -17.978  76.222  17.067  0.00  0.00    +0.132 A 
ATOM     14  C   LIG    1      -18.889  75.815  16.088  0.00  0.00    +0.047 A 
ATOM     15  C   LIG    1      -19.640  74.650  16.276  0.00  0.00    +0.012 A 
BRANCH  10  19
ATOM     16  N   LIG    1      -21.522  69.268  17.035  0.00  0.00    -0.261 NA
ATOM     17  C   LIG    1      -21.249  70.445  17.468  0.00  0.00    +0.167 A 
ATOM     18  S   LIG    1      -19.606  71.149  17.586  0.00  0.00    -0.050 S 
ATOM     19  C   LIG    1      -20.299  72.730  17.686  0.00  0.00    +0.039 A 
ATOM     20  C   LIG    1      -21.627  72.695  17.851  0.00  0.00    +0.100 A 
ATOM     21  N   LIG    1      -22.153  71.424  17.838  0.00  0.00    -0.340 N 
ATOM     22  H   LIG    1      -23.146  71.321  17.663  0.00  0.00    +0.167 HD
BRANCH  16  23
ATOM     23  C   LIG    1      -20.439  68.396  16.591  0.00  0.00    +0.144 C 
BRANCH  23  25
ATOM     24  C   LIG    1      -21.635  66.511  17.751  0.00  0.00    +0.005 C 
ATOM     25  C   LIG    1      -20.302  67.210  17.535  0.00  0.00    +0.020 C 
ENDBRANCH  23  25
ENDBRANCH  16  23
ENDBRANCH  10  19
ENDBRANCH   9  13
ENDBRANCH   3   9
ENDBRANCH   1   6
BRANCH   2  26
ATOM     26  N   LIG    1      -20.430  83.404  13.096  0.00  0.00    -0.267 N 
ATOM     27  H   LIG    1      -20.537  83.304  12.090  0.00  0.00    +0.157 HD
BRANCH  26  28
ATOM     28  C   LIG    1      -21.053  84.581  13.580  0.00  0.00    +0.061 A 
ATOM     29  C   LIG    1      -22.021  84.554  14.619  0.00  0.00    +0.087 A 
ATOM     30  C   LIG    1      -22.566  85.767  15.097  0.00  0.00    +0.030 A 
ATOM     31  C   LIG    1      -22.158  86.998  14.585  0.00  0.00    +0.014 A 
ATOM     32  C   LIG    1      -21.218  87.049  13.563  0.00  0.00    +0.057 A 
ATOM     33  C   LIG    1      -20.717  85.844  13.055  0.00  0.00    +0.037 A 
BRANCH  29  34
ATOM     34  N   LIG    1      -22.470  83.332  15.216  0.00  0.00    -0.238 N 
ATOM     35  N   LIG    1      -23.257  82.442  14.537  0.00  0.00    -0.162 NA
ATOM     36  C   LIG    1      -23.428  81.401  15.385  0.00  0.00    +0.166 A 
ATOM     37  C   LIG    1      -22.796  81.645  16.624  0.00  0.00    +0.054 A 
ATOM     38  C   LIG    1      -22.205  82.875  16.491  0.00  0.00    +0.115 A 
BRANCH  36  39
ATOM     39  C   LIG    1      -24.197  80.157  15.021  0.00  0.00    +0.436 C 
ATOM     40  F   LIG    1      -24.441  79.375  16.104  0.00  0.00    -0.164 F 
ATOM     41  F   LIG    1      -23.532  79.391  14.118  0.00  0.00    -0.164 F 
ATOM     42  F   LIG    1      -25.406  80.450  14.469  0.00  0.00    -0.164 F 
ENDBRANCH  36  39
ENDBRANCH  29  34
BRANCH  32  43
ATOM     43  C   LIG    1      -20.728  88.365  13.016  0.00  0.00    +0.417 C 
ATOM     44  F   LIG    1      -21.277  88.660  11.805  0.00  0.00    -0.166 F 
ATOM     45  F   LIG    1      -19.380  88.382  12.831  0.00  0.00    -0.166 F 
ATOM     46  F   LIG    1      -21.007  89.431  13.819  0.00  0.00    -0.166 F 
ENDBRANCH  32  43
ENDBRANCH  26  28
ENDBRANCH   2  26
BRANCH   2  47
ATOM     47  O   LIG    1      -18.744  82.959  14.528  0.00  0.00    -0.481 OA
ATOM     48  H   LIG    1      -18.875  82.880  15.477  0.00  0.00    +0.295 HD
ENDBRANCH   2  47
TORSDOF 12
ENDMDL
MODEL 9
REMARK VINA RESULT:      -6.1     18.879     20.653
REMARK  Name = pdb/CHEMBL3940800.pdb
REMARK                            x       y       z     vdW  Elec       q    Type
REMARK                         _______ _______ _______ _____ _____    ______ ____
ROOT
ATOM      1  N   LIG    1      -29.297  84.891  36.139  0.00  0.00    -0.196 NA
ATOM      2  C   LIG    1      -29.829  84.937  34.983  0.00  0.00    +0.285 C 
ENDROOT
BRANCH   1   6
ATOM      3  C   LIG    1      -26.353  82.171  37.170  0.00  0.00    +0.323 A 
ATOM      4  N   LIG    1      -27.614  81.769  37.380  0.00  0.00    -0.201 NA
ATOM      5  C   LIG    1      -28.578  82.683  37.081  0.00  0.00    +0.145 A 
ATOM      6  C   LIG    1      -28.347  83.930  36.530  0.00  0.00    +0.105 A 
ATOM      7  C   LIG    1      -27.014  84.232  36.407  0.00  0.00    +0.145 A 
ATOM      8  N   LIG    1      -26.017  83.404  36.761  0.00  0.00    -0.201 NA
BRANCH   3   9
ATOM      9  O   LIG    1      -25.358  81.218  37.387  0.00  0.00    -0.424 OA
BRANCH   9  13
ATOM     10  C   LIG    1      -23.814  79.042  34.168  0.00  0.00    -0.010 A 
ATOM     11  C   LIG    1      -23.111  80.147  34.618  0.00  0.00    +0.012 A 
ATOM     12  C   LIG    1      -23.627  80.903  35.659  0.00  0.00    +0.047 A 
ATOM     13  C   LIG    1      -24.815  80.542  36.309  0.00  0.00    +0.132 A 
ATOM     14  C   LIG    1      -25.539  79.447  35.827  0.00  0.00    +0.047 A 
ATOM     15  C   LIG    1      -25.038  78.698  34.758  0.00  0.00    +0.012 A 
BRANCH  10  19
ATOM     16  N   LIG    1      -20.662  77.303  30.599  0.00  0.00    -0.261 NA
ATOM     17  C   LIG    1      -21.662  77.402  31.397  0.00  0.00    +0.167 A 
ATOM     18  S   LIG    1      -21.563  77.857  33.127  0.00  0.00    -0.050 S 
ATOM     19  C   LIG    1      -23.250  78.237  33.115  0.00  0.00    +0.039 A 
ATOM     20  C   LIG    1      -23.856  77.833  31.992  0.00  0.00    +0.100 A 
ATOM     21  N   LIG    1      -23.001  77.272  31.073  0.00  0.00    -0.340 N 
ATOM     22  H   LIG    1      -23.308  77.211  30.109  0.00  0.00    +0.167 HD
BRANCH  16  23
ATOM     23  C   LIG    1      -19.317  77.575  31.094  0.00  0.00    +0.144 C 
BRANCH  23  25
ATOM     24  C   LIG    1      -18.971  75.082  31.085  0.00  0.00    +0.005 C 
ATOM     25  C   LIG    1      -18.381  76.434  30.717  0.00  0.00    +0.020 C 
ENDBRANCH  23  25
ENDBRANCH  16  23
ENDBRANCH  10  19
ENDBRANCH   9  13
ENDBRANCH   3   9
ENDBRANCH   1   6
BRANCH   2  26
ATOM     26  N   LIG    1      -30.689  85.891  34.487  0.00  0.00    -0.267 N 
ATOM     27  H   LIG    1      -31.463  86.214  35.061  0.00  0.00    +0.157 HD
BRANCH  26  28
ATOM     28  C   LIG    1      -30.650  86.550  33.234  0.00  0.00    +0.061 A 
ATOM     29  C   LIG    1      -29.651  87.507  32.910  0.00  0.00    +0.087 A 
ATOM     30  C   LIG    1      -29.633  88.089  31.622  0.00  0.00    +0.030 A 
ATOM     31  C   LIG    1      -30.564  87.727  30.648  0.00  0.00    +0.014 A 
ATOM     32  C   LIG    1      -31.554  86.798  30.945  0.00  0.00    +0.057 A 
ATOM     33  C   LIG    1      -31.602  86.262  32.237  0.00  0.00    +0.037 A 
BRANCH  29  34
ATOM     34  N   LIG    1      -28.643  87.908  33.845  0.00  0.00    -0.238 N 
ATOM     35  N   LIG    1      -28.732  89.083  34.543  0.00  0.00    -0.162 NA
ATOM     36  C   LIG    1      -27.650  89.093  35.356  0.00  0.00    +0.166 A 
ATOM     37  C   LIG    1      -26.842  87.954  35.143  0.00  0.00    +0.054 A 
ATOM     38  C   LIG    1      -27.491  87.227  34.179  0.00  0.00    +0.115 A 
BRANCH  36  39
ATOM     39  C   LIG    1      -27.374  90.193  36.349  0.00  0.00    +0.436 C 
ATOM     40  F   LIG    1      -26.519  91.124  35.853  0.00  0.00    -0.164 F 
ATOM     41  F   LIG    1      -26.825  89.719  37.497  0.00  0.00    -0.164 F 
ATOM     42  F   LIG    1      -28.509  90.855  36.703  0.00  0.00    -0.164 F 
ENDBRANCH  36  39
ENDBRANCH  29  34
BRANCH  32  43
ATOM     43  C   LIG    1      -32.550  86.359  29.902  0.00  0.00    +0.417 C 
ATOM     44  F   LIG    1      -32.927  87.379  29.083  0.00  0.00    -0.166 F 
ATOM     45  F   LIG    1      -33.697  85.873  30.451  0.00  0.00    -0.166 F 
ATOM     46  F   LIG    1      -32.086  85.376  29.080  0.00  0.00    -0.166 F 
ENDBRANCH  32  43
ENDBRANCH  26  28
ENDBRANCH   2  26
BRANCH   2  47
ATOM     47  O   LIG    1      -29.560  83.982  34.067  0.00  0.00    -0.481 OA
ATOM     48  H   LIG    1      -30.171  83.241  34.100  0.00  0.00    +0.295 HD
ENDBRANCH   2  47
TORSDOF 12
ENDMDL
