MODEL 1
REMARK VINA RESULT:      -6.1      0.000      0.000
REMARK  Name = pdb/CHEMBL3933210.pdb
REMARK                            x       y       z     vdW  Elec       q    Type
REMARK                         _______ _______ _______ _____ _____    ______ ____
ROOT
ATOM      1  C   LIG    1      -29.175  77.898  11.835  0.00  0.00    +0.149 A 
ATOM      2  N   LIG    1      -28.754  76.668  12.165  0.00  0.00    -0.160 NA
ATOM      3  N   LIG    1      -27.499  76.824  12.666  0.00  0.00    -0.218 N 
ATOM      4  C   LIG    1      -27.104  78.165  12.666  0.00  0.00    +0.129 A 
ATOM      5  C   LIG    1      -28.128  78.833  12.019  0.00  0.00    +0.078 A 
ENDROOT
BRANCH   3   6
ATOM      6  C   LIG    1      -26.771  75.665  13.082  0.00  0.00    +0.067 A 
ATOM      7  C   LIG    1      -25.523  75.326  12.548  0.00  0.00    +0.028 A 
ATOM      8  C   LIG    1      -24.888  74.142  12.946  0.00  0.00    +0.002 A 
ATOM      9  C   LIG    1      -25.482  73.302  13.887  0.00  0.00    +0.000 A 
ATOM     10  C   LIG    1      -26.702  73.655  14.455  0.00  0.00    +0.002 A 
ATOM     11  C   LIG    1      -27.340  74.835  14.065  0.00  0.00    +0.028 A 
ENDBRANCH   3   6
BRANCH   4  12
ATOM     12  N   LIG    1      -25.900  78.741  13.114  0.00  0.00    -0.266 N 
ATOM     13  H   LIG    1      -25.248  79.078  12.425  0.00  0.00    +0.157 HD
ATOM     14  C   LIG    1      -25.518  78.833  14.500  0.00  0.00    +0.251 C 
ATOM     15  O   LIG    1      -26.276  78.409  15.387  0.00  0.00    -0.270 OA
BRANCH  14  16
ATOM     16  C   LIG    1      -24.192  79.352  14.890  0.00  0.00    +0.056 A 
ATOM     17  C   LIG    1      -23.093  78.530  15.140  0.00  0.00    +0.054 A 
ATOM     18 CL   LIG    1      -23.112  76.822  14.911  0.00  0.00    -0.083 Cl
ATOM     19  C   LIG    1      -21.899  79.105  15.578  0.00  0.00    +0.041 A 
ATOM     20  C   LIG    1      -21.768  80.499  15.718  0.00  0.00    +0.052 A 
ATOM     21 CL   LIG    1      -20.294  81.040  16.451  0.00  0.00    -0.083 Cl
ATOM     22  C   LIG    1      -22.811  81.377  15.351  0.00  0.00    +0.022 A 
ATOM     23  C   LIG    1      -24.033  80.757  14.995  0.00  0.00    +0.026 A 
BRANCH  22  24
ATOM     24  C   LIG    1      -22.638  82.857  15.235  0.00  0.00    +0.107 A 
ATOM     25  C   LIG    1      -22.647  83.741  16.318  0.00  0.00    +0.149 A 
ATOM     26  F   LIG    1      -22.690  83.295  17.582  0.00  0.00    -0.203 F 
ATOM     27  C   LIG    1      -22.613  85.120  16.103  0.00  0.00    +0.042 A 
ATOM     28  C   LIG    1      -22.519  85.604  14.804  0.00  0.00    +0.023 A 
ATOM     29  C   LIG    1      -22.481  84.681  13.777  0.00  0.00    +0.111 A 
ATOM     30  N   LIG    1      -22.576  83.341  13.964  0.00  0.00    -0.252 NA
ENDBRANCH  22  24
ENDBRANCH  14  16
ENDBRANCH   4  12
BRANCH   1  32
ATOM     31  N   LIG    1      -31.030  77.662  10.303  0.00  0.00    -0.240 NA
ATOM     32  C   LIG    1      -30.538  78.207  11.365  0.00  0.00    +0.236 C 
BRANCH  31  33
ATOM     33  C   LIG    1      -32.317  77.957   9.716  0.00  0.00    +0.089 C 
ATOM     34  C   LIG    1      -32.900  76.783   8.945  0.00  0.00    +0.035 C 
ATOM     35  C   LIG    1      -33.464  77.135  10.280  0.00  0.00    +0.035 C 
BRANCH  33  36
ATOM     36  C   LIG    1      -32.643  79.334   9.170  0.00  0.00    +0.186 C 
BRANCH  36  37
ATOM     37  O   LIG    1      -33.265  80.102  10.204  0.00  0.00    -0.393 OA
ATOM     38  H   LIG    1      -34.229  80.001  10.071  0.00  0.00    +0.209 HD
ENDBRANCH  36  37
ENDBRANCH  33  36
ENDBRANCH  31  33
BRANCH  32  39
ATOM     39  O   LIG    1      -31.212  79.042  12.189  0.00  0.00    -0.491 OA
ATOM     40  H   LIG    1      -31.882  78.551  12.704  0.00  0.00    +0.294 HD
ENDBRANCH  32  39
ENDBRANCH   1  32
TORSDOF 9
ENDMDL
MODEL 2
REMARK VINA RESULT:      -6.1     16.810     19.320
REMARK  Name = pdb/CHEMBL3933210.pdb
REMARK                            x       y       z     vdW  Elec       q    Type
REMARK                         _______ _______ _______ _____ _____    ______ ____
ROOT
ATOM      1  C   LIG    1      -37.230  79.946  27.477  0.00  0.00    +0.149 A 
ATOM      2  N   LIG    1      -36.178  79.172  27.781  0.00  0.00    -0.160 NA
ATOM      3  N   LIG    1      -36.523  77.909  27.412  0.00  0.00    -0.218 N 
ATOM      4  C   LIG    1      -37.808  77.863  26.860  0.00  0.00    +0.129 A 
ATOM      5  C   LIG    1      -38.304  79.145  27.019  0.00  0.00    +0.078 A 
ENDROOT
BRANCH   3   6
ATOM      6  C   LIG    1      -35.598  76.843  27.643  0.00  0.00    +0.067 A 
ATOM      7  C   LIG    1      -34.231  76.957  27.368  0.00  0.00    +0.028 A 
ATOM      8  C   LIG    1      -33.384  75.857  27.553  0.00  0.00    +0.002 A 
ATOM      9  C   LIG    1      -33.890  74.647  28.027  0.00  0.00    +0.000 A 
ATOM     10  C   LIG    1      -35.240  74.539  28.345  0.00  0.00    +0.002 A 
ATOM     11  C   LIG    1      -36.090  75.633  28.166  0.00  0.00    +0.028 A 
ENDBRANCH   3   6
BRANCH   4  12
ATOM     12  N   LIG    1      -38.519  76.764  26.346  0.00  0.00    -0.266 N 
ATOM     13  H   LIG    1      -39.277  76.389  26.892  0.00  0.00    +0.157 HD
ATOM     14  C   LIG    1      -38.198  76.105  25.105  0.00  0.00    +0.251 C 
ATOM     15  O   LIG    1      -37.256  76.513  24.407  0.00  0.00    -0.270 OA
BRANCH  14  16
ATOM     16  C   LIG    1      -38.920  74.890  24.680  0.00  0.00    +0.056 A 
ATOM     17  C   LIG    1      -40.132  74.923  23.991  0.00  0.00    +0.054 A 
ATOM     18 CL   LIG    1      -40.878  76.379  23.448  0.00  0.00    -0.083 Cl
ATOM     19  C   LIG    1      -40.781  73.722  23.696  0.00  0.00    +0.041 A 
ATOM     20  C   LIG    1      -40.208  72.482  24.032  0.00  0.00    +0.052 A 
ATOM     21 CL   LIG    1      -41.220  71.098  23.774  0.00  0.00    -0.083 Cl
ATOM     22  C   LIG    1      -38.923  72.396  24.611  0.00  0.00    +0.022 A 
ATOM     23  C   LIG    1      -38.334  73.632  24.974  0.00  0.00    +0.026 A 
BRANCH  22  24
ATOM     24  C   LIG    1      -38.165  71.115  24.749  0.00  0.00    +0.107 A 
ATOM     25  C   LIG    1      -37.638  70.635  25.951  0.00  0.00    +0.149 A 
ATOM     26  F   LIG    1      -37.888  71.249  27.118  0.00  0.00    -0.203 F 
ATOM     27  C   LIG    1      -36.830  69.496  25.962  0.00  0.00    +0.042 A 
ATOM     28  C   LIG    1      -36.597  68.816  24.773  0.00  0.00    +0.023 A 
ATOM     29  C   LIG    1      -37.172  69.321  23.623  0.00  0.00    +0.111 A 
ATOM     30  N   LIG    1      -37.907  70.460  23.584  0.00  0.00    -0.252 NA
ENDBRANCH  22  24
ENDBRANCH  14  16
ENDBRANCH   4  12
BRANCH   1  32
ATOM     31  N   LIG    1      -36.409  82.156  26.944  0.00  0.00    -0.240 NA
ATOM     32  C   LIG    1      -37.239  81.415  27.599  0.00  0.00    +0.236 C 
BRANCH  31  33
ATOM     33  C   LIG    1      -36.282  83.591  27.056  0.00  0.00    +0.089 C 
ATOM     34  C   LIG    1      -35.928  84.259  25.735  0.00  0.00    +0.035 C 
ATOM     35  C   LIG    1      -37.318  84.374  26.264  0.00  0.00    +0.035 C 
BRANCH  33  36
ATOM     36  C   LIG    1      -35.712  84.243  28.301  0.00  0.00    +0.186 C 
BRANCH  36  37
ATOM     37  O   LIG    1      -34.627  83.445  28.781  0.00  0.00    -0.393 OA
ATOM     38  H   LIG    1      -33.819  83.811  28.368  0.00  0.00    +0.209 HD
ENDBRANCH  36  37
ENDBRANCH  33  36
ENDBRANCH  31  33
BRANCH  32  39
ATOM     39  O   LIG    1      -38.231  81.880  28.393  0.00  0.00    -0.491 OA
ATOM     40  H   LIG    1      -38.840  82.451  27.884  0.00  0.00    +0.294 HD
ENDBRANCH  32  39
ENDBRANCH   1  32
TORSDOF 9
ENDMDL
MODEL 3
REMARK VINA RESULT:      -6.0     16.179     17.794
REMARK  Name = pdb/CHEMBL3933210.pdb
REMARK                            x       y       z     vdW  Elec       q    Type
REMARK                         _______ _______ _______ _____ _____    ______ ____
ROOT
ATOM      1  C   LIG    1      -41.013  72.902  23.591  0.00  0.00    +0.149 A 
ATOM      2  N   LIG    1      -41.263  74.220  23.610  0.00  0.00    -0.160 NA
ATOM      3  N   LIG    1      -40.191  74.795  24.221  0.00  0.00    -0.218 N 
ATOM      4  C   LIG    1      -39.238  73.844  24.598  0.00  0.00    +0.129 A 
ATOM      5  C   LIG    1      -39.823  72.625  24.306  0.00  0.00    +0.078 A 
ENDROOT
BRANCH   3   6
ATOM      6  C   LIG    1      -40.184  76.212  24.416  0.00  0.00    +0.067 A 
ATOM      7  C   LIG    1      -39.840  77.112  23.401  0.00  0.00    +0.028 A 
ATOM      8  C   LIG    1      -39.786  78.486  23.670  0.00  0.00    +0.002 A 
ATOM      9  C   LIG    1      -40.091  78.970  24.941  0.00  0.00    +0.000 A 
ATOM     10  C   LIG    1      -40.478  78.086  25.943  0.00  0.00    +0.002 A 
ATOM     11  C   LIG    1      -40.536  76.715  25.682  0.00  0.00    +0.028 A 
ENDBRANCH   3   6
BRANCH   4  12
ATOM     12  N   LIG    1      -37.995  74.030  25.232  0.00  0.00    -0.266 N 
ATOM     13  H   LIG    1      -37.171  74.083  24.658  0.00  0.00    +0.157 HD
ATOM     14  C   LIG    1      -37.822  74.098  26.661  0.00  0.00    +0.251 C 
ATOM     15  O   LIG    1      -38.805  74.012  27.414  0.00  0.00    -0.270 OA
BRANCH  14  16
ATOM     16  C   LIG    1      -36.477  74.186  27.260  0.00  0.00    +0.056 A 
ATOM     17  C   LIG    1      -35.799  73.084  27.781  0.00  0.00    +0.054 A 
ATOM     18 CL   LIG    1      -36.393  71.469  27.685  0.00  0.00    -0.083 Cl
ATOM     19  C   LIG    1      -34.560  73.276  28.398  0.00  0.00    +0.041 A 
ATOM     20  C   LIG    1      -33.962  74.548  28.453  0.00  0.00    +0.052 A 
ATOM     21 CL   LIG    1      -32.524  74.654  29.415  0.00  0.00    -0.083 Cl
ATOM     22  C   LIG    1      -34.550  75.666  27.824  0.00  0.00    +0.022 A 
ATOM     23  C   LIG    1      -35.842  75.454  27.286  0.00  0.00    +0.026 A 
BRANCH  22  24
ATOM     24  C   LIG    1      -33.842  76.969  27.630  0.00  0.00    +0.107 A 
ATOM     25  C   LIG    1      -34.223  78.172  28.233  0.00  0.00    +0.149 A 
ATOM     26  F   LIG    1      -35.203  78.215  29.147  0.00  0.00    -0.203 F 
ATOM     27  C   LIG    1      -33.584  79.365  27.889  0.00  0.00    +0.042 A 
ATOM     28  C   LIG    1      -32.533  79.338  26.982  0.00  0.00    +0.023 A 
ATOM     29  C   LIG    1      -32.181  78.114  26.445  0.00  0.00    +0.111 A 
ATOM     30  N   LIG    1      -32.831  76.955  26.719  0.00  0.00    -0.252 NA
ENDBRANCH  22  24
ENDBRANCH  14  16
ENDBRANCH   4  12
BRANCH   1  32
ATOM     31  N   LIG    1      -41.361  70.987  22.159  0.00  0.00    -0.240 NA
ATOM     32  C   LIG    1      -41.863  71.910  22.909  0.00  0.00    +0.236 C 
BRANCH  31  33
ATOM     33  C   LIG    1      -42.109  70.023  21.385  0.00  0.00    +0.089 C 
ATOM     34  C   LIG    1      -41.377  68.698  21.222  0.00  0.00    +0.035 C 
ATOM     35  C   LIG    1      -42.530  68.787  22.164  0.00  0.00    +0.035 C 
BRANCH  33  36
ATOM     36  C   LIG    1      -42.980  70.445  20.217  0.00  0.00    +0.186 C 
BRANCH  36  37
ATOM     37  O   LIG    1      -42.376  71.574  19.579  0.00  0.00    -0.393 OA
ATOM     38  H   LIG    1      -42.714  72.362  20.051  0.00  0.00    +0.209 HD
ENDBRANCH  36  37
ENDBRANCH  33  36
ENDBRANCH  31  33
BRANCH  32  39
ATOM     39  O   LIG    1      -43.176  72.032  23.211  0.00  0.00    -0.491 OA
ATOM     40  H   LIG    1      -43.445  72.972  23.208  0.00  0.00    +0.294 HD
ENDBRANCH  32  39
ENDBRANCH   1  32
TORSDOF 9
ENDMDL
MODEL 4
REMARK VINA RESULT:      -6.0     16.188     17.920
REMARK  Name = pdb/CHEMBL3933210.pdb
REMARK                            x       y       z     vdW  Elec       q    Type
REMARK                         _______ _______ _______ _____ _____    ______ ____
ROOT
ATOM      1  C   LIG    1      -35.823  68.886  25.303  0.00  0.00    +0.149 A 
ATOM      2  N   LIG    1      -36.896  69.688  25.238  0.00  0.00    -0.160 NA
ATOM      3  N   LIG    1      -36.492  70.893  25.723  0.00  0.00    -0.218 N 
ATOM      4  C   LIG    1      -35.146  70.874  26.103  0.00  0.00    +0.129 A 
ATOM      5  C   LIG    1      -34.757  69.556  25.950  0.00  0.00    +0.078 A 
ENDROOT
BRANCH   3   6
ATOM      6  C   LIG    1      -37.442  71.959  25.807  0.00  0.00    +0.067 A 
ATOM      7  C   LIG    1      -37.814  72.546  27.022  0.00  0.00    +0.028 A 
ATOM      8  C   LIG    1      -38.799  73.541  27.047  0.00  0.00    +0.002 A 
ATOM      9  C   LIG    1      -39.404  73.969  25.866  0.00  0.00    +0.000 A 
ATOM     10  C   LIG    1      -39.008  73.422  24.649  0.00  0.00    +0.002 A 
ATOM     11  C   LIG    1      -38.025  72.430  24.616  0.00  0.00    +0.028 A 
ENDBRANCH   3   6
BRANCH   4  12
ATOM     12  N   LIG    1      -34.353  71.910  26.629  0.00  0.00    -0.266 N 
ATOM     13  H   LIG    1      -33.777  72.438  25.996  0.00  0.00    +0.157 HD
ATOM     14  C   LIG    1      -34.276  72.233  28.032  0.00  0.00    +0.251 C 
ATOM     15  O   LIG    1      -34.948  71.595  28.858  0.00  0.00    -0.270 OA
BRANCH  14  16
ATOM     16  C   LIG    1      -33.340  73.263  28.525  0.00  0.00    +0.056 A 
ATOM     17  C   LIG    1      -32.168  72.961  29.218  0.00  0.00    +0.054 A 
ATOM     18 CL   LIG    1      -31.605  71.354  29.480  0.00  0.00    -0.083 Cl
ATOM     19  C   LIG    1      -31.382  74.005  29.712  0.00  0.00    +0.041 A 
ATOM     20  C   LIG    1      -31.723  75.349  29.478  0.00  0.00    +0.052 A 
ATOM     21 CL   LIG    1      -30.759  76.521  30.316  0.00  0.00    -0.083 Cl
ATOM     22  C   LIG    1      -32.827  75.699  28.670  0.00  0.00    +0.022 A 
ATOM     23  C   LIG    1      -33.648  74.622  28.259  0.00  0.00    +0.026 A 
BRANCH  22  24
ATOM     24  C   LIG    1      -33.081  77.088  28.180  0.00  0.00    +0.107 A 
ATOM     25  C   LIG    1      -32.396  77.690  27.120  0.00  0.00    +0.149 A 
ATOM     26  F   LIG    1      -31.523  76.999  26.372  0.00  0.00    -0.203 F 
ATOM     27  C   LIG    1      -32.607  79.037  26.818  0.00  0.00    +0.042 A 
ATOM     28  C   LIG    1      -33.543  79.759  27.547  0.00  0.00    +0.023 A 
ATOM     29  C   LIG    1      -34.212  79.101  28.561  0.00  0.00    +0.111 A 
ATOM     30  N   LIG    1      -33.975  77.811  28.909  0.00  0.00    -0.252 NA
ENDBRANCH  22  24
ENDBRANCH  14  16
ENDBRANCH   4  12
BRANCH   1  32
ATOM     31  N   LIG    1      -36.851  66.802  24.636  0.00  0.00    -0.240 NA
ATOM     32  C   LIG    1      -35.782  67.515  24.762  0.00  0.00    +0.236 C 
BRANCH  31  33
ATOM     33  C   LIG    1      -36.907  65.427  24.196  0.00  0.00    +0.089 C 
ATOM     34  C   LIG    1      -38.243  65.060  23.568  0.00  0.00    +0.035 C 
ATOM     35  C   LIG    1      -37.052  65.258  22.692  0.00  0.00    +0.035 C 
BRANCH  33  36
ATOM     36  C   LIG    1      -36.209  64.319  24.962  0.00  0.00    +0.186 C 
BRANCH  36  37
ATOM     37  O   LIG    1      -34.875  64.187  24.464  0.00  0.00    -0.393 OA
ATOM     38  H   LIG    1      -34.942  63.642  23.655  0.00  0.00    +0.209 HD
ENDBRANCH  36  37
ENDBRANCH  33  36
ENDBRANCH  31  33
BRANCH  32  39
ATOM     39  O   LIG    1      -34.547  67.135  24.360  0.00  0.00    -0.491 OA
ATOM     40  H   LIG    1      -34.524  66.176  24.178  0.00  0.00    +0.294 HD
ENDBRANCH  32  39
ENDBRANCH   1  32
TORSDOF 9
ENDMDL
MODEL 5
REMARK VINA RESULT:      -6.0     18.140     21.201
REMARK  Name = pdb/CHEMBL3933210.pdb
REMARK                            x       y       z     vdW  Elec       q    Type
REMARK                         _______ _______ _______ _____ _____    ______ ____
ROOT
ATOM      1  C   LIG    1      -31.299  87.212  30.823  0.00  0.00    +0.149 A 
ATOM      2  N   LIG    1      -32.368  87.961  30.513  0.00  0.00    -0.160 NA
ATOM      3  N   LIG    1      -33.241  87.125  29.888  0.00  0.00    -0.218 N 
ATOM      4  C   LIG    1      -32.737  85.824  29.796  0.00  0.00    +0.129 A 
ATOM      5  C   LIG    1      -31.445  85.912  30.282  0.00  0.00    +0.078 A 
ENDROOT
BRANCH   3   6
ATOM      6  C   LIG    1      -34.480  87.653  29.408  0.00  0.00    +0.067 A 
ATOM      7  C   LIG    1      -35.710  87.358  30.007  0.00  0.00    +0.028 A 
ATOM      8  C   LIG    1      -36.898  87.851  29.451  0.00  0.00    +0.002 A 
ATOM      9  C   LIG    1      -36.866  88.652  28.310  0.00  0.00    +0.000 A 
ATOM     10  C   LIG    1      -35.644  88.986  27.734  0.00  0.00    +0.002 A 
ATOM     11  C   LIG    1      -34.456  88.500  28.285  0.00  0.00    +0.028 A 
ENDBRANCH   3   6
BRANCH   4  12
ATOM     12  N   LIG    1      -33.331  84.674  29.243  0.00  0.00    -0.266 N 
ATOM     13  H   LIG    1      -33.092  84.421  28.300  0.00  0.00    +0.157 HD
ATOM     14  C   LIG    1      -34.304  83.861  29.929  0.00  0.00    +0.251 C 
ATOM     15  O   LIG    1      -34.652  84.145  31.086  0.00  0.00    -0.270 OA
BRANCH  14  16
ATOM     16  C   LIG    1      -34.966  82.731  29.248  0.00  0.00    +0.056 A 
ATOM     17  C   LIG    1      -36.155  82.861  28.531  0.00  0.00    +0.054 A 
ATOM     18 CL   LIG    1      -36.936  84.372  28.251  0.00  0.00    -0.083 Cl
ATOM     19  C   LIG    1      -36.748  81.722  27.984  0.00  0.00    +0.041 A 
ATOM     20  C   LIG    1      -36.141  80.458  28.095  0.00  0.00    +0.052 A 
ATOM     21 CL   LIG    1      -37.091  79.121  27.534  0.00  0.00    -0.083 Cl
ATOM     22  C   LIG    1      -34.873  80.300  28.696  0.00  0.00    +0.022 A 
ATOM     23  C   LIG    1      -34.344  81.458  29.315  0.00  0.00    +0.026 A 
BRANCH  22  24
ATOM     24  C   LIG    1      -34.073  79.040  28.614  0.00  0.00    +0.107 A 
ATOM     25  C   LIG    1      -33.161  78.749  27.595  0.00  0.00    +0.149 A 
ATOM     26  F   LIG    1      -32.842  79.660  26.663  0.00  0.00    -0.203 F 
ATOM     27  C   LIG    1      -32.558  77.492  27.527  0.00  0.00    +0.042 A 
ATOM     28  C   LIG    1      -32.835  76.550  28.510  0.00  0.00    +0.023 A 
ATOM     29  C   LIG    1      -33.720  76.907  29.508  0.00  0.00    +0.111 A 
ATOM     30  N   LIG    1      -34.362  78.101  29.556  0.00  0.00    -0.252 NA
ENDBRANCH  22  24
ENDBRANCH  14  16
ENDBRANCH   4  12
BRANCH   1  32
ATOM     31  N   LIG    1      -30.185  87.700  32.913  0.00  0.00    -0.240 NA
ATOM     32  C   LIG    1      -30.157  87.693  31.622  0.00  0.00    +0.236 C 
BRANCH  31  33
ATOM     33  C   LIG    1      -29.157  88.224  33.781  0.00  0.00    +0.089 C 
ATOM     34  C   LIG    1      -28.928  87.363  35.015  0.00  0.00    +0.035 C 
ATOM     35  C   LIG    1      -27.931  87.333  33.906  0.00  0.00    +0.035 C 
BRANCH  33  36
ATOM     36  C   LIG    1      -28.962  89.716  33.971  0.00  0.00    +0.186 C 
BRANCH  36  37
ATOM     37  O   LIG    1      -29.194  90.371  32.721  0.00  0.00    -0.393 OA
ATOM     38  H   LIG    1      -28.311  90.592  32.365  0.00  0.00    +0.209 HD
ENDBRANCH  36  37
ENDBRANCH  33  36
ENDBRANCH  31  33
BRANCH  32  39
ATOM     39  O   LIG    1      -29.088  88.044  30.870  0.00  0.00    -0.491 OA
ATOM     40  H   LIG    1      -29.236  87.813  29.932  0.00  0.00    +0.294 HD
ENDBRANCH  32  39
ENDBRANCH   1  32
TORSDOF 9
ENDMDL
MODEL 6
REMARK VINA RESULT:      -5.9     16.618     19.996
REMARK  Name = pdb/CHEMBL3933210.pdb
REMARK                            x       y       z     vdW  Elec       q    Type
REMARK                         _______ _______ _______ _____ _____    ______ ____
ROOT
ATOM      1  C   LIG    1      -37.159  76.948  26.644  0.00  0.00    +0.149 A 
ATOM      2  N   LIG    1      -38.399  77.415  26.435  0.00  0.00    -0.160 NA
ATOM      3  N   LIG    1      -39.021  76.489  25.656  0.00  0.00    -0.218 N 
ATOM      4  C   LIG    1      -38.180  75.411  25.360  0.00  0.00    +0.129 A 
ATOM      5  C   LIG    1      -36.953  75.768  25.888  0.00  0.00    +0.078 A 
ENDROOT
BRANCH   3   6
ATOM      6  C   LIG    1      -40.368  76.729  25.239  0.00  0.00    +0.067 A 
ATOM      7  C   LIG    1      -41.454  76.663  26.118  0.00  0.00    +0.028 A 
ATOM      8  C   LIG    1      -42.758  76.843  25.638  0.00  0.00    +0.002 A 
ATOM      9  C   LIG    1      -42.984  77.105  24.287  0.00  0.00    +0.000 A 
ATOM     10  C   LIG    1      -41.906  77.216  23.414  0.00  0.00    +0.002 A 
ATOM     11  C   LIG    1      -40.603  77.040  23.887  0.00  0.00    +0.028 A 
ENDBRANCH   3   6
BRANCH   4  12
ATOM     12  N   LIG    1      -38.447  74.253  24.607  0.00  0.00    -0.266 N 
ATOM     13  H   LIG    1      -38.076  74.197  23.673  0.00  0.00    +0.157 HD
ATOM     14  C   LIG    1      -39.263  73.160  25.071  0.00  0.00    +0.251 C 
ATOM     15  O   LIG    1      -39.764  73.192  26.205  0.00  0.00    -0.270 OA
BRANCH  14  16
ATOM     16  C   LIG    1      -39.588  72.025  24.185  0.00  0.00    +0.056 A 
ATOM     17  C   LIG    1      -40.740  71.974  23.400  0.00  0.00    +0.054 A 
ATOM     18 CL   LIG    1      -41.863  73.274  23.274  0.00  0.00    -0.083 Cl
ATOM     19  C   LIG    1      -41.002  70.825  22.650  0.00  0.00    +0.041 A 
ATOM     20  C   LIG    1      -40.101  69.745  22.631  0.00  0.00    +0.052 A 
ATOM     21 CL   LIG    1      -40.658  68.323  21.811  0.00  0.00    -0.083 Cl
ATOM     22  C   LIG    1      -38.862  69.807  23.305  0.00  0.00    +0.022 A 
ATOM     23  C   LIG    1      -38.669  70.946  24.122  0.00  0.00    +0.026 A 
BRANCH  22  24
ATOM     24  C   LIG    1      -37.767  68.808  23.110  0.00  0.00    +0.107 A 
ATOM     25  C   LIG    1      -37.106  68.587  21.898  0.00  0.00    +0.149 A 
ATOM     26  F   LIG    1      -37.332  69.363  20.828  0.00  0.00    -0.203 F 
ATOM     27  C   LIG    1      -36.189  67.541  21.776  0.00  0.00    +0.042 A 
ATOM     28  C   LIG    1      -35.902  66.754  22.884  0.00  0.00    +0.023 A 
ATOM     29  C   LIG    1      -36.563  67.042  24.063  0.00  0.00    +0.111 A 
ATOM     30  N   LIG    1      -37.503  68.013  24.183  0.00  0.00    -0.252 NA
ENDBRANCH  22  24
ENDBRANCH  14  16
ENDBRANCH   4  12
BRANCH   1  32
ATOM     31  N   LIG    1      -34.915  77.596  27.269  0.00  0.00    -0.240 NA
ATOM     32  C   LIG    1      -36.177  77.582  27.542  0.00  0.00    +0.236 C 
BRANCH  31  33
ATOM     33  C   LIG    1      -33.869  78.116  28.119  0.00  0.00    +0.089 C 
ATOM     34  C   LIG    1      -32.646  78.575  27.338  0.00  0.00    +0.035 C 
ATOM     35  C   LIG    1      -33.573  79.593  27.911  0.00  0.00    +0.035 C 
BRANCH  33  36
ATOM     36  C   LIG    1      -33.596  77.532  29.491  0.00  0.00    +0.186 C 
BRANCH  36  37
ATOM     37  O   LIG    1      -34.210  78.368  30.476  0.00  0.00    -0.393 OA
ATOM     38  H   LIG    1      -33.848  78.080  31.337  0.00  0.00    +0.209 HD
ENDBRANCH  36  37
ENDBRANCH  33  36
ENDBRANCH  31  33
BRANCH  32  39
ATOM     39  O   LIG    1      -36.744  78.191  28.609  0.00  0.00    -0.491 OA
ATOM     40  H   LIG    1      -37.699  77.991  28.653  0.00  0.00    +0.294 HD
ENDBRANCH  32  39
ENDBRANCH   1  32
TORSDOF 9
ENDMDL
MODEL 7
REMARK VINA RESULT:      -5.9      5.024      9.443
REMARK  Name = pdb/CHEMBL3933210.pdb
REMARK                            x       y       z     vdW  Elec       q    Type
REMARK                         _______ _______ _______ _____ _____    ______ ____
ROOT
ATOM      1  C   LIG    1      -22.533  83.122  15.007  0.00  0.00    +0.149 A 
ATOM      2  N   LIG    1      -23.673  82.587  14.546  0.00  0.00    -0.160 NA
ATOM      3  N   LIG    1      -23.569  81.246  14.757  0.00  0.00    -0.218 N 
ATOM      4  C   LIG    1      -22.354  80.909  15.362  0.00  0.00    +0.129 A 
ATOM      5  C   LIG    1      -21.644  82.095  15.406  0.00  0.00    +0.078 A 
ENDROOT
BRANCH   3   6
ATOM      6  C   LIG    1      -24.638  80.395  14.334  0.00  0.00    +0.067 A 
ATOM      7  C   LIG    1      -25.259  79.480  15.192  0.00  0.00    +0.028 A 
ATOM      8  C   LIG    1      -26.255  78.625  14.703  0.00  0.00    +0.002 A 
ATOM      9  C   LIG    1      -26.650  78.689  13.367  0.00  0.00    +0.000 A 
ATOM     10  C   LIG    1      -26.068  79.627  12.519  0.00  0.00    +0.002 A 
ATOM     11  C   LIG    1      -25.076  80.484  13.000  0.00  0.00    +0.028 A 
ENDBRANCH   3   6
BRANCH   4  12
ATOM     12  N   LIG    1      -21.875  79.647  15.757  0.00  0.00    -0.266 N 
ATOM     13  H   LIG    1      -21.794  79.455  16.741  0.00  0.00    +0.157 HD
ATOM     14  C   LIG    1      -21.441  78.626  14.837  0.00  0.00    +0.251 C 
ATOM     15  O   LIG    1      -21.497  78.823  13.613  0.00  0.00    -0.270 OA
BRANCH  14  16
ATOM     16  C   LIG    1      -20.848  77.365  15.324  0.00  0.00    +0.056 A 
ATOM     17  C   LIG    1      -19.562  77.282  15.857  0.00  0.00    +0.054 A 
ATOM     18 CL   LIG    1      -18.552  78.653  16.122  0.00  0.00    -0.083 Cl
ATOM     19  C   LIG    1      -19.057  76.033  16.223  0.00  0.00    +0.041 A 
ATOM     20  C   LIG    1      -19.839  74.869  16.115  0.00  0.00    +0.052 A 
ATOM     21 CL   LIG    1      -19.008  73.379  16.425  0.00  0.00    -0.083 Cl
ATOM     22  C   LIG    1      -21.189  74.924  15.706  0.00  0.00    +0.022 A 
ATOM     23  C   LIG    1      -21.640  76.190  15.261  0.00  0.00    +0.026 A 
BRANCH  22  24
ATOM     24  C   LIG    1      -22.132  73.770  15.819  0.00  0.00    +0.107 A 
ATOM     25  C   LIG    1      -22.893  73.480  16.955  0.00  0.00    +0.149 A 
ATOM     26  F   LIG    1      -22.921  74.312  18.007  0.00  0.00    -0.203 F 
ATOM     27  C   LIG    1      -23.646  72.306  17.019  0.00  0.00    +0.042 A 
ATOM     28  C   LIG    1      -23.672  71.454  15.922  0.00  0.00    +0.023 A 
ATOM     29  C   LIG    1      -22.925  71.810  14.816  0.00  0.00    +0.111 A 
ATOM     30  N   LIG    1      -22.139  72.914  14.760  0.00  0.00    -0.252 NA
ENDBRANCH  22  24
ENDBRANCH  14  16
ENDBRANCH   4  12
BRANCH   1  32
ATOM     31  N   LIG    1      -21.904  85.253  14.056  0.00  0.00    -0.240 NA
ATOM     32  C   LIG    1      -22.273  84.571  15.088  0.00  0.00    +0.236 C 
BRANCH  31  33
ATOM     33  C   LIG    1      -21.548  86.654  14.049  0.00  0.00    +0.089 C 
ATOM     34  C   LIG    1      -21.990  87.370  12.781  0.00  0.00    +0.035 C 
ATOM     35  C   LIG    1      -22.737  87.601  14.051  0.00  0.00    +0.035 C 
BRANCH  33  36
ATOM     36  C   LIG    1      -20.256  87.148  14.671  0.00  0.00    +0.186 C 
BRANCH  36  37
ATOM     37  O   LIG    1      -19.157  86.507  14.018  0.00  0.00    -0.393 OA
ATOM     38  H   LIG    1      -18.894  85.766  14.598  0.00  0.00    +0.209 HD
ENDBRANCH  36  37
ENDBRANCH  33  36
ENDBRANCH  31  33
BRANCH  32  39
ATOM     39  O   LIG    1      -22.531  85.093  16.309  0.00  0.00    -0.491 OA
ATOM     40  H   LIG    1      -21.980  85.884  16.469  0.00  0.00    +0.294 HD
ENDBRANCH  32  39
ENDBRANCH   1  32
TORSDOF 9
ENDMDL
MODEL 8
REMARK VINA RESULT:      -5.8     16.562     18.038
REMARK  Name = pdb/CHEMBL3933210.pdb
REMARK                            x       y       z     vdW  Elec       q    Type
REMARK                         _______ _______ _______ _____ _____    ______ ____
ROOT
ATOM      1  C   LIG    1      -38.065  70.980  24.184  0.00  0.00    +0.149 A 
ATOM      2  N   LIG    1      -39.193  71.600  23.803  0.00  0.00    -0.160 NA
ATOM      3  N   LIG    1      -39.071  72.888  24.223  0.00  0.00    -0.218 N 
ATOM      4  C   LIG    1      -37.854  73.107  24.877  0.00  0.00    +0.129 A 
ATOM      5  C   LIG    1      -37.270  71.856  24.960  0.00  0.00    +0.078 A 
ENDROOT
BRANCH   3   6
ATOM      6  C   LIG    1      -40.147  73.799  23.983  0.00  0.00    +0.067 A 
ATOM      7  C   LIG    1      -41.416  73.376  23.572  0.00  0.00    +0.028 A 
ATOM      8  C   LIG    1      -42.412  74.319  23.288  0.00  0.00    +0.002 A 
ATOM      9  C   LIG    1      -42.156  75.683  23.429  0.00  0.00    +0.000 A 
ATOM     10  C   LIG    1      -40.910  76.109  23.880  0.00  0.00    +0.002 A 
ATOM     11  C   LIG    1      -39.913  75.174  24.167  0.00  0.00    +0.028 A 
ENDBRANCH   3   6
BRANCH   4  12
ATOM     12  N   LIG    1      -37.343  74.292  25.438  0.00  0.00    -0.266 N 
ATOM     13  H   LIG    1      -36.840  74.925  24.839  0.00  0.00    +0.157 HD
ATOM     14  C   LIG    1      -37.453  74.636  26.834  0.00  0.00    +0.251 C 
ATOM     15  O   LIG    1      -38.042  73.877  27.619  0.00  0.00    -0.270 OA
BRANCH  14  16
ATOM     16  C   LIG    1      -36.800  75.845  27.372  0.00  0.00    +0.056 A 
ATOM     17  C   LIG    1      -37.405  77.101  27.379  0.00  0.00    +0.054 A 
ATOM     18 CL   LIG    1      -39.028  77.378  26.870  0.00  0.00    -0.083 Cl
ATOM     19  C   LIG    1      -36.682  78.203  27.840  0.00  0.00    +0.041 A 
ATOM     20  C   LIG    1      -35.377  78.059  28.347  0.00  0.00    +0.052 A 
ATOM     21 CL   LIG    1      -34.546  79.539  28.699  0.00  0.00    -0.083 Cl
ATOM     22  C   LIG    1      -34.775  76.789  28.482  0.00  0.00    +0.022 A 
ATOM     23  C   LIG    1      -35.501  75.708  27.926  0.00  0.00    +0.026 A 
BRANCH  22  24
ATOM     24  C   LIG    1      -33.511  76.553  29.244  0.00  0.00    +0.107 A 
ATOM     25  C   LIG    1      -32.231  76.593  28.683  0.00  0.00    +0.149 A 
ATOM     26  F   LIG    1      -32.038  76.976  27.412  0.00  0.00    -0.203 F 
ATOM     27  C   LIG    1      -31.117  76.228  29.442  0.00  0.00    +0.042 A 
ATOM     28  C   LIG    1      -31.287  75.875  30.774  0.00  0.00    +0.023 A 
ATOM     29  C   LIG    1      -32.572  75.887  31.281  0.00  0.00    +0.111 A 
ATOM     30  N   LIG    1      -33.672  76.177  30.542  0.00  0.00    -0.252 NA
ENDBRANCH  22  24
ENDBRANCH  14  16
ENDBRANCH   4  12
BRANCH   1  32
ATOM     31  N   LIG    1      -37.178  69.299  22.689  0.00  0.00    -0.240 NA
ATOM     32  C   LIG    1      -37.723  69.592  23.822  0.00  0.00    +0.236 C 
BRANCH  31  33
ATOM     33  C   LIG    1      -36.881  67.969  22.209  0.00  0.00    +0.089 C 
ATOM     34  C   LIG    1      -38.113  67.233  21.703  0.00  0.00    +0.035 C 
ATOM     35  C   LIG    1      -37.128  67.773  20.721  0.00  0.00    +0.035 C 
BRANCH  33  36
ATOM     36  C   LIG    1      -35.819  67.108  22.863  0.00  0.00    +0.186 C 
BRANCH  36  37
ATOM     37  O   LIG    1      -34.652  67.905  23.082  0.00  0.00    -0.393 OA
ATOM     38  H   LIG    1      -34.480  67.871  24.044  0.00  0.00    +0.209 HD
ENDBRANCH  36  37
ENDBRANCH  33  36
ENDBRANCH  31  33
BRANCH  32  39
ATOM     39  O   LIG    1      -37.971  68.705  24.813  0.00  0.00    -0.491 OA
ATOM     40  H   LIG    1      -37.417  67.907  24.708  0.00  0.00    +0.294 HD
ENDBRANCH  32  39
ENDBRANCH   1  32
TORSDOF 9
ENDMDL
MODEL 9
REMARK VINA RESULT:      -5.8      3.679      5.761
REMARK  Name = pdb/CHEMBL3933210.pdb
REMARK                            x       y       z     vdW  Elec       q    Type
REMARK                         _______ _______ _______ _____ _____    ______ ____
ROOT
ATOM      1  C   LIG    1      -26.112  77.733  13.811  0.00  0.00    +0.149 A 
ATOM      2  N   LIG    1      -24.963  77.728  14.503  0.00  0.00    -0.160 NA
ATOM      3  N   LIG    1      -24.471  78.994  14.419  0.00  0.00    -0.218 N 
ATOM      4  C   LIG    1      -25.309  79.827  13.671  0.00  0.00    +0.129 A 
ATOM      5  C   LIG    1      -26.292  78.987  13.180  0.00  0.00    +0.078 A 
ENDROOT
BRANCH   3   6
ATOM      6  C   LIG    1      -23.221  79.293  15.045  0.00  0.00    +0.067 A 
ATOM      7  C   LIG    1      -22.036  78.622  14.724  0.00  0.00    +0.028 A 
ATOM      8  C   LIG    1      -20.854  78.913  15.418  0.00  0.00    +0.002 A 
ATOM      9  C   LIG    1      -20.842  79.882  16.420  0.00  0.00    +0.000 A 
ATOM     10  C   LIG    1      -22.006  80.586  16.715  0.00  0.00    +0.002 A 
ATOM     11  C   LIG    1      -23.188  80.302  16.025  0.00  0.00    +0.028 A 
ENDBRANCH   3   6
BRANCH   4  12
ATOM     12  N   LIG    1      -25.169  81.194  13.369  0.00  0.00    -0.266 N 
ATOM     13  H   LIG    1      -25.771  81.850  13.837  0.00  0.00    +0.157 HD
ATOM     14  C   LIG    1      -24.248  81.712  12.388  0.00  0.00    +0.251 C 
ATOM     15  O   LIG    1      -23.501  80.942  11.765  0.00  0.00    -0.270 OA
BRANCH  14  16
ATOM     16  C   LIG    1      -24.230  83.147  12.046  0.00  0.00    +0.056 A 
ATOM     17  C   LIG    1      -25.183  83.748  11.223  0.00  0.00    +0.054 A 
ATOM     18 CL   LIG    1      -26.561  82.920  10.602  0.00  0.00    -0.083 Cl
ATOM     19  C   LIG    1      -25.043  85.098  10.892  0.00  0.00    +0.041 A 
ATOM     20  C   LIG    1      -23.992  85.872  11.416  0.00  0.00    +0.052 A 
ATOM     21 CL   LIG    1      -23.845  87.471  10.762  0.00  0.00    -0.083 Cl
ATOM     22  C   LIG    1      -23.082  85.340  12.355  0.00  0.00    +0.022 A 
ATOM     23  C   LIG    1      -23.201  83.951  12.600  0.00  0.00    +0.026 A 
BRANCH  22  24
ATOM     24  C   LIG    1      -22.117  86.176  13.132  0.00  0.00    +0.107 A 
ATOM     25  C   LIG    1      -20.835  86.518  12.692  0.00  0.00    +0.149 A 
ATOM     26  F   LIG    1      -20.417  86.211  11.454  0.00  0.00    -0.203 F 
ATOM     27  C   LIG    1      -19.953  87.190  13.541  0.00  0.00    +0.042 A 
ATOM     28  C   LIG    1      -20.380  87.561  14.809  0.00  0.00    +0.023 A 
ATOM     29  C   LIG    1      -21.669  87.224  15.176  0.00  0.00    +0.111 A 
ATOM     30  N   LIG    1      -22.517  86.517  14.388  0.00  0.00    -0.252 NA
ENDBRANCH  22  24
ENDBRANCH  14  16
ENDBRANCH   4  12
BRANCH   1  32
ATOM     31  N   LIG    1      -26.971  75.712  12.799  0.00  0.00    -0.240 NA
ATOM     32  C   LIG    1      -27.040  76.589  13.744  0.00  0.00    +0.236 C 
BRANCH  31  33
ATOM     33  C   LIG    1      -27.880  74.607  12.599  0.00  0.00    +0.089 C 
ATOM     34  C   LIG    1      -27.195  73.371  12.035  0.00  0.00    +0.035 C 
ATOM     35  C   LIG    1      -27.593  73.396  13.472  0.00  0.00    +0.035 C 
BRANCH  33  36
ATOM     36  C   LIG    1      -29.314  74.828  12.156  0.00  0.00    +0.186 C 
BRANCH  36  37
ATOM     37  O   LIG    1      -29.557  76.235  12.076  0.00  0.00    -0.393 OA
ATOM     38  H   LIG    1      -29.824  76.410  11.151  0.00  0.00    +0.209 HD
ENDBRANCH  36  37
ENDBRANCH  33  36
ENDBRANCH  31  33
BRANCH  32  39
ATOM     39  O   LIG    1      -27.893  76.530  14.793  0.00  0.00    -0.491 OA
ATOM     40  H   LIG    1      -27.556  77.061  15.541  0.00  0.00    +0.294 HD
ENDBRANCH  32  39
ENDBRANCH   1  32
TORSDOF 9
ENDMDL
