MODEL 1
REMARK VINA RESULT:      -6.6      0.000      0.000
REMARK  Name = pdb/CHEMBL3676063.pdb
REMARK                            x       y       z     vdW  Elec       q    Type
REMARK                         _______ _______ _______ _____ _____    ______ ____
ROOT
ATOM      1  C   LIG    1      -33.878  92.318  19.719  0.00  0.00    +0.126 A 
ATOM      2  N   LIG    1      -33.412  92.615  20.918  0.00  0.00    -0.212 NA
ATOM      3  C   LIG    1      -32.334  93.471  21.004  0.00  0.00    +0.170 A 
ATOM      4  C   LIG    1      -31.599  93.977  22.069  0.00  0.00    +0.100 A 
ATOM      5  C   LIG    1      -30.623  94.801  21.467  0.00  0.00    +0.150 A 
ATOM      6  N   LIG    1      -30.702  94.834  20.141  0.00  0.00    -0.173 NA
ATOM      7  N   LIG    1      -31.744  94.022  19.858  0.00  0.00    -0.221 N 
ATOM      8  C   LIG    1      -32.229  93.724  18.600  0.00  0.00    +0.118 A 
ATOM      9  C   LIG    1      -33.273  92.907  18.462  0.00  0.00    +0.063 A 
ENDROOT
BRANCH   1  11
ATOM     10  C   LIG    1      -35.622  91.185  18.281  0.00  0.00    +0.107 C 
ATOM     11  N   LIG    1      -34.959  91.450  19.574  0.00  0.00    -0.308 N 
ATOM     12  C   LIG    1      -35.869  91.125  20.678  0.00  0.00    +0.107 C 
ATOM     13  C   LIG    1      -37.237  90.993  20.032  0.00  0.00    +0.021 C 
ATOM     14  C   LIG    1      -36.901  90.420  18.673  0.00  0.00    +0.029 C 
BRANCH  10  17
ATOM     15  C   LIG    1      -35.695  91.689  15.320  0.00  0.00    +0.066 C 
ATOM     16  C   LIG    1      -34.822  90.625  15.924  0.00  0.00    +0.043 A 
ATOM     17  C   LIG    1      -34.804  90.363  17.307  0.00  0.00    -0.003 A 
ATOM     18  C   LIG    1      -34.054  89.255  17.739  0.00  0.00    +0.047 A 
ATOM     19  C   LIG    1      -33.345  88.497  16.820  0.00  0.00    +0.142 A 
ATOM     20  F   LIG    1      -32.641  87.431  17.222  0.00  0.00    -0.204 F 
ATOM     21  C   LIG    1      -33.395  88.848  15.488  0.00  0.00    +0.149 A 
ATOM     22  N   LIG    1      -34.120  89.890  15.020  0.00  0.00    -0.257 NA
ENDBRANCH  10  17
ENDBRANCH   1  11
BRANCH   4  23
ATOM     23  C   LIG    1      -31.705  93.767  23.496  0.00  0.00    +0.249 C 
ATOM     24  N   LIG    1      -32.916  93.327  23.974  0.00  0.00    -0.308 N 
ATOM     25  H   LIG    1      -33.690  93.277  23.315  0.00  0.00    +0.149 HD
ATOM     26  O   LIG    1      -30.737  93.959  24.234  0.00  0.00    -0.270 OA
BRANCH  24  27
ATOM     27  C   LIG    1      -33.102  93.077  25.389  0.00  0.00    +0.076 C 
ATOM     28  C   LIG    1      -32.456  91.779  25.876  0.00  0.00    +0.053 C 
ATOM     29  C   LIG    1      -33.482  91.129  26.805  0.00  0.00    +0.116 C 
ATOM     30  C   LIG    1      -34.489  92.225  27.121  0.00  0.00    +0.033 C 
ATOM     31  C   LIG    1      -34.570  92.986  25.808  0.00  0.00    +0.025 C 
BRANCH  29  32
ATOM     32  O   LIG    1      -32.861  90.630  27.974  0.00  0.00    -0.392 OA
ATOM     33  H   LIG    1      -32.266  89.909  27.704  0.00  0.00    +0.210 HD
ENDBRANCH  29  32
ENDBRANCH  24  27
ENDBRANCH   4  23
TORSDOF 5
ENDMDL
MODEL 2
REMARK VINA RESULT:      -6.5     20.024     22.381
REMARK  Name = pdb/CHEMBL3676063.pdb
REMARK                            x       y       z     vdW  Elec       q    Type
REMARK                         _______ _______ _______ _____ _____    ______ ____
ROOT
ATOM      1  C   LIG    1      -24.750  76.653  33.957  0.00  0.00    +0.126 A 
ATOM      2  N   LIG    1      -23.752  77.497  34.142  0.00  0.00    -0.212 NA
ATOM      3  C   LIG    1      -24.013  78.679  34.804  0.00  0.00    +0.170 A 
ATOM      4  C   LIG    1      -23.228  79.771  35.154  0.00  0.00    +0.100 A 
ATOM      5  C   LIG    1      -24.115  80.647  35.817  0.00  0.00    +0.150 A 
ATOM      6  N   LIG    1      -25.357  80.184  35.895  0.00  0.00    -0.173 NA
ATOM      7  N   LIG    1      -25.297  78.985  35.276  0.00  0.00    -0.221 N 
ATOM      8  C   LIG    1      -26.345  78.106  35.095  0.00  0.00    +0.118 A 
ATOM      9  C   LIG    1      -26.145  76.947  34.467  0.00  0.00    +0.063 A 
ENDROOT
BRANCH   1  11
ATOM     10  C   LIG    1      -24.513  75.333  31.814  0.00  0.00    +0.107 C 
ATOM     11  N   LIG    1      -24.544  75.449  33.286  0.00  0.00    -0.308 N 
ATOM     12  C   LIG    1      -24.854  74.145  33.883  0.00  0.00    +0.107 C 
ATOM     13  C   LIG    1      -25.367  73.298  32.731  0.00  0.00    +0.021 C 
ATOM     14  C   LIG    1      -24.555  73.813  31.563  0.00  0.00    +0.029 C 
BRANCH  10  17
ATOM     15  C   LIG    1      -24.654  77.835  30.156  0.00  0.00    +0.066 C 
ATOM     16  C   LIG    1      -23.356  77.121  30.408  0.00  0.00    +0.043 A 
ATOM     17  C   LIG    1      -23.285  75.932  31.158  0.00  0.00    -0.003 A 
ATOM     18  C   LIG    1      -22.040  75.281  31.210  0.00  0.00    +0.047 A 
ATOM     19  C   LIG    1      -20.942  75.832  30.569  0.00  0.00    +0.142 A 
ATOM     20  F   LIG    1      -19.757  75.210  30.601  0.00  0.00    -0.204 F 
ATOM     21  C   LIG    1      -21.098  77.018  29.885  0.00  0.00    +0.149 A 
ATOM     22  N   LIG    1      -22.278  77.670  29.785  0.00  0.00    -0.257 NA
ENDBRANCH  10  17
ENDBRANCH   1  11
BRANCH   4  23
ATOM     23  C   LIG    1      -21.828  80.060  34.929  0.00  0.00    +0.249 C 
ATOM     24  N   LIG    1      -21.099  79.117  34.246  0.00  0.00    -0.308 N 
ATOM     25  H   LIG    1      -21.556  78.233  34.033  0.00  0.00    +0.149 HD
ATOM     26  O   LIG    1      -21.334  81.118  35.322  0.00  0.00    -0.270 OA
BRANCH  24  27
ATOM     27  C   LIG    1      -19.694  79.336  33.965  0.00  0.00    +0.076 C 
ATOM     28  C   LIG    1      -19.242  78.786  32.612  0.00  0.00    +0.053 C 
ATOM     29  C   LIG    1      -17.897  78.104  32.870  0.00  0.00    +0.116 C 
ATOM     30  C   LIG    1      -17.447  78.608  34.234  0.00  0.00    +0.033 C 
ATOM     31  C   LIG    1      -18.757  78.706  34.998  0.00  0.00    +0.025 C 
BRANCH  29  32
ATOM     32  O   LIG    1      -16.965  78.425  31.855  0.00  0.00    -0.392 OA
ATOM     33  H   LIG    1      -16.909  77.660  31.257  0.00  0.00    +0.210 HD
ENDBRANCH  29  32
ENDBRANCH  24  27
ENDBRANCH   4  23
TORSDOF 5
ENDMDL
MODEL 3
REMARK VINA RESULT:      -6.1     21.122     23.217
REMARK  Name = pdb/CHEMBL3676063.pdb
REMARK                            x       y       z     vdW  Elec       q    Type
REMARK                         _______ _______ _______ _____ _____    ______ ____
ROOT
ATOM      1  C   LIG    1      -23.683  80.155  35.545  0.00  0.00    +0.126 A 
ATOM      2  N   LIG    1      -23.643  79.319  34.524  0.00  0.00    -0.212 NA
ATOM      3  C   LIG    1      -24.742  78.517  34.296  0.00  0.00    +0.170 A 
ATOM      4  C   LIG    1      -25.033  77.543  33.349  0.00  0.00    +0.100 A 
ATOM      5  C   LIG    1      -26.335  77.105  33.679  0.00  0.00    +0.150 A 
ATOM      6  N   LIG    1      -26.849  77.723  34.737  0.00  0.00    -0.173 NA
ATOM      7  N   LIG    1      -25.878  78.583  35.115  0.00  0.00    -0.221 N 
ATOM      8  C   LIG    1      -25.933  79.459  36.180  0.00  0.00    +0.118 A 
ATOM      9  C   LIG    1      -24.900  80.260  36.440  0.00  0.00    +0.063 A 
ENDROOT
BRANCH   1  11
ATOM     10  C   LIG    1      -21.381  80.516  36.528  0.00  0.00    +0.107 C 
ATOM     11  N   LIG    1      -22.596  80.980  35.828  0.00  0.00    -0.308 N 
ATOM     12  C   LIG    1      -22.718  82.437  35.953  0.00  0.00    +0.107 C 
ATOM     13  C   LIG    1      -21.741  82.819  37.052  0.00  0.00    +0.021 C 
ATOM     14  C   LIG    1      -20.625  81.817  36.857  0.00  0.00    +0.029 C 
BRANCH  10  17
ATOM     15  C   LIG    1      -19.845  78.262  37.789  0.00  0.00    +0.066 C 
ATOM     16  C   LIG    1      -19.803  78.523  36.309  0.00  0.00    +0.043 A 
ATOM     17  C   LIG    1      -20.496  79.594  35.715  0.00  0.00    -0.003 A 
ATOM     18  C   LIG    1      -20.271  79.820  34.345  0.00  0.00    +0.047 A 
ATOM     19  C   LIG    1      -19.426  78.983  33.634  0.00  0.00    +0.142 A 
ATOM     20  F   LIG    1      -19.195  79.201  32.333  0.00  0.00    -0.204 F 
ATOM     21  C   LIG    1      -18.816  77.938  34.293  0.00  0.00    +0.149 A 
ATOM     22  N   LIG    1      -18.981  77.692  35.613  0.00  0.00    -0.257 NA
ENDBRANCH  10  17
ENDBRANCH   1  11
BRANCH   4  23
ATOM     23  C   LIG    1      -24.259  77.010  32.249  0.00  0.00    +0.249 C 
ATOM     24  N   LIG    1      -22.892  77.029  32.382  0.00  0.00    -0.308 N 
ATOM     25  H   LIG    1      -22.505  77.509  33.192  0.00  0.00    +0.149 HD
ATOM     26  O   LIG    1      -24.817  76.545  31.255  0.00  0.00    -0.270 OA
BRANCH  24  27
ATOM     27  C   LIG    1      -22.043  76.500  31.334  0.00  0.00    +0.076 C 
ATOM     28  C   LIG    1      -20.812  75.755  31.853  0.00  0.00    +0.053 C 
ATOM     29  C   LIG    1      -19.649  76.214  30.973  0.00  0.00    +0.116 C 
ATOM     30  C   LIG    1      -20.296  76.882  29.768  0.00  0.00    +0.033 C 
ATOM     31  C   LIG    1      -21.504  77.570  30.383  0.00  0.00    +0.025 C 
BRANCH  29  32
ATOM     32  O   LIG    1      -18.838  75.118  30.595  0.00  0.00    -0.392 OA
ATOM     33  H   LIG    1      -17.996  75.198  31.075  0.00  0.00    +0.210 HD
ENDBRANCH  29  32
ENDBRANCH  24  27
ENDBRANCH   4  23
TORSDOF 5
ENDMDL
MODEL 4
REMARK VINA RESULT:      -6.1     20.298     23.071
REMARK  Name = pdb/CHEMBL3676063.pdb
REMARK                            x       y       z     vdW  Elec       q    Type
REMARK                         _______ _______ _______ _____ _____    ______ ____
ROOT
ATOM      1  C   LIG    1      -20.855  77.238  31.349  0.00  0.00    +0.126 A 
ATOM      2  N   LIG    1      -21.886  77.557  32.109  0.00  0.00    -0.212 NA
ATOM      3  C   LIG    1      -23.147  77.493  31.556  0.00  0.00    +0.170 A 
ATOM      4  C   LIG    1      -24.420  77.761  32.045  0.00  0.00    +0.100 A 
ATOM      5  C   LIG    1      -25.281  77.495  30.959  0.00  0.00    +0.150 A 
ATOM      6  N   LIG    1      -24.644  77.096  29.863  0.00  0.00    -0.173 NA
ATOM      7  N   LIG    1      -23.343  77.096  30.226  0.00  0.00    -0.221 N 
ATOM      8  C   LIG    1      -22.273  76.753  29.425  0.00  0.00    +0.118 A 
ATOM      9  C   LIG    1      -21.033  76.792  29.913  0.00  0.00    +0.063 A 
ENDROOT
BRANCH   1  11
ATOM     10  C   LIG    1      -19.168  78.139  33.003  0.00  0.00    +0.107 C 
ATOM     11  N   LIG    1      -19.557  77.295  31.855  0.00  0.00    -0.308 N 
ATOM     12  C   LIG    1      -18.376  76.978  31.045  0.00  0.00    +0.107 C 
ATOM     13  C   LIG    1      -17.303  77.943  31.522  0.00  0.00    +0.021 C 
ATOM     14  C   LIG    1      -17.628  78.089  32.992  0.00  0.00    +0.029 C 
BRANCH  10  17
ATOM     15  C   LIG    1      -20.367  80.031  35.005  0.00  0.00    +0.066 C 
ATOM     16  C   LIG    1      -20.278  78.553  35.263  0.00  0.00    +0.043 A 
ATOM     17  C   LIG    1      -19.691  77.664  34.343  0.00  0.00    -0.003 A 
ATOM     18  C   LIG    1      -19.540  76.327  34.752  0.00  0.00    +0.047 A 
ATOM     19  C   LIG    1      -19.994  75.928  36.000  0.00  0.00    +0.142 A 
ATOM     20  F   LIG    1      -19.841  74.660  36.402  0.00  0.00    -0.204 F 
ATOM     21  C   LIG    1      -20.588  76.862  36.821  0.00  0.00    +0.149 A 
ATOM     22  N   LIG    1      -20.735  78.163  36.484  0.00  0.00    -0.257 NA
ENDBRANCH  10  17
ENDBRANCH   1  11
BRANCH   4  23
ATOM     23  C   LIG    1      -24.874  78.224  33.339  0.00  0.00    +0.249 C 
ATOM     24  N   LIG    1      -24.021  79.036  34.046  0.00  0.00    -0.308 N 
ATOM     25  H   LIG    1      -23.086  79.176  33.668  0.00  0.00    +0.149 HD
ATOM     26  O   LIG    1      -25.988  77.910  33.763  0.00  0.00    -0.270 OA
BRANCH  24  27
ATOM     27  C   LIG    1      -24.406  79.555  35.342  0.00  0.00    +0.076 C 
ATOM     28  C   LIG    1      -23.724  80.875  35.706  0.00  0.00    +0.053 C 
ATOM     29  C   LIG    1      -23.307  80.737  37.170  0.00  0.00    +0.116 C 
ATOM     30  C   LIG    1      -24.083  79.539  37.698  0.00  0.00    +0.033 C 
ATOM     31  C   LIG    1      -24.099  78.603  36.500  0.00  0.00    +0.025 C 
BRANCH  29  32
ATOM     32  O   LIG    1      -23.602  81.916  37.894  0.00  0.00    -0.392 OA
ATOM     33  H   LIG    1      -24.545  81.886  38.130  0.00  0.00    +0.210 HD
ENDBRANCH  29  32
ENDBRANCH  24  27
ENDBRANCH   4  23
TORSDOF 5
ENDMDL
MODEL 5
REMARK VINA RESULT:      -6.1     17.681     20.889
REMARK  Name = pdb/CHEMBL3676063.pdb
REMARK                            x       y       z     vdW  Elec       q    Type
REMARK                         _______ _______ _______ _____ _____    ______ ____
ROOT
ATOM      1  C   LIG    1      -22.467  74.378  15.928  0.00  0.00    +0.126 A 
ATOM      2  N   LIG    1      -22.919  75.619  15.943  0.00  0.00    -0.212 NA
ATOM      3  C   LIG    1      -23.489  76.118  14.791  0.00  0.00    +0.170 A 
ATOM      4  C   LIG    1      -24.042  77.348  14.454  0.00  0.00    +0.100 A 
ATOM      5  C   LIG    1      -24.443  77.200  13.109  0.00  0.00    +0.150 A 
ATOM      6  N   LIG    1      -24.179  75.999  12.606  0.00  0.00    -0.173 NA
ATOM      7  N   LIG    1      -23.596  75.339  13.631  0.00  0.00    -0.221 N 
ATOM      8  C   LIG    1      -23.134  74.039  13.606  0.00  0.00    +0.118 A 
ATOM      9  C   LIG    1      -22.580  73.505  14.696  0.00  0.00    +0.063 A 
ENDROOT
BRANCH   1  11
ATOM     10  C   LIG    1      -20.540  73.191  17.054  0.00  0.00    +0.107 C 
ATOM     11  N   LIG    1      -21.873  73.827  17.062  0.00  0.00    -0.308 N 
ATOM     12  C   LIG    1      -22.649  73.344  18.209  0.00  0.00    +0.107 C 
ATOM     13  C   LIG    1      -21.894  72.124  18.708  0.00  0.00    +0.021 C 
ATOM     14  C   LIG    1      -20.455  72.495  18.426  0.00  0.00    +0.029 C 
BRANCH  10  17
ATOM     15  C   LIG    1      -19.027  73.436  14.470  0.00  0.00    +0.066 C 
ATOM     16  C   LIG    1      -18.697  74.283  15.666  0.00  0.00    +0.043 A 
ATOM     17  C   LIG    1      -19.381  74.153  16.890  0.00  0.00    -0.003 A 
ATOM     18  C   LIG    1      -18.894  74.901  17.978  0.00  0.00    +0.047 A 
ATOM     19  C   LIG    1      -17.808  75.745  17.808  0.00  0.00    +0.142 A 
ATOM     20  F   LIG    1      -17.329  76.447  18.842  0.00  0.00    -0.204 F 
ATOM     21  C   LIG    1      -17.222  75.832  16.564  0.00  0.00    +0.149 A 
ATOM     22  N   LIG    1      -17.637  75.118  15.493  0.00  0.00    -0.257 NA
ENDBRANCH  10  17
ENDBRANCH   1  11
BRANCH   4  23
ATOM     23  C   LIG    1      -24.206  78.568  15.214  0.00  0.00    +0.249 C 
ATOM     24  N   LIG    1      -23.360  79.608  14.914  0.00  0.00    -0.308 N 
ATOM     25  H   LIG    1      -22.606  79.426  14.255  0.00  0.00    +0.149 HD
ATOM     26  O   LIG    1      -25.083  78.659  16.074  0.00  0.00    -0.270 OA
BRANCH  24  27
ATOM     27  C   LIG    1      -23.468  80.870  15.618  0.00  0.00    +0.076 C 
ATOM     28  C   LIG    1      -23.353  82.095  14.710  0.00  0.00    +0.053 C 
ATOM     29  C   LIG    1      -22.449  83.079  15.454  0.00  0.00    +0.116 C 
ATOM     30  C   LIG    1      -22.394  82.570  16.887  0.00  0.00    +0.033 C 
ATOM     31  C   LIG    1      -22.404  81.062  16.701  0.00  0.00    +0.025 C 
BRANCH  29  32
ATOM     32  O   LIG    1      -22.966  84.395  15.381  0.00  0.00    -0.392 OA
ATOM     33  H   LIG    1      -23.789  84.414  15.899  0.00  0.00    +0.210 HD
ENDBRANCH  29  32
ENDBRANCH  24  27
ENDBRANCH   4  23
TORSDOF 5
ENDMDL
MODEL 6
REMARK VINA RESULT:      -6.1     21.292     22.834
REMARK  Name = pdb/CHEMBL3676063.pdb
REMARK                            x       y       z     vdW  Elec       q    Type
REMARK                         _______ _______ _______ _____ _____    ______ ____
ROOT
ATOM      1  C   LIG    1      -23.318  76.615  31.767  0.00  0.00    +0.126 A 
ATOM      2  N   LIG    1      -23.529  77.427  32.787  0.00  0.00    -0.212 NA
ATOM      3  C   LIG    1      -24.792  77.463  33.340  0.00  0.00    +0.170 A 
ATOM      4  C   LIG    1      -25.357  78.186  34.383  0.00  0.00    +0.100 A 
ATOM      5  C   LIG    1      -26.700  77.750  34.430  0.00  0.00    +0.150 A 
ATOM      6  N   LIG    1      -26.992  76.837  33.511  0.00  0.00    -0.173 NA
ATOM      7  N   LIG    1      -25.830  76.662  32.845  0.00  0.00    -0.221 N 
ATOM      8  C   LIG    1      -25.619  75.805  31.784  0.00  0.00    +0.118 A 
ATOM      9  C   LIG    1      -24.414  75.727  31.217  0.00  0.00    +0.063 A 
ENDROOT
BRANCH   1  11
ATOM     10  C   LIG    1      -20.895  77.323  31.626  0.00  0.00    +0.107 C 
ATOM     11  N   LIG    1      -22.063  76.546  31.165  0.00  0.00    -0.308 N 
ATOM     12  C   LIG    1      -21.876  76.146  29.766  0.00  0.00    +0.107 C 
ATOM     13  C   LIG    1      -20.725  77.001  29.264  0.00  0.00    +0.021 C 
ATOM     14  C   LIG    1      -19.861  77.139  30.498  0.00  0.00    +0.029 C 
BRANCH  10  17
ATOM     15  C   LIG    1      -19.836  79.263  33.661  0.00  0.00    +0.066 C 
ATOM     16  C   LIG    1      -19.843  77.781  33.905  0.00  0.00    +0.043 A 
ATOM     17  C   LIG    1      -20.309  76.863  32.945  0.00  0.00    -0.003 A 
ATOM     18  C   LIG    1      -20.139  75.496  33.230  0.00  0.00    +0.047 A 
ATOM     19  C   LIG    1      -19.565  75.105  34.429  0.00  0.00    +0.142 A 
ATOM     20  F   LIG    1      -19.386  73.806  34.701  0.00  0.00    -0.204 F 
ATOM     21  C   LIG    1      -19.168  76.074  35.325  0.00  0.00    +0.149 A 
ATOM     22  N   LIG    1      -19.289  77.400  35.088  0.00  0.00    -0.257 NA
ENDBRANCH  10  17
ENDBRANCH   1  11
BRANCH   4  23
ATOM     23  C   LIG    1      -24.804  79.187  35.269  0.00  0.00    +0.249 C 
ATOM     24  N   LIG    1      -23.435  79.236  35.377  0.00  0.00    -0.308 N 
ATOM     25  H   LIG    1      -22.900  78.505  34.913  0.00  0.00    +0.149 HD
ATOM     26  O   LIG    1      -25.541  79.964  35.877  0.00  0.00    -0.270 OA
BRANCH  24  27
ATOM     27  C   LIG    1      -22.800  80.219  36.232  0.00  0.00    +0.076 C 
ATOM     28  C   LIG    1      -22.404  81.505  35.505  0.00  0.00    +0.053 C 
ATOM     29  C   LIG    1      -21.005  81.855  36.014  0.00  0.00    +0.116 C 
ATOM     30  C   LIG    1      -20.809  81.008  37.264  0.00  0.00    +0.033 C 
ATOM     31  C   LIG    1      -21.519  79.715  36.900  0.00  0.00    +0.025 C 
BRANCH  29  32
ATOM     32  O   LIG    1      -20.899  83.238  36.292  0.00  0.00    -0.392 OA
ATOM     33  H   LIG    1      -20.659  83.330  37.231  0.00  0.00    +0.210 HD
ENDBRANCH  29  32
ENDBRANCH  24  27
ENDBRANCH   4  23
TORSDOF 5
ENDMDL
MODEL 7
REMARK VINA RESULT:      -6.0     20.611     23.294
REMARK  Name = pdb/CHEMBL3676063.pdb
REMARK                            x       y       z     vdW  Elec       q    Type
REMARK                         _______ _______ _______ _____ _____    ______ ____
ROOT
ATOM      1  C   LIG    1      -20.481  79.050  33.920  0.00  0.00    +0.126 A 
ATOM      2  N   LIG    1      -21.271  78.479  33.029  0.00  0.00    -0.212 NA
ATOM      3  C   LIG    1      -20.687  77.864  31.941  0.00  0.00    +0.170 A 
ATOM      4  C   LIG    1      -21.198  77.194  30.835  0.00  0.00    +0.100 A 
ATOM      5  C   LIG    1      -20.058  76.811  30.096  0.00  0.00    +0.150 A 
ATOM      6  N   LIG    1      -18.913  77.191  30.653  0.00  0.00    -0.173 NA
ATOM      7  N   LIG    1      -19.296  77.834  31.777  0.00  0.00    -0.221 N 
ATOM      8  C   LIG    1      -18.461  78.421  32.706  0.00  0.00    +0.118 A 
ATOM      9  C   LIG    1      -18.973  79.023  33.780  0.00  0.00    +0.063 A 
ENDROOT
BRANCH   1  11
ATOM     10  C   LIG    1      -22.334  79.357  35.612  0.00  0.00    +0.107 C 
ATOM     11  N   LIG    1      -21.018  79.694  35.033  0.00  0.00    -0.308 N 
ATOM     12  C   LIG    1      -20.635  81.055  35.424  0.00  0.00    +0.107 C 
ATOM     13  C   LIG    1      -21.909  81.682  35.962  0.00  0.00    +0.021 C 
ATOM     14  C   LIG    1      -22.604  80.503  36.606  0.00  0.00    +0.029 C 
BRANCH  10  17
ATOM     15  C   LIG    1      -24.318  77.225  34.873  0.00  0.00    +0.066 C 
ATOM     16  C   LIG    1      -23.300  77.020  35.959  0.00  0.00    +0.043 A 
ATOM     17  C   LIG    1      -22.387  78.024  36.332  0.00  0.00    -0.003 A 
ATOM     18  C   LIG    1      -21.575  77.768  37.451  0.00  0.00    +0.047 A 
ATOM     19  C   LIG    1      -21.671  76.555  38.114  0.00  0.00    +0.142 A 
ATOM     20  F   LIG    1      -20.913  76.309  39.190  0.00  0.00    -0.204 F 
ATOM     21  C   LIG    1      -22.571  75.617  37.657  0.00  0.00    +0.149 A 
ATOM     22  N   LIG    1      -23.390  75.823  36.601  0.00  0.00    -0.257 NA
ENDBRANCH  10  17
ENDBRANCH   1  11
BRANCH   4  23
ATOM     23  C   LIG    1      -22.556  76.912  30.426  0.00  0.00    +0.249 C 
ATOM     24  N   LIG    1      -23.448  76.573  31.414  0.00  0.00    -0.308 N 
ATOM     25  H   LIG    1      -23.080  76.440  32.354  0.00  0.00    +0.149 HD
ATOM     26  O   LIG    1      -22.886  76.995  29.241  0.00  0.00    -0.270 OA
BRANCH  24  27
ATOM     27  C   LIG    1      -24.832  76.290  31.090  0.00  0.00    +0.076 C 
ATOM     28  C   LIG    1      -25.773  77.475  31.310  0.00  0.00    +0.053 C 
ATOM     29  C   LIG    1      -27.017  76.897  31.985  0.00  0.00    +0.116 C 
ATOM     30  C   LIG    1      -26.922  75.392  31.782  0.00  0.00    +0.033 C 
ATOM     31  C   LIG    1      -25.428  75.138  31.902  0.00  0.00    +0.025 C 
BRANCH  29  32
ATOM     32  O   LIG    1      -28.196  77.433  31.414  0.00  0.00    -0.392 OA
ATOM     33  H   LIG    1      -28.180  77.226  30.463  0.00  0.00    +0.210 HD
ENDBRANCH  29  32
ENDBRANCH  24  27
ENDBRANCH   4  23
TORSDOF 5
ENDMDL
MODEL 8
REMARK VINA RESULT:      -5.9     21.511     23.850
REMARK  Name = pdb/CHEMBL3676063.pdb
REMARK                            x       y       z     vdW  Elec       q    Type
REMARK                         _______ _______ _______ _____ _____    ______ ____
ROOT
ATOM      1  C   LIG    1      -24.445  73.002  31.922  0.00  0.00    +0.126 A 
ATOM      2  N   LIG    1      -23.754  74.035  31.478  0.00  0.00    -0.212 NA
ATOM      3  C   LIG    1      -24.429  75.212  31.229  0.00  0.00    +0.170 A 
ATOM      4  C   LIG    1      -24.033  76.458  30.759  0.00  0.00    +0.100 A 
ATOM      5  C   LIG    1      -25.221  77.221  30.733  0.00  0.00    +0.150 A 
ATOM      6  N   LIG    1      -26.292  76.547  31.140  0.00  0.00    -0.173 NA
ATOM      7  N   LIG    1      -25.810  75.322  31.442  0.00  0.00    -0.221 N 
ATOM      8  C   LIG    1      -26.541  74.250  31.912  0.00  0.00    +0.118 A 
ATOM      9  C   LIG    1      -25.936  73.092  32.176  0.00  0.00    +0.063 A 
ENDROOT
BRANCH   1  11
ATOM     10  C   LIG    1      -24.396  70.476  31.822  0.00  0.00    +0.107 C 
ATOM     11  N   LIG    1      -23.816  71.786  32.181  0.00  0.00    -0.308 N 
ATOM     12  C   LIG    1      -22.826  71.617  33.251  0.00  0.00    +0.107 C 
ATOM     13  C   LIG    1      -23.070  70.219  33.793  0.00  0.00    +0.021 C 
ATOM     14  C   LIG    1      -23.498  69.461  32.556  0.00  0.00    +0.029 C 
BRANCH  10  17
ATOM     15  C   LIG    1      -26.946  69.910  30.337  0.00  0.00    +0.066 C 
ATOM     16  C   LIG    1      -25.613  69.941  29.644  0.00  0.00    +0.043 A 
ATOM     17  C   LIG    1      -24.410  70.176  30.337  0.00  0.00    -0.003 A 
ATOM     18  C   LIG    1      -23.215  70.044  29.609  0.00  0.00    +0.047 A 
ATOM     19  C   LIG    1      -23.257  69.731  28.259  0.00  0.00    +0.142 A 
ATOM     20  F   LIG    1      -22.122  69.589  27.562  0.00  0.00    -0.204 F 
ATOM     21  C   LIG    1      -24.483  69.552  27.655  0.00  0.00    +0.149 A 
ATOM     22  N   LIG    1      -25.659  69.644  28.317  0.00  0.00    -0.257 NA
ENDBRANCH  10  17
ENDBRANCH   1  11
BRANCH   4  23
ATOM     23  C   LIG    1      -22.742  76.964  30.346  0.00  0.00    +0.249 C 
ATOM     24  N   LIG    1      -21.750  76.992  31.296  0.00  0.00    -0.308 N 
ATOM     25  H   LIG    1      -22.008  76.757  32.252  0.00  0.00    +0.149 HD
ATOM     26  O   LIG    1      -22.553  77.331  29.185  0.00  0.00    -0.270 OA
BRANCH  24  27
ATOM     27  C   LIG    1      -20.424  77.470  30.961  0.00  0.00    +0.076 C 
ATOM     28  C   LIG    1      -19.492  76.382  30.427  0.00  0.00    +0.053 C 
ATOM     29  C   LIG    1      -18.146  76.616  31.113  0.00  0.00    +0.116 C 
ATOM     30  C   LIG    1      -18.232  78.018  31.698  0.00  0.00    +0.033 C 
ATOM     31  C   LIG    1      -19.683  78.102  32.141  0.00  0.00    +0.025 C 
BRANCH  29  32
ATOM     32  O   LIG    1      -17.080  76.494  30.190  0.00  0.00    -0.392 OA
ATOM     33  H   LIG    1      -16.863  75.548  30.117  0.00  0.00    +0.210 HD
ENDBRANCH  29  32
ENDBRANCH  24  27
ENDBRANCH   4  23
TORSDOF 5
ENDMDL
MODEL 9
REMARK VINA RESULT:      -5.9     14.446     16.895
REMARK  Name = pdb/CHEMBL3676063.pdb
REMARK                            x       y       z     vdW  Elec       q    Type
REMARK                         _______ _______ _______ _____ _____    ______ ____
ROOT
ATOM      1  C   LIG    1      -22.907  86.164  11.982  0.00  0.00    +0.126 A 
ATOM      2  N   LIG    1      -23.119  84.861  12.016  0.00  0.00    -0.212 NA
ATOM      3  C   LIG    1      -23.752  84.276  10.940  0.00  0.00    +0.170 A 
ATOM      4  C   LIG    1      -24.135  82.972  10.651  0.00  0.00    +0.100 A 
ATOM      5  C   LIG    1      -24.742  83.054   9.379  0.00  0.00    +0.150 A 
ATOM      6  N   LIG    1      -24.762  84.285   8.880  0.00  0.00    -0.173 NA
ATOM      7  N   LIG    1      -24.159  85.031   9.831  0.00  0.00    -0.221 N 
ATOM      8  C   LIG    1      -23.936  86.392   9.782  0.00  0.00    +0.118 A 
ATOM      9  C   LIG    1      -23.322  87.006  10.793  0.00  0.00    +0.063 A 
ENDROOT
BRANCH   1  11
ATOM     10  C   LIG    1      -21.590  86.093  14.139  0.00  0.00    +0.107 C 
ATOM     11  N   LIG    1      -22.281  86.809  13.047  0.00  0.00    -0.308 N 
ATOM     12  C   LIG    1      -22.659  88.154  13.493  0.00  0.00    +0.107 C 
ATOM     13  C   LIG    1      -22.503  88.125  15.004  0.00  0.00    +0.021 C 
ATOM     14  C   LIG    1      -21.331  87.188  15.191  0.00  0.00    +0.029 C 
BRANCH  10  17
ATOM     15  C   LIG    1      -21.176  83.123  14.322  0.00  0.00    +0.066 C 
ATOM     16  C   LIG    1      -20.109  84.043  13.801  0.00  0.00    +0.043 A 
ATOM     17  C   LIG    1      -20.284  85.438  13.740  0.00  0.00    -0.003 A 
ATOM     18  C   LIG    1      -19.168  86.208  13.364  0.00  0.00    +0.047 A 
ATOM     19  C   LIG    1      -17.973  85.584  13.041  0.00  0.00    +0.142 A 
ATOM     20  F   LIG    1      -16.902  86.310  12.698  0.00  0.00    -0.204 F 
ATOM     21  C   LIG    1      -17.904  84.209  13.097  0.00  0.00    +0.149 A 
ATOM     22  N   LIG    1      -18.941  83.426  13.474  0.00  0.00    -0.257 NA
ENDBRANCH  10  17
ENDBRANCH   1  11
BRANCH   4  23
ATOM     23  C   LIG    1      -24.010  81.744  11.406  0.00  0.00    +0.249 C 
ATOM     24  N   LIG    1      -24.450  81.764  12.707  0.00  0.00    -0.308 N 
ATOM     25  H   LIG    1      -24.738  82.661  13.092  0.00  0.00    +0.149 HD
ATOM     26  O   LIG    1      -23.545  80.730  10.883  0.00  0.00    -0.270 OA
BRANCH  24  27
ATOM     27  C   LIG    1      -24.374  80.572  13.527  0.00  0.00    +0.076 C 
ATOM     28  C   LIG    1      -25.702  79.822  13.651  0.00  0.00    +0.053 C 
ATOM     29  C   LIG    1      -25.820  79.430  15.124  0.00  0.00    +0.116 C 
ATOM     30  C   LIG    1      -24.424  79.614  15.702  0.00  0.00    +0.033 C 
ATOM     31  C   LIG    1      -23.921  80.843  14.963  0.00  0.00    +0.025 C 
BRANCH  29  32
ATOM     32  O   LIG    1      -26.274  78.096  15.257  0.00  0.00    -0.392 OA
ATOM     33  H   LIG    1      -25.730  77.542  14.670  0.00  0.00    +0.210 HD
ENDBRANCH  29  32
ENDBRANCH  24  27
ENDBRANCH   4  23
TORSDOF 5
ENDMDL
