MODEL 1
REMARK VINA RESULT:      -5.8      0.000      0.000
REMARK  Name = pdb/CHEMBL3676074.pdb
REMARK                            x       y       z     vdW  Elec       q    Type
REMARK                         _______ _______ _______ _____ _____    ______ ____
ROOT
ATOM      1  C   LIG    1      -22.288  80.375  34.861  0.00  0.00    +0.105 C 
ATOM      2  N   LIG    1      -20.851  80.161  35.104  0.00  0.00    -0.308 N 
ATOM      3  C   LIG    1      -20.399  80.985  36.222  0.00  0.00    +0.107 C 
ATOM      4  C   LIG    1      -21.442  82.095  36.312  0.00  0.00    +0.021 C 
ATOM      5  C   LIG    1      -22.721  81.356  35.972  0.00  0.00    +0.029 C 
ENDROOT
BRANCH   2   6
ATOM      6  C   LIG    1      -20.018  79.268  34.439  0.00  0.00    +0.126 A 
ATOM      7  N   LIG    1      -20.364  78.858  33.230  0.00  0.00    -0.212 NA
ATOM      8  C   LIG    1      -19.489  78.054  32.537  0.00  0.00    +0.170 A 
ATOM      9  C   LIG    1      -19.557  77.430  31.296  0.00  0.00    +0.100 A 
ATOM     10  C   LIG    1      -18.290  76.820  31.147  0.00  0.00    +0.150 A 
ATOM     11  N   LIG    1      -17.500  76.965  32.209  0.00  0.00    -0.173 NA
ATOM     12  N   LIG    1      -18.249  77.683  33.079  0.00  0.00    -0.221 N 
ATOM     13  C   LIG    1      -17.923  78.018  34.385  0.00  0.00    +0.118 A 
ATOM     14  C   LIG    1      -18.755  78.773  35.114  0.00  0.00    +0.063 A 
BRANCH   9  15
ATOM     15  C   LIG    1      -20.635  77.356  30.329  0.00  0.00    +0.249 C 
ATOM     16  N   LIG    1      -21.910  77.597  30.784  0.00  0.00    -0.308 N 
ATOM     17  H   LIG    1      -22.016  77.798  31.777  0.00  0.00    +0.149 HD
ATOM     18  O   LIG    1      -20.402  77.050  29.148  0.00  0.00    -0.270 OA
BRANCH  16  19
ATOM     19  C   LIG    1      -23.077  77.405  29.971  0.00  0.00    +0.073 C 
ATOM     20  C   LIG    1      -24.402  78.042  30.278  0.00  0.00    +0.024 C 
ATOM     21  C   LIG    1      -24.210  76.572  30.513  0.00  0.00    +0.024 C 
ENDBRANCH  16  19
ENDBRANCH   9  15
ENDBRANCH   2   6
BRANCH   1  24
ATOM     22  C   LIG    1      -25.081  77.846  34.128  0.00  0.00    +0.124 A 
ATOM     23  C   LIG    1      -24.253  78.979  34.072  0.00  0.00    +0.051 A 
ATOM     24  C   LIG    1      -23.137  79.117  34.928  0.00  0.00    -0.021 A 
ATOM     25  C   LIG    1      -22.892  78.102  35.866  0.00  0.00    +0.044 A 
ATOM     26  C   LIG    1      -23.725  76.993  35.927  0.00  0.00    +0.127 A 
ATOM     27  F   LIG    1      -23.480  76.026  36.821  0.00  0.00    -0.205 F 
ATOM     28  C   LIG    1      -24.813  76.861  35.078  0.00  0.00    +0.084 A 
BRANCH  22  29
ATOM     29  O   LIG    1      -26.112  77.793  33.217  0.00  0.00    -0.489 OA
BRANCH  29  30
ATOM     30  C   LIG    1      -26.864  76.564  33.229  0.00  0.00    +0.262 C 
BRANCH  30  31
ATOM     31  C   LIG    1      -27.970  76.603  32.166  0.00  0.00    +0.177 C 
BRANCH  31  32
ATOM     32  O   LIG    1      -27.789  77.715  31.286  0.00  0.00    -0.386 OA
ATOM     33  H   LIG    1      -26.881  78.041  31.435  0.00  0.00    +0.210 HD
ENDBRANCH  31  32
BRANCH  31  34
ATOM     34  C   LIG    1      -29.349  76.712  32.826  0.00  0.00    +0.190 C 
BRANCH  34  35
ATOM     35  O   LIG    1      -29.738  78.068  33.013  0.00  0.00    -0.392 OA
ATOM     36  H   LIG    1      -30.683  78.071  33.247  0.00  0.00    +0.210 HD
ENDBRANCH  34  35
ENDBRANCH  31  34
ENDBRANCH  30  31
ENDBRANCH  29  30
ENDBRANCH  22  29
ENDBRANCH   1  24
TORSDOF 10
ENDMDL
MODEL 2
REMARK VINA RESULT:      -5.7     13.384     18.320
REMARK  Name = pdb/CHEMBL3676074.pdb
REMARK                            x       y       z     vdW  Elec       q    Type
REMARK                         _______ _______ _______ _____ _____    ______ ____
ROOT
ATOM      1  C   LIG    1      -39.644  77.085  25.832  0.00  0.00    +0.105 C 
ATOM      2  N   LIG    1      -39.900  76.527  24.493  0.00  0.00    -0.308 N 
ATOM      3  C   LIG    1      -39.808  77.577  23.481  0.00  0.00    +0.107 C 
ATOM      4  C   LIG    1      -40.023  78.868  24.264  0.00  0.00    +0.021 C 
ATOM      5  C   LIG    1      -39.311  78.570  25.569  0.00  0.00    +0.029 C 
ENDROOT
BRANCH   2   6
ATOM      6  C   LIG    1      -40.133  75.193  24.178  0.00  0.00    +0.126 A 
ATOM      7  N   LIG    1      -39.222  74.294  24.512  0.00  0.00    -0.212 NA
ATOM      8  C   LIG    1      -39.502  72.966  24.288  0.00  0.00    +0.170 A 
ATOM      9  C   LIG    1      -38.769  71.800  24.477  0.00  0.00    +0.100 A 
ATOM     10  C   LIG    1      -39.667  70.767  24.124  0.00  0.00    +0.150 A 
ATOM     11  N   LIG    1      -40.842  71.210  23.680  0.00  0.00    -0.173 NA
ATOM     12  N   LIG    1      -40.727  72.558  23.737  0.00  0.00    -0.221 N 
ATOM     13  C   LIG    1      -41.643  73.496  23.287  0.00  0.00    +0.118 A 
ATOM     14  C   LIG    1      -41.404  74.803  23.452  0.00  0.00    +0.063 A 
BRANCH   9  15
ATOM     15  C   LIG    1      -37.400  71.599  24.912  0.00  0.00    +0.249 C 
ATOM     16  N   LIG    1      -37.149  71.675  26.261  0.00  0.00    -0.308 N 
ATOM     17  H   LIG    1      -37.940  71.882  26.868  0.00  0.00    +0.149 HD
ATOM     18  O   LIG    1      -36.498  71.404  24.082  0.00  0.00    -0.270 OA
BRANCH  16  19
ATOM     19  C   LIG    1      -35.822  71.650  26.810  0.00  0.00    +0.073 C 
ATOM     20  C   LIG    1      -35.106  70.378  27.163  0.00  0.00    +0.024 C 
ATOM     21  C   LIG    1      -35.641  71.259  28.254  0.00  0.00    +0.024 C 
ENDBRANCH  16  19
ENDBRANCH   9  15
ENDBRANCH   2   6
BRANCH   1  24
ATOM     22  C   LIG    1      -36.086  76.258  27.010  0.00  0.00    +0.124 A 
ATOM     23  C   LIG    1      -37.173  76.862  26.358  0.00  0.00    +0.051 A 
ATOM     24  C   LIG    1      -38.499  76.429  26.585  0.00  0.00    -0.021 A 
ATOM     25  C   LIG    1      -38.703  75.351  27.460  0.00  0.00    +0.044 A 
ATOM     26  C   LIG    1      -37.622  74.748  28.088  0.00  0.00    +0.127 A 
ATOM     27  F   LIG    1      -37.828  73.723  28.926  0.00  0.00    -0.205 F 
ATOM     28  C   LIG    1      -36.325  75.184  27.866  0.00  0.00    +0.084 A 
BRANCH  22  29
ATOM     29  O   LIG    1      -34.843  76.789  26.751  0.00  0.00    -0.489 OA
BRANCH  29  30
ATOM     30  C   LIG    1      -34.245  77.492  27.859  0.00  0.00    +0.262 C 
BRANCH  30  31
ATOM     31  C   LIG    1      -32.718  77.513  27.717  0.00  0.00    +0.177 C 
BRANCH  31  32
ATOM     32  O   LIG    1      -32.088  77.456  29.000  0.00  0.00    -0.386 OA
ATOM     33  H   LIG    1      -32.781  77.197  29.637  0.00  0.00    +0.210 HD
ENDBRANCH  31  32
BRANCH  31  34
ATOM     34  C   LIG    1      -32.259  78.786  26.997  0.00  0.00    +0.190 C 
BRANCH  34  35
ATOM     35  O   LIG    1      -32.417  78.678  25.587  0.00  0.00    -0.392 OA
ATOM     36  H   LIG    1      -33.197  78.120  25.423  0.00  0.00    +0.210 HD
ENDBRANCH  34  35
ENDBRANCH  31  34
ENDBRANCH  30  31
ENDBRANCH  29  30
ENDBRANCH  22  29
ENDBRANCH   1  24
TORSDOF 10
ENDMDL
MODEL 3
REMARK VINA RESULT:      -5.4     12.544     17.491
REMARK  Name = pdb/CHEMBL3676074.pdb
REMARK                            x       y       z     vdW  Elec       q    Type
REMARK                         _______ _______ _______ _____ _____    ______ ____
ROOT
ATOM      1  C   LIG    1      -38.775  76.889  24.561  0.00  0.00    +0.105 C 
ATOM      2  N   LIG    1      -39.174  77.553  25.814  0.00  0.00    -0.308 N 
ATOM      3  C   LIG    1      -40.098  78.649  25.535  0.00  0.00    +0.107 C 
ATOM      4  C   LIG    1      -39.840  78.988  24.069  0.00  0.00    +0.021 C 
ATOM      5  C   LIG    1      -39.585  77.620  23.468  0.00  0.00    +0.029 C 
ENDROOT
BRANCH   2   6
ATOM      6  C   LIG    1      -38.807  77.185  27.104  0.00  0.00    +0.126 A 
ATOM      7  N   LIG    1      -37.525  77.209  27.430  0.00  0.00    -0.212 NA
ATOM      8  C   LIG    1      -37.178  76.941  28.734  0.00  0.00    +0.170 A 
ATOM      9  C   LIG    1      -35.953  76.844  29.385  0.00  0.00    +0.100 A 
ATOM     10  C   LIG    1      -36.299  76.625  30.738  0.00  0.00    +0.150 A 
ATOM     11  N   LIG    1      -37.610  76.515  30.943  0.00  0.00    -0.173 NA
ATOM     12  N   LIG    1      -38.148  76.664  29.709  0.00  0.00    -0.221 N 
ATOM     13  C   LIG    1      -39.482  76.531  29.356  0.00  0.00    +0.118 A 
ATOM     14  C   LIG    1      -39.869  76.751  28.093  0.00  0.00    +0.063 A 
BRANCH   9  15
ATOM     15  C   LIG    1      -34.597  76.920  28.875  0.00  0.00    +0.249 C 
ATOM     16  N   LIG    1      -34.382  77.706  27.768  0.00  0.00    -0.308 N 
ATOM     17  H   LIG    1      -35.194  78.175  27.369  0.00  0.00    +0.149 HD
ATOM     18  O   LIG    1      -33.687  76.265  29.407  0.00  0.00    -0.270 OA
BRANCH  16  19
ATOM     19  C   LIG    1      -33.127  77.747  27.073  0.00  0.00    +0.073 C 
ATOM     20  C   LIG    1      -31.892  78.378  27.649  0.00  0.00    +0.024 C 
ATOM     21  C   LIG    1      -32.634  79.068  26.541  0.00  0.00    +0.024 C 
ENDBRANCH  16  19
ENDBRANCH   9  15
ENDBRANCH   2   6
BRANCH   1  24
ATOM     22  C   LIG    1      -38.331  73.092  24.911  0.00  0.00    +0.124 A 
ATOM     23  C   LIG    1      -38.107  74.477  24.973  0.00  0.00    +0.051 A 
ATOM     24  C   LIG    1      -39.072  75.400  24.509  0.00  0.00    -0.021 A 
ATOM     25  C   LIG    1      -40.256  74.895  23.950  0.00  0.00    +0.044 A 
ATOM     26  C   LIG    1      -40.463  73.524  23.876  0.00  0.00    +0.127 A 
ATOM     27  F   LIG    1      -41.600  73.052  23.346  0.00  0.00    -0.205 F 
ATOM     28  C   LIG    1      -39.515  72.626  24.341  0.00  0.00    +0.084 A 
BRANCH  22  29
ATOM     29  O   LIG    1      -37.345  72.287  25.433  0.00  0.00    -0.489 OA
BRANCH  29  30
ATOM     30  C   LIG    1      -37.225  72.337  26.869  0.00  0.00    +0.262 C 
BRANCH  30  31
ATOM     31  C   LIG    1      -35.832  71.864  27.305  0.00  0.00    +0.177 C 
BRANCH  31  32
ATOM     32  O   LIG    1      -34.887  72.935  27.235  0.00  0.00    -0.386 OA
ATOM     33  H   LIG    1      -34.874  73.351  28.117  0.00  0.00    +0.210 HD
ENDBRANCH  31  32
BRANCH  31  34
ATOM     34  C   LIG    1      -35.347  70.716  26.413  0.00  0.00    +0.190 C 
BRANCH  34  35
ATOM     35  O   LIG    1      -34.596  71.192  25.303  0.00  0.00    -0.392 OA
ATOM     36  H   LIG    1      -33.682  71.332  25.606  0.00  0.00    +0.210 HD
ENDBRANCH  34  35
ENDBRANCH  31  34
ENDBRANCH  30  31
ENDBRANCH  29  30
ENDBRANCH  22  29
ENDBRANCH   1  24
TORSDOF 10
ENDMDL
MODEL 4
REMARK VINA RESULT:      -5.4     18.061     20.935
REMARK  Name = pdb/CHEMBL3676074.pdb
REMARK                            x       y       z     vdW  Elec       q    Type
REMARK                         _______ _______ _______ _____ _____    ______ ____
ROOT
ATOM      1  C   LIG    1      -23.576  81.193  12.883  0.00  0.00    +0.105 C 
ATOM      2  N   LIG    1      -23.137  82.399  12.160  0.00  0.00    -0.308 N 
ATOM      3  C   LIG    1      -24.273  83.283  11.913  0.00  0.00    +0.107 C 
ATOM      4  C   LIG    1      -25.488  82.366  12.015  0.00  0.00    +0.021 C 
ATOM      5  C   LIG    1      -25.082  81.427  13.134  0.00  0.00    +0.029 C 
ENDROOT
BRANCH   2   6
ATOM      6  C   LIG    1      -21.834  82.726  11.802  0.00  0.00    +0.126 A 
ATOM      7  N   LIG    1      -21.243  83.739  12.414  0.00  0.00    -0.212 NA
ATOM      8  C   LIG    1      -19.921  83.994  12.128  0.00  0.00    +0.170 A 
ATOM      9  C   LIG    1      -19.036  84.979  12.550  0.00  0.00    +0.100 A 
ATOM     10  C   LIG    1      -17.810  84.622  11.944  0.00  0.00    +0.150 A 
ATOM     11  N   LIG    1      -17.897  83.558  11.149  0.00  0.00    -0.173 NA
ATOM     12  N   LIG    1      -19.200  83.198  11.225  0.00  0.00    -0.221 N 
ATOM     13  C   LIG    1      -19.837  82.202  10.500  0.00  0.00    +0.118 A 
ATOM     14  C   LIG    1      -21.131  81.935  10.717  0.00  0.00    +0.063 A 
BRANCH   9  15
ATOM     15  C   LIG    1      -19.239  86.140  13.395  0.00  0.00    +0.249 C 
ATOM     16  N   LIG    1      -20.390  86.181  14.145  0.00  0.00    -0.308 N 
ATOM     17  H   LIG    1      -21.033  85.398  14.048  0.00  0.00    +0.149 HD
ATOM     18  O   LIG    1      -18.414  87.068  13.399  0.00  0.00    -0.270 OA
BRANCH  16  19
ATOM     19  C   LIG    1      -20.787  87.336  14.900  0.00  0.00    +0.073 C 
ATOM     20  C   LIG    1      -21.786  87.276  16.021  0.00  0.00    +0.024 C 
ATOM     21  C   LIG    1      -22.177  87.887  14.707  0.00  0.00    +0.024 C 
ENDBRANCH  16  19
ENDBRANCH   9  15
ENDBRANCH   2   6
BRANCH   1  24
ATOM     22  C   LIG    1      -21.372  79.558  15.566  0.00  0.00    +0.124 A 
ATOM     23  C   LIG    1      -22.018  79.832  14.350  0.00  0.00    +0.051 A 
ATOM     24  C   LIG    1      -22.868  80.952  14.205  0.00  0.00    -0.021 A 
ATOM     25  C   LIG    1      -23.077  81.774  15.324  0.00  0.00    +0.044 A 
ATOM     26  C   LIG    1      -22.449  81.487  16.527  0.00  0.00    +0.127 A 
ATOM     27  F   LIG    1      -22.651  82.280  17.588  0.00  0.00    -0.205 F 
ATOM     28  C   LIG    1      -21.611  80.390  16.659  0.00  0.00    +0.084 A 
BRANCH  22  29
ATOM     29  O   LIG    1      -20.531  78.468  15.583  0.00  0.00    -0.489 OA
BRANCH  29  30
ATOM     30  C   LIG    1      -19.215  78.731  16.109  0.00  0.00    +0.262 C 
BRANCH  30  31
ATOM     31  C   LIG    1      -18.295  79.267  15.004  0.00  0.00    +0.177 C 
BRANCH  31  32
ATOM     32  O   LIG    1      -17.371  78.261  14.580  0.00  0.00    -0.386 OA
ATOM     33  H   LIG    1      -17.831  77.405  14.675  0.00  0.00    +0.210 HD
ENDBRANCH  31  32
BRANCH  31  34
ATOM     34  C   LIG    1      -17.508  80.486  15.499  0.00  0.00    +0.190 C 
BRANCH  34  35
ATOM     35  O   LIG    1      -18.002  80.960  16.746  0.00  0.00    -0.392 OA
ATOM     36  H   LIG    1      -18.828  81.442  16.569  0.00  0.00    +0.210 HD
ENDBRANCH  34  35
ENDBRANCH  31  34
ENDBRANCH  30  31
ENDBRANCH  29  30
ENDBRANCH  22  29
ENDBRANCH   1  24
TORSDOF 10
ENDMDL
MODEL 5
REMARK VINA RESULT:      -5.4     16.984     20.662
REMARK  Name = pdb/CHEMBL3676074.pdb
REMARK                            x       y       z     vdW  Elec       q    Type
REMARK                         _______ _______ _______ _____ _____    ______ ____
ROOT
ATOM      1  C   LIG    1      -36.670  66.150  20.224  0.00  0.00    +0.105 C 
ATOM      2  N   LIG    1      -35.722  66.598  19.189  0.00  0.00    -0.308 N 
ATOM      3  C   LIG    1      -36.246  67.771  18.495  0.00  0.00    +0.107 C 
ATOM      4  C   LIG    1      -37.750  67.712  18.749  0.00  0.00    +0.021 C 
ATOM      5  C   LIG    1      -37.811  67.189  20.170  0.00  0.00    +0.029 C 
ENDROOT
BRANCH   2   6
ATOM      6  C   LIG    1      -34.469  66.058  18.919  0.00  0.00    +0.126 A 
ATOM      7  N   LIG    1      -33.424  66.868  18.883  0.00  0.00    -0.212 NA
ATOM      8  C   LIG    1      -32.175  66.315  18.714  0.00  0.00    +0.170 A 
ATOM      9  C   LIG    1      -30.905  66.868  18.593  0.00  0.00    +0.100 A 
ATOM     10  C   LIG    1      -30.047  65.746  18.527  0.00  0.00    +0.150 A 
ATOM     11  N   LIG    1      -30.690  64.581  18.532  0.00  0.00    -0.173 NA
ATOM     12  N   LIG    1      -31.997  64.928  18.601  0.00  0.00    -0.221 N 
ATOM     13  C   LIG    1      -33.093  64.081  18.531  0.00  0.00    +0.118 A 
ATOM     14  C   LIG    1      -34.332  64.572  18.658  0.00  0.00    +0.063 A 
BRANCH   9  15
ATOM     15  C   LIG    1      -30.474  68.251  18.523  0.00  0.00    +0.249 C 
ATOM     16  N   LIG    1      -31.386  69.174  18.069  0.00  0.00    -0.308 N 
ATOM     17  H   LIG    1      -32.303  68.823  17.797  0.00  0.00    +0.149 HD
ATOM     18  O   LIG    1      -29.313  68.565  18.829  0.00  0.00    -0.270 OA
BRANCH  16  19
ATOM     19  C   LIG    1      -31.043  70.543  17.805  0.00  0.00    +0.073 C 
ATOM     20  C   LIG    1      -32.071  71.614  17.577  0.00  0.00    +0.024 C 
ATOM     21  C   LIG    1      -31.269  71.094  16.421  0.00  0.00    +0.024 C 
ENDBRANCH  16  19
ENDBRANCH   9  15
ENDBRANCH   2   6
BRANCH   1  24
ATOM     22  C   LIG    1      -35.152  67.270  23.566  0.00  0.00    +0.124 A 
ATOM     23  C   LIG    1      -35.717  67.286  22.280  0.00  0.00    +0.051 A 
ATOM     24  C   LIG    1      -36.096  66.091  21.629  0.00  0.00    -0.021 A 
ATOM     25  C   LIG    1      -35.863  64.875  22.289  0.00  0.00    +0.044 A 
ATOM     26  C   LIG    1      -35.289  64.866  23.552  0.00  0.00    +0.127 A 
ATOM     27  F   LIG    1      -35.076  63.700  24.177  0.00  0.00    -0.205 F 
ATOM     28  C   LIG    1      -34.927  66.043  24.188  0.00  0.00    +0.084 A 
BRANCH  22  29
ATOM     29  O   LIG    1      -34.863  68.495  24.125  0.00  0.00    -0.489 OA
BRANCH  29  30
ATOM     30  C   LIG    1      -35.357  68.675  25.468  0.00  0.00    +0.262 C 
BRANCH  30  31
ATOM     31  C   LIG    1      -35.901  70.098  25.650  0.00  0.00    +0.177 C 
BRANCH  31  32
ATOM     32  O   LIG    1      -36.465  70.586  24.431  0.00  0.00    -0.386 OA
ATOM     33  H   LIG    1      -36.063  71.461  24.270  0.00  0.00    +0.210 HD
ENDBRANCH  31  32
BRANCH  31  34
ATOM     34  C   LIG    1      -34.786  71.050  26.097  0.00  0.00    +0.190 C 
BRANCH  34  35
ATOM     35  O   LIG    1      -33.778  71.184  25.101  0.00  0.00    -0.392 OA
ATOM     36  H   LIG    1      -33.572  70.291  24.773  0.00  0.00    +0.210 HD
ENDBRANCH  34  35
ENDBRANCH  31  34
ENDBRANCH  30  31
ENDBRANCH  29  30
ENDBRANCH  22  29
ENDBRANCH   1  24
TORSDOF 10
ENDMDL
MODEL 6
REMARK VINA RESULT:      -5.3     18.087     20.687
REMARK  Name = pdb/CHEMBL3676074.pdb
REMARK                            x       y       z     vdW  Elec       q    Type
REMARK                         _______ _______ _______ _____ _____    ______ ____
ROOT
ATOM      1  C   LIG    1      -20.604  81.122  13.885  0.00  0.00    +0.105 C 
ATOM      2  N   LIG    1      -21.376  79.935  13.477  0.00  0.00    -0.308 N 
ATOM      3  C   LIG    1      -20.712  78.717  13.934  0.00  0.00    +0.107 C 
ATOM      4  C   LIG    1      -19.264  79.144  14.156  0.00  0.00    +0.021 C 
ATOM      5  C   LIG    1      -19.427  80.548  14.704  0.00  0.00    +0.029 C 
ENDROOT
BRANCH   2   6
ATOM      6  C   LIG    1      -22.597  79.926  12.812  0.00  0.00    +0.126 A 
ATOM      7  N   LIG    1      -23.568  79.159  13.280  0.00  0.00    -0.212 NA
ATOM      8  C   LIG    1      -24.803  79.229  12.678  0.00  0.00    +0.170 A 
ATOM      9  C   LIG    1      -25.997  78.549  12.887  0.00  0.00    +0.100 A 
ATOM     10  C   LIG    1      -26.902  79.155  11.985  0.00  0.00    +0.150 A 
ATOM     11  N   LIG    1      -26.344  80.085  11.214  0.00  0.00    -0.173 NA
ATOM     12  N   LIG    1      -25.048  80.101  11.605  0.00  0.00    -0.221 N 
ATOM     13  C   LIG    1      -24.011  80.829  11.041  0.00  0.00    +0.118 A 
ATOM     14  C   LIG    1      -22.782  80.772  11.569  0.00  0.00    +0.063 A 
BRANCH   9  15
ATOM     15  C   LIG    1      -26.322  77.454  13.781  0.00  0.00    +0.249 C 
ATOM     16  N   LIG    1      -26.664  76.252  13.210  0.00  0.00    -0.308 N 
ATOM     17  H   LIG    1      -26.681  76.212  12.192  0.00  0.00    +0.149 HD
ATOM     18  O   LIG    1      -26.322  77.625  15.011  0.00  0.00    -0.270 OA
BRANCH  16  19
ATOM     19  C   LIG    1      -27.155  75.138  13.971  0.00  0.00    +0.073 C 
ATOM     20  C   LIG    1      -26.359  73.884  14.193  0.00  0.00    +0.024 C 
ATOM     21  C   LIG    1      -27.523  73.869  13.247  0.00  0.00    +0.024 C 
ENDBRANCH  16  19
ENDBRANCH   9  15
ENDBRANCH   2   6
BRANCH   1  24
ATOM     22  C   LIG    1      -22.314  84.378  14.983  0.00  0.00    +0.124 A 
ATOM     23  C   LIG    1      -21.633  83.415  14.221  0.00  0.00    +0.051 A 
ATOM     24  C   LIG    1      -21.375  82.122  14.729  0.00  0.00    -0.021 A 
ATOM     25  C   LIG    1      -21.792  81.830  16.037  0.00  0.00    +0.044 A 
ATOM     26  C   LIG    1      -22.449  82.792  16.791  0.00  0.00    +0.127 A 
ATOM     27  F   LIG    1      -22.848  82.501  18.037  0.00  0.00    -0.205 F 
ATOM     28  C   LIG    1      -22.705  84.056  16.282  0.00  0.00    +0.084 A 
BRANCH  22  29
ATOM     29  O   LIG    1      -22.552  85.589  14.373  0.00  0.00    -0.489 OA
BRANCH  29  30
ATOM     30  C   LIG    1      -21.446  86.103  13.604  0.00  0.00    +0.262 C 
BRANCH  30  31
ATOM     31  C   LIG    1      -20.985  87.453  14.167  0.00  0.00    +0.177 C 
BRANCH  31  32
ATOM     32  O   LIG    1      -19.845  87.286  15.015  0.00  0.00    -0.386 OA
ATOM     33  H   LIG    1      -20.127  86.704  15.746  0.00  0.00    +0.210 HD
ENDBRANCH  31  32
BRANCH  31  34
ATOM     34  C   LIG    1      -22.108  88.116  14.972  0.00  0.00    +0.190 C 
BRANCH  34  35
ATOM     35  O   LIG    1      -21.976  87.865  16.366  0.00  0.00    -0.392 OA
ATOM     36  H   LIG    1      -22.359  88.626  16.837  0.00  0.00    +0.210 HD
ENDBRANCH  34  35
ENDBRANCH  31  34
ENDBRANCH  30  31
ENDBRANCH  29  30
ENDBRANCH  22  29
ENDBRANCH   1  24
TORSDOF 10
ENDMDL
MODEL 7
REMARK VINA RESULT:      -5.3      2.435      5.737
REMARK  Name = pdb/CHEMBL3676074.pdb
REMARK                            x       y       z     vdW  Elec       q    Type
REMARK                         _______ _______ _______ _____ _____    ______ ____
ROOT
ATOM      1  C   LIG    1      -19.442  78.821  32.790  0.00  0.00    +0.105 C 
ATOM      2  N   LIG    1      -19.815  77.821  31.775  0.00  0.00    -0.308 N 
ATOM      3  C   LIG    1      -18.632  77.094  31.322  0.00  0.00    +0.107 C 
ATOM      4  C   LIG    1      -17.470  78.018  31.672  0.00  0.00    +0.021 C 
ATOM      5  C   LIG    1      -17.924  78.613  32.990  0.00  0.00    +0.029 C 
ENDROOT
BRANCH   2   6
ATOM      6  C   LIG    1      -21.099  77.527  31.329  0.00  0.00    +0.126 A 
ATOM      7  N   LIG    1      -22.105  77.627  32.183  0.00  0.00    -0.212 NA
ATOM      8  C   LIG    1      -23.383  77.433  31.712  0.00  0.00    +0.170 A 
ATOM      9  C   LIG    1      -24.628  77.424  32.331  0.00  0.00    +0.100 A 
ATOM     10  C   LIG    1      -25.541  77.247  31.266  0.00  0.00    +0.150 A 
ATOM     11  N   LIG    1      -24.954  77.083  30.082  0.00  0.00    -0.173 NA
ATOM     12  N   LIG    1      -23.631  77.152  30.359  0.00  0.00    -0.221 N 
ATOM     13  C   LIG    1      -22.579  76.940  29.480  0.00  0.00    +0.118 A 
ATOM     14  C   LIG    1      -21.315  77.086  29.896  0.00  0.00    +0.063 A 
BRANCH   9  15
ATOM     15  C   LIG    1      -24.994  77.542  33.729  0.00  0.00    +0.249 C 
ATOM     16  N   LIG    1      -24.257  76.821  34.638  0.00  0.00    -0.308 N 
ATOM     17  H   LIG    1      -23.509  76.237  34.268  0.00  0.00    +0.149 HD
ATOM     18  O   LIG    1      -25.960  78.244  34.070  0.00  0.00    -0.270 OA
BRANCH  16  19
ATOM     19  C   LIG    1      -24.608  76.727  36.027  0.00  0.00    +0.073 C 
ATOM     20  C   LIG    1      -23.883  75.836  36.995  0.00  0.00    +0.024 C 
ATOM     21  C   LIG    1      -25.260  75.463  36.527  0.00  0.00    +0.024 C 
ENDBRANCH  16  19
ENDBRANCH   9  15
ENDBRANCH   2   6
BRANCH   1  24
ATOM     22  C   LIG    1      -21.642  79.632  35.828  0.00  0.00    +0.124 A 
ATOM     23  C   LIG    1      -20.989  79.718  34.588  0.00  0.00    +0.051 A 
ATOM     24  C   LIG    1      -20.159  78.674  34.121  0.00  0.00    -0.021 A 
ATOM     25  C   LIG    1      -19.977  77.553  34.946  0.00  0.00    +0.044 A 
ATOM     26  C   LIG    1      -20.612  77.483  36.178  0.00  0.00    +0.127 A 
ATOM     27  F   LIG    1      -20.436  76.407  36.956  0.00  0.00    -0.205 F 
ATOM     28  C   LIG    1      -21.430  78.508  36.626  0.00  0.00    +0.084 A 
BRANCH  22  29
ATOM     29  O   LIG    1      -22.462  80.686  36.164  0.00  0.00    -0.489 OA
BRANCH  29  30
ATOM     30  C   LIG    1      -23.266  80.471  37.341  0.00  0.00    +0.262 C 
BRANCH  30  31
ATOM     31  C   LIG    1      -24.725  80.865  37.071  0.00  0.00    +0.177 C 
BRANCH  31  32
ATOM     32  O   LIG    1      -25.141  80.416  35.780  0.00  0.00    -0.386 OA
ATOM     33  H   LIG    1      -26.103  80.574  35.728  0.00  0.00    +0.210 HD
ENDBRANCH  31  32
BRANCH  31  34
ATOM     34  C   LIG    1      -24.896  82.387  37.146  0.00  0.00    +0.190 C 
BRANCH  34  35
ATOM     35  O   LIG    1      -24.018  83.060  36.251  0.00  0.00    -0.392 OA
ATOM     36  H   LIG    1      -24.357  82.919  35.349  0.00  0.00    +0.210 HD
ENDBRANCH  34  35
ENDBRANCH  31  34
ENDBRANCH  30  31
ENDBRANCH  29  30
ENDBRANCH  22  29
ENDBRANCH   1  24
TORSDOF 10
ENDMDL
MODEL 8
REMARK VINA RESULT:      -5.2     17.897     20.645
REMARK  Name = pdb/CHEMBL3676074.pdb
REMARK                            x       y       z     vdW  Elec       q    Type
REMARK                         _______ _______ _______ _____ _____    ______ ____
ROOT
ATOM      1  C   LIG    1      -22.108  81.350  15.257  0.00  0.00    +0.105 C 
ATOM      2  N   LIG    1      -20.756  81.076  14.739  0.00  0.00    -0.308 N 
ATOM      3  C   LIG    1      -20.178  79.920  15.418  0.00  0.00    +0.107 C 
ATOM      4  C   LIG    1      -20.967  79.821  16.721  0.00  0.00    +0.021 C 
ATOM      5  C   LIG    1      -22.361  80.219  16.277  0.00  0.00    +0.029 C 
ENDROOT
BRANCH   2   6
ATOM      6  C   LIG    1      -20.109  81.748  13.708  0.00  0.00    +0.126 A 
ATOM      7  N   LIG    1      -19.882  83.044  13.840  0.00  0.00    -0.212 NA
ATOM      8  C   LIG    1      -19.154  83.683  12.863  0.00  0.00    +0.170 A 
ATOM      9  C   LIG    1      -18.781  85.010  12.676  0.00  0.00    +0.100 A 
ATOM     10  C   LIG    1      -17.972  84.980  11.517  0.00  0.00    +0.150 A 
ATOM     11  N   LIG    1      -17.882  83.774  10.959  0.00  0.00    -0.173 NA
ATOM     12  N   LIG    1      -18.642  82.987  11.757  0.00  0.00    -0.221 N 
ATOM     13  C   LIG    1      -18.963  81.653  11.555  0.00  0.00    +0.118 A 
ATOM     14  C   LIG    1      -19.697  80.993  12.461  0.00  0.00    +0.063 A 
BRANCH   9  15
ATOM     15  C   LIG    1      -19.112  86.204  13.429  0.00  0.00    +0.249 C 
ATOM     16  N   LIG    1      -20.253  86.172  14.194  0.00  0.00    -0.308 N 
ATOM     17  H   LIG    1      -20.801  85.314  14.171  0.00  0.00    +0.149 HD
ATOM     18  O   LIG    1      -18.401  87.218  13.345  0.00  0.00    -0.270 OA
BRANCH  16  19
ATOM     19  C   LIG    1      -20.777  87.330  14.862  0.00  0.00    +0.073 C 
ATOM     20  C   LIG    1      -21.929  87.269  15.824  0.00  0.00    +0.024 C 
ATOM     21  C   LIG    1      -22.130  87.853  14.456  0.00  0.00    +0.024 C 
ENDBRANCH  16  19
ENDBRANCH   9  15
ENDBRANCH   2   6
BRANCH   1  24
ATOM     22  C   LIG    1      -24.749  80.072  12.782  0.00  0.00    +0.124 A 
ATOM     23  C   LIG    1      -23.758  80.119  13.776  0.00  0.00    +0.051 A 
ATOM     24  C   LIG    1      -23.204  81.346  14.205  0.00  0.00    -0.021 A 
ATOM     25  C   LIG    1      -23.649  82.525  13.588  0.00  0.00    +0.044 A 
ATOM     26  C   LIG    1      -24.617  82.470  12.595  0.00  0.00    +0.127 A 
ATOM     27  F   LIG    1      -25.039  83.602  12.015  0.00  0.00    -0.205 F 
ATOM     28  C   LIG    1      -25.161  81.263  12.184  0.00  0.00    +0.084 A 
BRANCH  22  29
ATOM     29  O   LIG    1      -25.251  78.828  12.474  0.00  0.00    -0.489 OA
BRANCH  29  30
ATOM     30  C   LIG    1      -26.632  78.629  12.838  0.00  0.00    +0.262 C 
BRANCH  30  31
ATOM     31  C   LIG    1      -26.750  77.538  13.910  0.00  0.00    +0.177 C 
BRANCH  31  32
ATOM     32  O   LIG    1      -26.625  78.098  15.220  0.00  0.00    -0.386 OA
ATOM     33  H   LIG    1      -27.207  77.574  15.802  0.00  0.00    +0.210 HD
ENDBRANCH  31  32
BRANCH  31  34
ATOM     34  C   LIG    1      -25.663  76.474  13.720  0.00  0.00    +0.190 C 
BRANCH  34  35
ATOM     35  O   LIG    1      -24.540  76.712  14.561  0.00  0.00    -0.392 OA
ATOM     36  H   LIG    1      -24.807  77.373  15.224  0.00  0.00    +0.210 HD
ENDBRANCH  34  35
ENDBRANCH  31  34
ENDBRANCH  30  31
ENDBRANCH  29  30
ENDBRANCH  22  29
ENDBRANCH   1  24
TORSDOF 10
ENDMDL
MODEL 9
REMARK VINA RESULT:      -5.2      2.876      5.698
REMARK  Name = pdb/CHEMBL3676074.pdb
REMARK                            x       y       z     vdW  Elec       q    Type
REMARK                         _______ _______ _______ _____ _____    ______ ____
ROOT
ATOM      1  C   LIG    1      -21.545  75.422  33.269  0.00  0.00    +0.105 C 
ATOM      2  N   LIG    1      -20.653  76.330  34.010  0.00  0.00    -0.308 N 
ATOM      3  C   LIG    1      -19.410  75.647  34.357  0.00  0.00    +0.107 C 
ATOM      4  C   LIG    1      -19.769  74.165  34.292  0.00  0.00    +0.021 C 
ATOM      5  C   LIG    1      -20.726  74.122  33.117  0.00  0.00    +0.029 C 
ENDROOT
BRANCH   2   6
ATOM      6  C   LIG    1      -20.885  77.670  34.301  0.00  0.00    +0.126 A 
ATOM      7  N   LIG    1      -22.085  78.027  34.727  0.00  0.00    -0.212 NA
ATOM      8  C   LIG    1      -22.280  79.335  35.109  0.00  0.00    +0.170 A 
ATOM      9  C   LIG    1      -23.397  80.034  35.552  0.00  0.00    +0.100 A 
ATOM     10  C   LIG    1      -22.900  81.323  35.853  0.00  0.00    +0.150 A 
ATOM     11  N   LIG    1      -21.608  81.477  35.567  0.00  0.00    -0.173 NA
ATOM     12  N   LIG    1      -21.237  80.273  35.070  0.00  0.00    -0.221 N 
ATOM     13  C   LIG    1      -20.007  79.935  34.526  0.00  0.00    +0.118 A 
ATOM     14  C   LIG    1      -19.776  78.684  34.110  0.00  0.00    +0.063 A 
BRANCH   9  15
ATOM     15  C   LIG    1      -24.782  79.624  35.689  0.00  0.00    +0.249 C 
ATOM     16  N   LIG    1      -25.325  79.646  36.951  0.00  0.00    -0.308 N 
ATOM     17  H   LIG    1      -24.714  79.936  37.713  0.00  0.00    +0.149 HD
ATOM     18  O   LIG    1      -25.424  79.237  34.699  0.00  0.00    -0.270 OA
BRANCH  16  19
ATOM     19  C   LIG    1      -26.628  79.121  37.248  0.00  0.00    +0.073 C 
ATOM     20  C   LIG    1      -27.879  79.948  37.176  0.00  0.00    +0.024 C 
ATOM     21  C   LIG    1      -27.317  79.563  38.513  0.00  0.00    +0.024 C 
ENDBRANCH  16  19
ENDBRANCH   9  15
ENDBRANCH   2   6
BRANCH   1  24
ATOM     22  C   LIG    1      -23.771  76.556  30.355  0.00  0.00    +0.124 A 
ATOM     23  C   LIG    1      -23.339  76.125  31.619  0.00  0.00    +0.051 A 
ATOM     24  C   LIG    1      -21.968  75.924  31.899  0.00  0.00    -0.021 A 
ATOM     25  C   LIG    1      -21.043  76.138  30.865  0.00  0.00    +0.044 A 
ATOM     26  C   LIG    1      -21.479  76.549  29.613  0.00  0.00    +0.127 A 
ATOM     27  F   LIG    1      -20.588  76.756  28.635  0.00  0.00    -0.205 F 
ATOM     28  C   LIG    1      -22.825  76.750  29.349  0.00  0.00    +0.084 A 
BRANCH  22  29
ATOM     29  O   LIG    1      -25.123  76.764  30.206  0.00  0.00    -0.489 OA
BRANCH  29  30
ATOM     30  C   LIG    1      -25.742  77.498  31.281  0.00  0.00    +0.262 C 
BRANCH  30  31
ATOM     31  C   LIG    1      -27.038  76.806  31.725  0.00  0.00    +0.177 C 
BRANCH  31  32
ATOM     32  O   LIG    1      -28.171  77.641  31.473  0.00  0.00    -0.386 OA
ATOM     33  H   LIG    1      -27.917  78.241  30.746  0.00  0.00    +0.210 HD
ENDBRANCH  31  32
BRANCH  31  34
ATOM     34  C   LIG    1      -26.988  76.475  33.220  0.00  0.00    +0.190 C 
BRANCH  34  35
ATOM     35  O   LIG    1      -27.558  77.513  34.009  0.00  0.00    -0.392 OA
ATOM     36  H   LIG    1      -28.473  77.644  33.702  0.00  0.00    +0.210 HD
ENDBRANCH  34  35
ENDBRANCH  31  34
ENDBRANCH  30  31
ENDBRANCH  29  30
ENDBRANCH  22  29
ENDBRANCH   1  24
TORSDOF 10
ENDMDL
