MODEL 1
REMARK VINA RESULT:      -6.1      0.000      0.000
REMARK  Name = pdb/CHEMBL3675927.pdb
REMARK                            x       y       z     vdW  Elec       q    Type
REMARK                         _______ _______ _______ _____ _____    ______ ____
ROOT
ATOM      1  C   LIG    1      -18.185  84.669  12.895  0.00  0.00    +0.100 A 
ATOM      2  C   LIG    1      -18.806  83.462  13.134  0.00  0.00    +0.170 A 
ATOM      3  N   LIG    1      -19.907  83.113  13.876  0.00  0.00    -0.212 NA
ATOM      4  C   LIG    1      -20.220  81.839  13.966  0.00  0.00    +0.126 A 
ATOM      5  C   LIG    1      -19.467  80.772  13.211  0.00  0.00    +0.063 A 
ATOM      6  C   LIG    1      -18.407  81.164  12.497  0.00  0.00    +0.118 A 
ATOM      7  N   LIG    1      -18.043  82.500  12.467  0.00  0.00    -0.221 N 
ATOM      8  N   LIG    1      -16.976  83.040  11.835  0.00  0.00    -0.173 NA
ATOM      9  C   LIG    1      -17.054  84.340  12.117  0.00  0.00    +0.150 A 
ENDROOT
BRANCH   4  10
ATOM     10  N   LIG    1      -21.275  81.436  14.774  0.00  0.00    -0.308 N 
ATOM     11  C   LIG    1      -22.489  82.268  14.908  0.00  0.00    +0.105 C 
ATOM     12  C   LIG    1      -22.777  82.276  16.413  0.00  0.00    +0.029 C 
ATOM     13  C   LIG    1      -22.243  80.939  16.893  0.00  0.00    +0.021 C 
ATOM     14  C   LIG    1      -20.994  80.748  16.044  0.00  0.00    +0.107 C 
BRANCH  11  15
ATOM     15  C   LIG    1      -23.646  81.694  14.086  0.00  0.00    -0.019 A 
ATOM     16  C   LIG    1      -24.044  82.264  12.849  0.00  0.00    -0.017 A 
ATOM     17  C   LIG    1      -25.153  81.725  12.159  0.00  0.00    +0.009 A 
ATOM     18  C   LIG    1      -25.845  80.622  12.656  0.00  0.00    +0.039 A 
ATOM     19  C   LIG    1      -25.444  80.056  13.852  0.00  0.00    +0.124 A 
ATOM     20  F   LIG    1      -26.098  78.993  14.336  0.00  0.00    -0.205 F 
ATOM     21  C   LIG    1      -24.371  80.581  14.564  0.00  0.00    +0.044 A 
BRANCH  16  22
ATOM     22  C   LIG    1      -23.343  83.449  12.222  0.00  0.00    +0.191 C 
BRANCH  22  23
ATOM     23  O   LIG    1      -22.175  83.039  11.527  0.00  0.00    -0.390 OA
ATOM     24  H   LIG    1      -21.948  83.734  10.886  0.00  0.00    +0.210 HD
ENDBRANCH  22  23
ENDBRANCH  16  22
ENDBRANCH  11  15
ENDBRANCH   4  10
BRANCH   1  27
ATOM     25  N   LIG    1      -19.704  86.088  14.071  0.00  0.00    -0.308 N 
ATOM     26  H   LIG    1      -20.247  85.240  14.181  0.00  0.00    +0.149 HD
ATOM     27  C   LIG    1      -18.538  86.006  13.347  0.00  0.00    +0.249 C 
ATOM     28  O   LIG    1      -17.871  86.981  13.047  0.00  0.00    -0.270 OA
BRANCH  25  29
ATOM     29  C   LIG    1      -20.251  87.346  14.559  0.00  0.00    +0.138 C 
BRANCH  29  31
ATOM     30  C   LIG    1      -22.366  85.934  14.865  0.00  0.00    +0.042 C 
ATOM     31  C   LIG    1      -21.661  87.250  15.201  0.00  0.00    +0.076 C 
ATOM     32  C   LIG    1      -22.548  88.410  14.717  0.00  0.00    +0.042 C 
BRANCH  31  33
ATOM     33  O   LIG    1      -21.514  87.359  16.627  0.00  0.00    -0.388 OA
ATOM     34  H   LIG    1      -22.384  87.558  17.014  0.00  0.00    +0.210 HD
ENDBRANCH  31  33
ENDBRANCH  29  31
ENDBRANCH  25  29
ENDBRANCH   1  27
TORSDOF 8
ENDMDL
MODEL 2
REMARK VINA RESULT:      -6.0     22.674     23.886
REMARK  Name = pdb/CHEMBL3675927.pdb
REMARK                            x       y       z     vdW  Elec       q    Type
REMARK                         _______ _______ _______ _____ _____    ______ ____
ROOT
ATOM      1  C   LIG    1      -35.636  67.730  23.709  0.00  0.00    +0.100 A 
ATOM      2  C   LIG    1      -36.672  68.236  22.954  0.00  0.00    +0.170 A 
ATOM      3  N   LIG    1      -37.811  68.928  23.284  0.00  0.00    -0.212 NA
ATOM      4  C   LIG    1      -38.661  69.223  22.325  0.00  0.00    +0.126 A 
ATOM      5  C   LIG    1      -38.380  68.907  20.877  0.00  0.00    +0.063 A 
ATOM      6  C   LIG    1      -37.253  68.239  20.608  0.00  0.00    +0.118 A 
ATOM      7  N   LIG    1      -36.400  67.870  21.634  0.00  0.00    -0.221 N 
ATOM      8  N   LIG    1      -35.257  67.154  21.526  0.00  0.00    -0.173 NA
ATOM      9  C   LIG    1      -34.817  67.053  22.780  0.00  0.00    +0.150 A 
ENDROOT
BRANCH   4  10
ATOM     10  N   LIG    1      -39.865  69.847  22.628  0.00  0.00    -0.308 N 
ATOM     11  C   LIG    1      -40.132  70.359  23.988  0.00  0.00    +0.105 C 
ATOM     12  C   LIG    1      -41.560  69.891  24.293  0.00  0.00    +0.029 C 
ATOM     13  C   LIG    1      -42.227  69.846  22.931  0.00  0.00    +0.021 C 
ATOM     14  C   LIG    1      -41.110  69.353  22.021  0.00  0.00    +0.107 C 
BRANCH  11  15
ATOM     15  C   LIG    1      -39.984  71.881  24.045  0.00  0.00    -0.019 A 
ATOM     16  C   LIG    1      -38.866  72.504  24.661  0.00  0.00    -0.017 A 
ATOM     17  C   LIG    1      -38.807  73.914  24.732  0.00  0.00    +0.009 A 
ATOM     18  C   LIG    1      -39.811  74.706  24.179  0.00  0.00    +0.039 A 
ATOM     19  C   LIG    1      -40.889  74.098  23.563  0.00  0.00    +0.124 A 
ATOM     20  F   LIG    1      -41.857  74.851  23.023  0.00  0.00    -0.205 F 
ATOM     21  C   LIG    1      -40.985  72.713  23.500  0.00  0.00    +0.044 A 
BRANCH  16  22
ATOM     22  C   LIG    1      -37.721  71.727  25.272  0.00  0.00    +0.191 C 
BRANCH  22  23
ATOM     23  O   LIG    1      -36.621  71.657  24.377  0.00  0.00    -0.390 OA
ATOM     24  H   LIG    1      -36.908  72.014  23.520  0.00  0.00    +0.210 HD
ENDBRANCH  22  23
ENDBRANCH  16  22
ENDBRANCH  11  15
ENDBRANCH   4  10
BRANCH   1  27
ATOM     25  N   LIG    1      -35.883  68.937  25.755  0.00  0.00    -0.308 N 
ATOM     26  H   LIG    1      -36.300  69.645  25.165  0.00  0.00    +0.149 HD
ATOM     27  C   LIG    1      -35.403  67.803  25.143  0.00  0.00    +0.249 C 
ATOM     28  O   LIG    1      -34.773  66.942  25.735  0.00  0.00    -0.270 OA
BRANCH  25  29
ATOM     29  C   LIG    1      -35.695  69.217  27.171  0.00  0.00    +0.138 C 
BRANCH  29  31
ATOM     30  C   LIG    1      -33.215  69.582  27.698  0.00  0.00    +0.042 C 
ATOM     31  C   LIG    1      -34.581  70.245  27.501  0.00  0.00    +0.076 C 
ATOM     32  C   LIG    1      -34.931  71.018  28.785  0.00  0.00    +0.042 C 
BRANCH  31  33
ATOM     33  O   LIG    1      -34.500  71.185  26.417  0.00  0.00    -0.388 OA
ATOM     34  H   LIG    1      -35.239  71.019  25.806  0.00  0.00    +0.210 HD
ENDBRANCH  31  33
ENDBRANCH  29  31
ENDBRANCH  25  29
ENDBRANCH   1  27
TORSDOF 8
ENDMDL
MODEL 3
REMARK VINA RESULT:      -5.7     19.005     22.680
REMARK  Name = pdb/CHEMBL3675927.pdb
REMARK                            x       y       z     vdW  Elec       q    Type
REMARK                         _______ _______ _______ _____ _____    ______ ____
ROOT
ATOM      1  C   LIG    1      -39.084  72.992  24.594  0.00  0.00    +0.100 A 
ATOM      2  C   LIG    1      -38.470  74.022  25.274  0.00  0.00    +0.170 A 
ATOM      3  N   LIG    1      -37.434  74.055  26.174  0.00  0.00    -0.212 NA
ATOM      4  C   LIG    1      -37.113  75.211  26.713  0.00  0.00    +0.126 A 
ATOM      5  C   LIG    1      -37.783  76.500  26.305  0.00  0.00    +0.063 A 
ATOM      6  C   LIG    1      -38.781  76.415  25.420  0.00  0.00    +0.118 A 
ATOM      7  N   LIG    1      -39.158  75.183  24.913  0.00  0.00    -0.221 N 
ATOM      8  N   LIG    1      -40.173  74.931  24.054  0.00  0.00    -0.173 NA
ATOM      9  C   LIG    1      -40.137  73.609  23.887  0.00  0.00    +0.150 A 
ENDROOT
BRANCH   4  10
ATOM     10  N   LIG    1      -36.128  75.276  27.690  0.00  0.00    -0.308 N 
ATOM     11  C   LIG    1      -34.796  75.839  27.386  0.00  0.00    +0.105 C 
ATOM     12  C   LIG    1      -33.813  74.844  28.015  0.00  0.00    +0.029 C 
ATOM     13  C   LIG    1      -34.578  74.275  29.196  0.00  0.00    +0.021 C 
ATOM     14  C   LIG    1      -36.003  74.183  28.666  0.00  0.00    +0.107 C 
BRANCH  11  15
ATOM     15  C   LIG    1      -34.650  77.253  27.954  0.00  0.00    -0.019 A 
ATOM     16  C   LIG    1      -33.584  78.109  27.572  0.00  0.00    -0.017 A 
ATOM     17  C   LIG    1      -33.469  79.385  28.169  0.00  0.00    +0.009 A 
ATOM     18  C   LIG    1      -34.404  79.832  29.101  0.00  0.00    +0.039 A 
ATOM     19  C   LIG    1      -35.452  79.004  29.456  0.00  0.00    +0.124 A 
ATOM     20  F   LIG    1      -36.359  79.426  30.348  0.00  0.00    -0.205 F 
ATOM     21  C   LIG    1      -35.576  77.735  28.904  0.00  0.00    +0.044 A 
BRANCH  16  22
ATOM     22  C   LIG    1      -32.534  77.718  26.556  0.00  0.00    +0.191 C 
BRANCH  22  23
ATOM     23  O   LIG    1      -32.319  78.764  25.620  0.00  0.00    -0.390 OA
ATOM     24  H   LIG    1      -32.258  78.367  24.735  0.00  0.00    +0.210 HD
ENDBRANCH  22  23
ENDBRANCH  16  22
ENDBRANCH  11  15
ENDBRANCH   4  10
BRANCH   1  27
ATOM     25  N   LIG    1      -37.470  71.243  24.385  0.00  0.00    -0.308 N 
ATOM     26  H   LIG    1      -36.828  72.002  24.191  0.00  0.00    +0.149 HD
ATOM     27  C   LIG    1      -38.789  71.567  24.596  0.00  0.00    +0.249 C 
ATOM     28  O   LIG    1      -39.669  70.731  24.715  0.00  0.00    -0.270 OA
BRANCH  25  29
ATOM     29  C   LIG    1      -36.991  69.872  24.295  0.00  0.00    +0.138 C 
BRANCH  29  31
ATOM     30  C   LIG    1      -36.302  68.433  26.299  0.00  0.00    +0.042 C 
ATOM     31  C   LIG    1      -35.861  69.497  25.290  0.00  0.00    +0.076 C 
ATOM     32  C   LIG    1      -35.403  70.741  26.071  0.00  0.00    +0.042 C 
BRANCH  31  33
ATOM     33  O   LIG    1      -34.743  69.001  24.536  0.00  0.00    -0.388 OA
ATOM     34  H   LIG    1      -33.931  69.150  25.050  0.00  0.00    +0.210 HD
ENDBRANCH  31  33
ENDBRANCH  29  31
ENDBRANCH  25  29
ENDBRANCH   1  27
TORSDOF 8
ENDMDL
MODEL 4
REMARK VINA RESULT:      -5.6      6.187      9.377
REMARK  Name = pdb/CHEMBL3675927.pdb
REMARK                            x       y       z     vdW  Elec       q    Type
REMARK                         _______ _______ _______ _____ _____    ______ ____
ROOT
ATOM      1  C   LIG    1      -23.860  79.226  15.357  0.00  0.00    +0.100 A 
ATOM      2  C   LIG    1      -22.703  78.479  15.308  0.00  0.00    +0.170 A 
ATOM      3  N   LIG    1      -22.464  77.148  15.072  0.00  0.00    -0.212 NA
ATOM      4  C   LIG    1      -21.228  76.710  15.161  0.00  0.00    +0.126 A 
ATOM      5  C   LIG    1      -20.065  77.637  15.421  0.00  0.00    +0.063 A 
ATOM      6  C   LIG    1      -20.350  78.925  15.637  0.00  0.00    +0.118 A 
ATOM      7  N   LIG    1      -21.663  79.361  15.613  0.00  0.00    -0.221 N 
ATOM      8  N   LIG    1      -22.111  80.614  15.858  0.00  0.00    -0.173 NA
ATOM      9  C   LIG    1      -23.434  80.519  15.728  0.00  0.00    +0.150 A 
ENDROOT
BRANCH   4  10
ATOM     10  N   LIG    1      -20.954  75.357  15.012  0.00  0.00    -0.308 N 
ATOM     11  C   LIG    1      -19.931  74.694  15.848  0.00  0.00    +0.105 C 
ATOM     12  C   LIG    1      -19.127  73.844  14.857  0.00  0.00    +0.029 C 
ATOM     13  C   LIG    1      -20.135  73.491  13.780  0.00  0.00    +0.021 C 
ATOM     14  C   LIG    1      -20.973  74.757  13.669  0.00  0.00    +0.107 C 
BRANCH  11  15
ATOM     15  C   LIG    1      -20.579  73.858  16.955  0.00  0.00    -0.019 A 
ATOM     16  C   LIG    1      -19.848  73.422  18.091  0.00  0.00    -0.017 A 
ATOM     17  C   LIG    1      -20.483  72.608  19.056  0.00  0.00    +0.009 A 
ATOM     18  C   LIG    1      -21.824  72.252  18.929  0.00  0.00    +0.039 A 
ATOM     19  C   LIG    1      -22.539  72.695  17.832  0.00  0.00    +0.124 A 
ATOM     20  F   LIG    1      -23.831  72.363  17.704  0.00  0.00    -0.205 F 
ATOM     21  C   LIG    1      -21.934  73.476  16.855  0.00  0.00    +0.044 A 
BRANCH  16  22
ATOM     22  C   LIG    1      -18.394  73.772  18.323  0.00  0.00    +0.191 C 
BRANCH  22  23
ATOM     23  O   LIG    1      -18.196  74.269  19.638  0.00  0.00    -0.390 OA
ATOM     24  H   LIG    1      -17.257  74.502  19.732  0.00  0.00    +0.210 HD
ENDBRANCH  22  23
ENDBRANCH  16  22
ENDBRANCH  11  15
ENDBRANCH   4  10
BRANCH   1  27
ATOM     25  N   LIG    1      -25.597  78.673  13.813  0.00  0.00    -0.308 N 
ATOM     26  H   LIG    1      -24.903  78.904  13.112  0.00  0.00    +0.149 HD
ATOM     27  C   LIG    1      -25.241  78.824  15.132  0.00  0.00    +0.249 C 
ATOM     28  O   LIG    1      -26.029  78.695  16.054  0.00  0.00    -0.270 OA
BRANCH  25  29
ATOM     29  C   LIG    1      -26.946  78.333  13.387  0.00  0.00    +0.138 C 
BRANCH  29  31
ATOM     30  C   LIG    1      -26.120  75.911  13.269  0.00  0.00    +0.042 C 
ATOM     31  C   LIG    1      -27.320  76.831  13.506  0.00  0.00    +0.076 C 
ATOM     32  C   LIG    1      -28.414  76.470  12.486  0.00  0.00    +0.042 C 
BRANCH  31  33
ATOM     33  O   LIG    1      -27.841  76.601  14.826  0.00  0.00    -0.388 OA
ATOM     34  H   LIG    1      -28.663  77.111  14.929  0.00  0.00    +0.210 HD
ENDBRANCH  31  33
ENDBRANCH  29  31
ENDBRANCH  25  29
ENDBRANCH   1  27
TORSDOF 8
ENDMDL
MODEL 5
REMARK VINA RESULT:      -5.6     18.140     21.244
REMARK  Name = pdb/CHEMBL3675927.pdb
REMARK                            x       y       z     vdW  Elec       q    Type
REMARK                         _______ _______ _______ _____ _____    ______ ____
ROOT
ATOM      1  C   LIG    1      -22.820  76.824  30.420  0.00  0.00    +0.100 A 
ATOM      2  C   LIG    1      -21.883  77.300  31.311  0.00  0.00    +0.170 A 
ATOM      3  N   LIG    1      -21.979  77.781  32.594  0.00  0.00    -0.212 NA
ATOM      4  C   LIG    1      -20.889  78.235  33.173  0.00  0.00    +0.126 A 
ATOM      5  C   LIG    1      -19.536  78.157  32.511  0.00  0.00    +0.063 A 
ATOM      6  C   LIG    1      -19.495  77.674  31.265  0.00  0.00    +0.118 A 
ATOM      7  N   LIG    1      -20.660  77.267  30.637  0.00  0.00    -0.221 N 
ATOM      8  N   LIG    1      -20.786  76.805  29.372  0.00  0.00    -0.173 NA
ATOM      9  C   LIG    1      -22.090  76.565  29.241  0.00  0.00    +0.150 A 
ENDROOT
BRANCH   4  10
ATOM     10  N   LIG    1      -20.957  78.806  34.438  0.00  0.00    -0.308 N 
ATOM     11  C   LIG    1      -22.174  79.517  34.883  0.00  0.00    +0.105 C 
ATOM     12  C   LIG    1      -21.644  80.801  35.532  0.00  0.00    +0.029 C 
ATOM     13  C   LIG    1      -20.284  80.401  36.074  0.00  0.00    +0.021 C 
ATOM     14  C   LIG    1      -19.762  79.445  35.009  0.00  0.00    +0.107 C 
BRANCH  11  15
ATOM     15  C   LIG    1      -22.992  78.659  35.852  0.00  0.00    -0.019 A 
ATOM     16  C   LIG    1      -24.243  79.092  36.365  0.00  0.00    -0.017 A 
ATOM     17  C   LIG    1      -24.930  78.282  37.297  0.00  0.00    +0.009 A 
ATOM     18  C   LIG    1      -24.417  77.050  37.697  0.00  0.00    +0.039 A 
ATOM     19  C   LIG    1      -23.208  76.621  37.181  0.00  0.00    +0.124 A 
ATOM     20  F   LIG    1      -22.710  75.436  37.555  0.00  0.00    -0.205 F 
ATOM     21  C   LIG    1      -22.499  77.408  36.282  0.00  0.00    +0.044 A 
BRANCH  16  22
ATOM     22  C   LIG    1      -24.886  80.405  35.975  0.00  0.00    +0.191 C 
BRANCH  22  23
ATOM     23  O   LIG    1      -26.170  80.536  36.567  0.00  0.00    -0.390 OA
ATOM     24  H   LIG    1      -26.632  79.686  36.473  0.00  0.00    +0.210 HD
ENDBRANCH  22  23
ENDBRANCH  16  22
ENDBRANCH  11  15
ENDBRANCH   4  10
BRANCH   1  27
ATOM     25  N   LIG    1      -24.629  75.852  31.640  0.00  0.00    -0.308 N 
ATOM     26  H   LIG    1      -23.893  75.414  32.178  0.00  0.00    +0.149 HD
ATOM     27  C   LIG    1      -24.255  76.646  30.581  0.00  0.00    +0.249 C 
ATOM     28  O   LIG    1      -25.052  77.122  29.791  0.00  0.00    -0.270 OA
BRANCH  25  29
ATOM     29  C   LIG    1      -26.014  75.510  31.927  0.00  0.00    +0.138 C 
BRANCH  29  31
ATOM     30  C   LIG    1      -25.972  77.377  33.681  0.00  0.00    +0.042 C 
ATOM     31  C   LIG    1      -26.826  76.604  32.672  0.00  0.00    +0.076 C 
ATOM     32  C   LIG    1      -28.009  75.971  33.426  0.00  0.00    +0.042 C 
BRANCH  31  33
ATOM     33  O   LIG    1      -27.351  77.519  31.696  0.00  0.00    -0.388 OA
ATOM     34  H   LIG    1      -27.134  77.184  30.808  0.00  0.00    +0.210 HD
ENDBRANCH  31  33
ENDBRANCH  29  31
ENDBRANCH  25  29
ENDBRANCH   1  27
TORSDOF 8
ENDMDL
MODEL 6
REMARK VINA RESULT:      -5.6     21.730     24.496
REMARK  Name = pdb/CHEMBL3675927.pdb
REMARK                            x       y       z     vdW  Elec       q    Type
REMARK                         _______ _______ _______ _____ _____    ______ ____
ROOT
ATOM      1  C   LIG    1      -40.249  69.317  21.461  0.00  0.00    +0.100 A 
ATOM      2  C   LIG    1      -39.705  69.954  22.555  0.00  0.00    +0.170 A 
ATOM      3  N   LIG    1      -40.197  70.899  23.422  0.00  0.00    -0.212 NA
ATOM      4  C   LIG    1      -39.394  71.373  24.349  0.00  0.00    +0.126 A 
ATOM      5  C   LIG    1      -37.994  70.847  24.544  0.00  0.00    +0.063 A 
ATOM      6  C   LIG    1      -37.564  69.922  23.679  0.00  0.00    +0.118 A 
ATOM      7  N   LIG    1      -38.394  69.483  22.661  0.00  0.00    -0.221 N 
ATOM      8  N   LIG    1      -38.089  68.595  21.687  0.00  0.00    -0.173 NA
ATOM      9  C   LIG    1      -39.200  68.520  20.955  0.00  0.00    +0.150 A 
ENDROOT
BRANCH   4  10
ATOM     10  N   LIG    1      -39.825  72.389  25.192  0.00  0.00    -0.308 N 
ATOM     11  C   LIG    1      -38.975  73.569  25.453  0.00  0.00    +0.105 C 
ATOM     12  C   LIG    1      -39.060  73.767  26.970  0.00  0.00    +0.029 C 
ATOM     13  C   LIG    1      -40.438  73.243  27.329  0.00  0.00    +0.021 C 
ATOM     14  C   LIG    1      -40.603  72.052  26.395  0.00  0.00    +0.107 C 
BRANCH  11  15
ATOM     15  C   LIG    1      -39.466  74.788  24.668  0.00  0.00    -0.019 A 
ATOM     16  C   LIG    1      -38.699  75.979  24.573  0.00  0.00    -0.017 A 
ATOM     17  C   LIG    1      -39.224  77.092  23.880  0.00  0.00    +0.009 A 
ATOM     18  C   LIG    1      -40.471  77.032  23.260  0.00  0.00    +0.039 A 
ATOM     19  C   LIG    1      -41.208  75.865  23.337  0.00  0.00    +0.124 A 
ATOM     20  F   LIG    1      -42.405  75.795  22.739  0.00  0.00    -0.205 F 
ATOM     21  C   LIG    1      -40.726  74.763  24.032  0.00  0.00    +0.044 A 
BRANCH  16  22
ATOM     22  C   LIG    1      -37.329  76.131  25.198  0.00  0.00    +0.191 C 
BRANCH  22  23
ATOM     23  O   LIG    1      -37.278  77.277  26.034  0.00  0.00    -0.390 OA
ATOM     24  H   LIG    1      -36.911  78.012  25.514  0.00  0.00    +0.210 HD
ENDBRANCH  22  23
ENDBRANCH  16  22
ENDBRANCH  11  15
ENDBRANCH   4  10
BRANCH   1  27
ATOM     25  N   LIG    1      -41.917  70.686  20.436  0.00  0.00    -0.308 N 
ATOM     26  H   LIG    1      -41.253  71.433  20.596  0.00  0.00    +0.149 HD
ATOM     27  C   LIG    1      -41.579  69.430  20.881  0.00  0.00    +0.249 C 
ATOM     28  O   LIG    1      -42.348  68.484  20.854  0.00  0.00    -0.270 OA
BRANCH  25  29
ATOM     29  C   LIG    1      -43.223  71.008  19.880  0.00  0.00    +0.138 C 
BRANCH  29  31
ATOM     30  C   LIG    1      -43.242  72.673  21.826  0.00  0.00    +0.042 C 
ATOM     31  C   LIG    1      -43.963  72.188  20.566  0.00  0.00    +0.076 C 
ATOM     32  C   LIG    1      -45.390  71.768  20.958  0.00  0.00    +0.042 C 
BRANCH  31  33
ATOM     33  O   LIG    1      -44.053  73.270  19.625  0.00  0.00    -0.388 OA
ATOM     34  H   LIG    1      -43.945  72.911  18.727  0.00  0.00    +0.210 HD
ENDBRANCH  31  33
ENDBRANCH  29  31
ENDBRANCH  25  29
ENDBRANCH   1  27
TORSDOF 8
ENDMDL
MODEL 7
REMARK VINA RESULT:      -5.5      3.167      4.842
REMARK  Name = pdb/CHEMBL3675927.pdb
REMARK                            x       y       z     vdW  Elec       q    Type
REMARK                         _______ _______ _______ _____ _____    ______ ____
ROOT
ATOM      1  C   LIG    1      -23.850  85.369  11.409  0.00  0.00    +0.100 A 
ATOM      2  C   LIG    1      -23.946  84.195  12.124  0.00  0.00    +0.170 A 
ATOM      3  N   LIG    1      -23.163  83.636  13.103  0.00  0.00    -0.212 NA
ATOM      4  C   LIG    1      -23.485  82.443  13.554  0.00  0.00    +0.126 A 
ATOM      5  C   LIG    1      -24.729  81.722  13.098  0.00  0.00    +0.063 A 
ATOM      6  C   LIG    1      -25.462  82.312  12.149  0.00  0.00    +0.118 A 
ATOM      7  N   LIG    1      -25.074  83.535  11.629  0.00  0.00    -0.221 N 
ATOM      8  N   LIG    1      -25.679  84.230  10.638  0.00  0.00    -0.173 NA
ATOM      9  C   LIG    1      -24.924  85.318  10.495  0.00  0.00    +0.150 A 
ENDROOT
BRANCH   4  10
ATOM     10  N   LIG    1      -22.673  81.806  14.483  0.00  0.00    -0.308 N 
ATOM     11  C   LIG    1      -23.257  80.992  15.569  0.00  0.00    +0.105 C 
ATOM     12  C   LIG    1      -22.483  81.422  16.821  0.00  0.00    +0.029 C 
ATOM     13  C   LIG    1      -21.118  81.814  16.287  0.00  0.00    +0.021 C 
ATOM     14  C   LIG    1      -21.450  82.473  14.955  0.00  0.00    +0.107 C 
BRANCH  11  15
ATOM     15  C   LIG    1      -23.122  79.496  15.274  0.00  0.00    -0.019 A 
ATOM     16  C   LIG    1      -24.247  78.630  15.255  0.00  0.00    -0.017 A 
ATOM     17  C   LIG    1      -24.057  77.248  15.029  0.00  0.00    +0.009 A 
ATOM     18  C   LIG    1      -22.787  76.725  14.792  0.00  0.00    +0.039 A 
ATOM     19  C   LIG    1      -21.696  77.573  14.791  0.00  0.00    +0.124 A 
ATOM     20  F   LIG    1      -20.472  77.080  14.559  0.00  0.00    -0.205 F 
ATOM     21  C   LIG    1      -21.850  78.932  15.034  0.00  0.00    +0.044 A 
BRANCH  16  22
ATOM     22  C   LIG    1      -25.663  79.110  15.484  0.00  0.00    +0.191 C 
BRANCH  22  23
ATOM     23  O   LIG    1      -26.599  78.079  15.206  0.00  0.00    -0.390 OA
ATOM     24  H   LIG    1      -26.102  77.279  14.965  0.00  0.00    +0.210 HD
ENDBRANCH  22  23
ENDBRANCH  16  22
ENDBRANCH  11  15
ENDBRANCH   4  10
BRANCH   1  27
ATOM     25  N   LIG    1      -22.312  86.619  12.742  0.00  0.00    -0.308 N 
ATOM     26  H   LIG    1      -22.664  86.046  13.498  0.00  0.00    +0.149 HD
ATOM     27  C   LIG    1      -22.867  86.439  11.497  0.00  0.00    +0.249 C 
ATOM     28  O   LIG    1      -22.610  87.153  10.543  0.00  0.00    -0.270 OA
BRANCH  25  29
ATOM     29  C   LIG    1      -21.355  87.674  13.041  0.00  0.00    +0.138 C 
BRANCH  29  31
ATOM     30  C   LIG    1      -18.820  87.670  12.673  0.00  0.00    +0.042 C 
ATOM     31  C   LIG    1      -19.974  87.189  13.557  0.00  0.00    +0.076 C 
ATOM     32  C   LIG    1      -19.933  85.652  13.610  0.00  0.00    +0.042 C 
BRANCH  31  33
ATOM     33  O   LIG    1      -19.790  87.692  14.891  0.00  0.00    -0.388 OA
ATOM     34  H   LIG    1      -20.328  88.496  14.997  0.00  0.00    +0.210 HD
ENDBRANCH  31  33
ENDBRANCH  29  31
ENDBRANCH  25  29
ENDBRANCH   1  27
TORSDOF 8
ENDMDL
MODEL 8
REMARK VINA RESULT:      -5.5     21.928     23.799
REMARK  Name = pdb/CHEMBL3675927.pdb
REMARK                            x       y       z     vdW  Elec       q    Type
REMARK                         _______ _______ _______ _____ _____    ______ ____
ROOT
ATOM      1  C   LIG    1      -36.895  68.324  22.439  0.00  0.00    +0.100 A 
ATOM      2  C   LIG    1      -38.005  69.110  22.662  0.00  0.00    +0.170 A 
ATOM      3  N   LIG    1      -38.317  70.021  23.640  0.00  0.00    -0.212 NA
ATOM      4  C   LIG    1      -39.510  70.574  23.619  0.00  0.00    +0.126 A 
ATOM      5  C   LIG    1      -40.499  70.308  22.511  0.00  0.00    +0.063 A 
ATOM      6  C   LIG    1      -40.144  69.418  21.578  0.00  0.00    +0.118 A 
ATOM      7  N   LIG    1      -38.913  68.788  21.650  0.00  0.00    -0.221 N 
ATOM      8  N   LIG    1      -38.434  67.837  20.816  0.00  0.00    -0.173 NA
ATOM      9  C   LIG    1      -37.232  67.545  21.311  0.00  0.00    +0.150 A 
ENDROOT
BRANCH   4  10
ATOM     10  N   LIG    1      -39.898  71.437  24.636  0.00  0.00    -0.308 N 
ATOM     11  C   LIG    1      -39.103  72.642  24.952  0.00  0.00    +0.105 C 
ATOM     12  C   LIG    1      -39.006  72.640  26.482  0.00  0.00    +0.029 C 
ATOM     13  C   LIG    1      -40.289  71.961  26.926  0.00  0.00    +0.021 C 
ATOM     14  C   LIG    1      -40.491  70.888  25.865  0.00  0.00    +0.107 C 
BRANCH  11  15
ATOM     15  C   LIG    1      -39.770  73.905  24.403  0.00  0.00    -0.019 A 
ATOM     16  C   LIG    1      -39.152  75.179  24.491  0.00  0.00    -0.017 A 
ATOM     17  C   LIG    1      -39.838  76.319  24.014  0.00  0.00    +0.009 A 
ATOM     18  C   LIG    1      -41.098  76.211  23.429  0.00  0.00    +0.039 A 
ATOM     19  C   LIG    1      -41.689  74.965  23.326  0.00  0.00    +0.124 A 
ATOM     20  F   LIG    1      -42.898  74.849  22.761  0.00  0.00    -0.205 F 
ATOM     21  C   LIG    1      -41.048  73.831  23.808  0.00  0.00    +0.044 A 
BRANCH  16  22
ATOM     22  C   LIG    1      -37.781  75.393  25.093  0.00  0.00    +0.191 C 
BRANCH  22  23
ATOM     23  O   LIG    1      -37.197  76.594  24.611  0.00  0.00    -0.390 OA
ATOM     24  H   LIG    1      -37.563  77.333  25.126  0.00  0.00    +0.210 HD
ENDBRANCH  22  23
ENDBRANCH  16  22
ENDBRANCH  11  15
ENDBRANCH   4  10
BRANCH   1  27
ATOM     25  N   LIG    1      -35.680  68.789  24.442  0.00  0.00    -0.308 N 
ATOM     26  H   LIG    1      -36.531  69.257  24.725  0.00  0.00    +0.149 HD
ATOM     27  C   LIG    1      -35.648  68.236  23.183  0.00  0.00    +0.249 C 
ATOM     28  O   LIG    1      -34.640  67.758  22.691  0.00  0.00    -0.270 OA
BRANCH  25  29
ATOM     29  C   LIG    1      -34.516  68.849  25.314  0.00  0.00    +0.138 C 
BRANCH  29  31
ATOM     30  C   LIG    1      -35.930  68.804  27.449  0.00  0.00    +0.042 C 
ATOM     31  C   LIG    1      -34.767  69.474  26.712  0.00  0.00    +0.076 C 
ATOM     32  C   LIG    1      -35.082  70.974  26.578  0.00  0.00    +0.042 C 
BRANCH  31  33
ATOM     33  O   LIG    1      -33.567  69.333  27.491  0.00  0.00    -0.388 OA
ATOM     34  H   LIG    1      -33.699  68.618  28.137  0.00  0.00    +0.210 HD
ENDBRANCH  31  33
ENDBRANCH  29  31
ENDBRANCH  25  29
ENDBRANCH   1  27
TORSDOF 8
ENDMDL
MODEL 9
REMARK VINA RESULT:      -5.2      3.729      7.428
REMARK  Name = pdb/CHEMBL3675927.pdb
REMARK                            x       y       z     vdW  Elec       q    Type
REMARK                         _______ _______ _______ _____ _____    ______ ____
ROOT
ATOM      1  C   LIG    1      -25.217  82.984  11.281  0.00  0.00    +0.100 A 
ATOM      2  C   LIG    1      -24.638  84.232  11.350  0.00  0.00    +0.170 A 
ATOM      3  N   LIG    1      -23.720  84.786  12.208  0.00  0.00    -0.212 NA
ATOM      4  C   LIG    1      -23.407  86.053  12.053  0.00  0.00    +0.126 A 
ATOM      5  C   LIG    1      -23.950  86.881  10.915  0.00  0.00    +0.063 A 
ATOM      6  C   LIG    1      -24.835  86.294  10.103  0.00  0.00    +0.118 A 
ATOM      7  N   LIG    1      -25.213  84.980  10.319  0.00  0.00    -0.221 N 
ATOM      8  N   LIG    1      -26.126  84.268   9.619  0.00  0.00    -0.173 NA
ATOM      9  C   LIG    1      -26.141  83.078  10.219  0.00  0.00    +0.150 A 
ENDROOT
BRANCH   4  10
ATOM     10  N   LIG    1      -22.547  86.674  12.950  0.00  0.00    -0.308 N 
ATOM     11  C   LIG    1      -21.810  85.888  13.961  0.00  0.00    +0.105 C 
ATOM     12  C   LIG    1      -21.976  86.690  15.257  0.00  0.00    +0.029 C 
ATOM     13  C   LIG    1      -22.095  88.127  14.783  0.00  0.00    +0.021 C 
ATOM     14  C   LIG    1      -22.899  87.994  13.496  0.00  0.00    +0.107 C 
BRANCH  11  15
ATOM     15  C   LIG    1      -20.343  85.708  13.561  0.00  0.00    -0.019 A 
ATOM     16  C   LIG    1      -19.715  84.435  13.564  0.00  0.00    -0.017 A 
ATOM     17  C   LIG    1      -18.345  84.334  13.237  0.00  0.00    +0.009 A 
ATOM     18  C   LIG    1      -17.605  85.459  12.877  0.00  0.00    +0.039 A 
ATOM     19  C   LIG    1      -18.224  86.695  12.855  0.00  0.00    +0.124 A 
ATOM     20  F   LIG    1      -17.523  87.782  12.506  0.00  0.00    -0.205 F 
ATOM     21  C   LIG    1      -19.564  86.827  13.197  0.00  0.00    +0.044 A 
BRANCH  16  22
ATOM     22  C   LIG    1      -20.441  83.156  13.923  0.00  0.00    +0.191 C 
BRANCH  22  23
ATOM     23  O   LIG    1      -19.932  82.605  15.127  0.00  0.00    -0.390 OA
ATOM     24  H   LIG    1      -19.024  82.930  15.247  0.00  0.00    +0.210 HD
ENDBRANCH  22  23
ENDBRANCH  16  22
ENDBRANCH  11  15
ENDBRANCH   4  10
BRANCH   1  27
ATOM     25  N   LIG    1      -23.753  81.714  12.678  0.00  0.00    -0.308 N 
ATOM     26  H   LIG    1      -23.075  82.424  12.433  0.00  0.00    +0.149 HD
ATOM     27  C   LIG    1      -25.003  81.808  12.111  0.00  0.00    +0.249 C 
ATOM     28  O   LIG    1      -25.857  80.947  12.236  0.00  0.00    -0.270 OA
BRANCH  25  29
ATOM     29  C   LIG    1      -23.332  80.583  13.491  0.00  0.00    +0.138 C 
BRANCH  29  31
ATOM     30  C   LIG    1      -23.434  82.078  15.568  0.00  0.00    +0.042 C 
ATOM     31  C   LIG    1      -23.690  80.680  14.998  0.00  0.00    +0.076 C 
ATOM     32  C   LIG    1      -22.861  79.669  15.810  0.00  0.00    +0.042 C 
BRANCH  31  33
ATOM     33  O   LIG    1      -25.080  80.351  15.153  0.00  0.00    -0.388 OA
ATOM     34  H   LIG    1      -25.481  80.275  14.270  0.00  0.00    +0.210 HD
ENDBRANCH  31  33
ENDBRANCH  29  31
ENDBRANCH  25  29
ENDBRANCH   1  27
TORSDOF 8
ENDMDL
