MODEL 1
REMARK VINA RESULT:      -5.7      0.000      0.000
REMARK  Name = pdb/CHEMBL3675954.pdb
REMARK                            x       y       z     vdW  Elec       q    Type
REMARK                         _______ _______ _______ _____ _____    ______ ____
ROOT
ATOM      1  C   LIG    1      -23.644  79.526  34.738  0.00  0.00    +0.126 A 
ATOM      2  N   LIG    1      -23.721  78.916  33.570  0.00  0.00    -0.212 NA
ATOM      3  C   LIG    1      -24.821  78.146  33.300  0.00  0.00    +0.170 A 
ATOM      4  C   LIG    1      -25.184  77.429  32.175  0.00  0.00    +0.100 A 
ATOM      5  C   LIG    1      -26.352  76.744  32.571  0.00  0.00    +0.150 A 
ATOM      6  N   LIG    1      -26.753  77.058  33.805  0.00  0.00    -0.173 NA
ATOM      7  N   LIG    1      -25.827  77.945  34.239  0.00  0.00    -0.221 N 
ATOM      8  C   LIG    1      -25.799  78.627  35.443  0.00  0.00    +0.118 A 
ATOM      9  C   LIG    1      -24.783  79.451  35.729  0.00  0.00    +0.063 A 
ENDROOT
BRANCH   1  11
ATOM     10  C   LIG    1      -21.255  79.604  35.669  0.00  0.00    +0.107 C 
ATOM     11  N   LIG    1      -22.459  80.194  35.037  0.00  0.00    -0.308 N 
ATOM     12  C   LIG    1      -22.446  81.658  35.177  0.00  0.00    +0.107 C 
ATOM     13  C   LIG    1      -21.386  81.937  36.227  0.00  0.00    +0.021 C 
ATOM     14  C   LIG    1      -20.376  80.831  35.986  0.00  0.00    +0.029 C 
BRANCH  10  16
ATOM     15  CA  LIG    1      -20.686  77.224  34.847  0.00  0.00    +0.072 A 
ATOM     16  C   LIG    1      -20.491  78.622  34.799  0.00  0.00    -0.001 A 
ATOM     17  C   LIG    1      -19.534  79.103  33.884  0.00  0.00    +0.047 A 
ATOM     18  C   LIG    1      -18.873  78.231  33.036  0.00  0.00    +0.142 A 
ATOM     19  F   LIG    1      -18.003  78.695  32.133  0.00  0.00    -0.204 F 
ATOM     20  C   LIG    1      -19.143  76.885  33.131  0.00  0.00    +0.149 A 
ATOM     21  N   LIG    1      -20.014  76.365  34.023  0.00  0.00    -0.254 NA
BRANCH  15  22
ATOM     22  C   LIG    1      -21.635  76.533  35.803  0.00  0.00    +0.211 C 
BRANCH  22  23
ATOM     23  O   LIG    1      -22.857  76.181  35.166  0.00  0.00    -0.389 OA
ATOM     24  H   LIG    1      -22.859  75.209  35.098  0.00  0.00    +0.210 HD
ENDBRANCH  22  23
ENDBRANCH  15  22
ENDBRANCH  10  16
ENDBRANCH   1  11
BRANCH   4  25
ATOM     25  C   LIG    1      -24.512  77.367  30.886  0.00  0.00    +0.249 C 
ATOM     26  N   LIG    1      -23.141  77.552  30.953  0.00  0.00    -0.308 N 
ATOM     27  H   LIG    1      -22.750  77.731  31.875  0.00  0.00    +0.149 HD
ATOM     28  O   LIG    1      -25.125  77.195  29.845  0.00  0.00    -0.270 OA
BRANCH  26  29
ATOM     29  C   LIG    1      -22.282  77.570  29.813  0.00  0.00    +0.073 C 
ATOM     30  C   LIG    1      -21.380  76.409  29.496  0.00  0.00    +0.024 C 
ATOM     31  C   LIG    1      -20.792  77.690  30.007  0.00  0.00    +0.024 C 
ENDBRANCH  26  29
ENDBRANCH   4  25
TORSDOF 6
ENDMDL
MODEL 2
REMARK VINA RESULT:      -5.3      2.260      5.272
REMARK  Name = pdb/CHEMBL3675954.pdb
REMARK                            x       y       z     vdW  Elec       q    Type
REMARK                         _______ _______ _______ _____ _____    ______ ____
ROOT
ATOM      1  C   LIG    1      -24.278  76.623  34.170  0.00  0.00    +0.126 A 
ATOM      2  N   LIG    1      -23.282  77.475  34.325  0.00  0.00    -0.212 NA
ATOM      3  C   LIG    1      -23.546  78.707  34.860  0.00  0.00    +0.170 A 
ATOM      4  C   LIG    1      -22.718  79.773  35.163  0.00  0.00    +0.100 A 
ATOM      5  C   LIG    1      -23.607  80.793  35.558  0.00  0.00    +0.150 A 
ATOM      6  N   LIG    1      -24.882  80.397  35.593  0.00  0.00    -0.173 NA
ATOM      7  N   LIG    1      -24.837  79.103  35.194  0.00  0.00    -0.221 N 
ATOM      8  C   LIG    1      -25.884  78.203  35.103  0.00  0.00    +0.118 A 
ATOM      9  C   LIG    1      -25.669  76.961  34.654  0.00  0.00    +0.063 A 
ENDROOT
BRANCH   1  11
ATOM     10  C   LIG    1      -24.033  75.218  32.038  0.00  0.00    +0.107 C 
ATOM     11  N   LIG    1      -24.005  75.430  33.505  0.00  0.00    -0.308 N 
ATOM     12  C   LIG    1      -24.112  74.144  34.210  0.00  0.00    +0.107 C 
ATOM     13  C   LIG    1      -24.570  73.159  33.150  0.00  0.00    +0.021 C 
ATOM     14  C   LIG    1      -23.910  73.688  31.892  0.00  0.00    +0.029 C 
BRANCH  10  16
ATOM     15  CA  LIG    1      -23.086  77.143  30.600  0.00  0.00    +0.072 A 
ATOM     16  C   LIG    1      -22.920  75.911  31.270  0.00  0.00    -0.001 A 
ATOM     17  C   LIG    1      -21.644  75.316  31.210  0.00  0.00    +0.047 A 
ATOM     18  C   LIG    1      -20.599  75.961  30.571  0.00  0.00    +0.142 A 
ATOM     19  F   LIG    1      -19.376  75.420  30.559  0.00  0.00    -0.204 F 
ATOM     20  C   LIG    1      -20.841  77.174  29.966  0.00  0.00    +0.149 A 
ATOM     21  N   LIG    1      -22.056  77.764  29.951  0.00  0.00    -0.254 NA
BRANCH  15  22
ATOM     22  C   LIG    1      -24.398  77.894  30.520  0.00  0.00    +0.211 C 
BRANCH  22  23
ATOM     23  O   LIG    1      -25.222  77.400  29.472  0.00  0.00    -0.389 OA
ATOM     24  H   LIG    1      -26.084  77.844  29.570  0.00  0.00    +0.210 HD
ENDBRANCH  22  23
ENDBRANCH  15  22
ENDBRANCH  10  16
ENDBRANCH   1  11
BRANCH   4  25
ATOM     25  C   LIG    1      -21.267  79.844  35.072  0.00  0.00    +0.249 C 
ATOM     26  N   LIG    1      -20.709  78.936  34.189  0.00  0.00    -0.308 N 
ATOM     27  H   LIG    1      -21.354  78.305  33.717  0.00  0.00    +0.149 HD
ATOM     28  O   LIG    1      -20.615  80.625  35.747  0.00  0.00    -0.270 OA
BRANCH  26  29
ATOM     29  C   LIG    1      -19.306  78.798  33.967  0.00  0.00    +0.073 C 
ATOM     30  C   LIG    1      -18.741  78.718  32.575  0.00  0.00    +0.024 C 
ATOM     31  C   LIG    1      -18.761  77.494  33.441  0.00  0.00    +0.024 C 
ENDBRANCH  26  29
ENDBRANCH   4  25
TORSDOF 6
ENDMDL
MODEL 3
REMARK VINA RESULT:      -5.2      5.418      7.831
REMARK  Name = pdb/CHEMBL3675954.pdb
REMARK                            x       y       z     vdW  Elec       q    Type
REMARK                         _______ _______ _______ _____ _____    ______ ____
ROOT
ATOM      1  C   LIG    1      -24.118  73.109  31.944  0.00  0.00    +0.126 A 
ATOM      2  N   LIG    1      -23.431  74.053  31.329  0.00  0.00    -0.212 NA
ATOM      3  C   LIG    1      -24.064  75.223  31.005  0.00  0.00    +0.170 A 
ATOM      4  C   LIG    1      -23.603  76.378  30.399  0.00  0.00    +0.100 A 
ATOM      5  C   LIG    1      -24.766  77.157  30.224  0.00  0.00    +0.150 A 
ATOM      6  N   LIG    1      -25.860  76.597  30.746  0.00  0.00    -0.173 NA
ATOM      7  N   LIG    1      -25.419  75.422  31.255  0.00  0.00    -0.221 N 
ATOM      8  C   LIG    1      -26.140  74.473  31.958  0.00  0.00    +0.118 A 
ATOM      9  C   LIG    1      -25.552  73.341  32.363  0.00  0.00    +0.063 A 
ENDROOT
BRANCH   1  11
ATOM     10  C   LIG    1      -24.064  70.545  31.869  0.00  0.00    +0.107 C 
ATOM     11  N   LIG    1      -23.488  71.883  32.144  0.00  0.00    -0.308 N 
ATOM     12  C   LIG    1      -22.359  71.772  33.081  0.00  0.00    +0.107 C 
ATOM     13  C   LIG    1      -22.475  70.375  33.662  0.00  0.00    +0.021 C 
ATOM     14  C   LIG    1      -23.048  69.577  32.507  0.00  0.00    +0.029 C 
BRANCH  10  16
ATOM     15  CA  LIG    1      -25.514  70.129  29.774  0.00  0.00    +0.072 A 
ATOM     16  C   LIG    1      -24.250  70.219  30.398  0.00  0.00    -0.001 A 
ATOM     17  C   LIG    1      -23.118  69.991  29.589  0.00  0.00    +0.047 A 
ATOM     18  C   LIG    1      -23.262  69.756  28.233  0.00  0.00    +0.142 A 
ATOM     19  F   LIG    1      -22.185  69.592  27.457  0.00  0.00    -0.204 F 
ATOM     20  C   LIG    1      -24.530  69.712  27.699  0.00  0.00    +0.149 A 
ATOM     21  N   LIG    1      -25.649  69.874  28.437  0.00  0.00    -0.254 NA
BRANCH  15  22
ATOM     22  C   LIG    1      -26.831  70.294  30.499  0.00  0.00    +0.211 C 
BRANCH  22  23
ATOM     23  O   LIG    1      -27.913  70.462  29.592  0.00  0.00    -0.389 OA
ATOM     24  H   LIG    1      -28.657  69.949  29.955  0.00  0.00    +0.210 HD
ENDBRANCH  22  23
ENDBRANCH  15  22
ENDBRANCH  10  16
ENDBRANCH   1  11
BRANCH   4  25
ATOM     25  C   LIG    1      -22.243  76.711  30.005  0.00  0.00    +0.249 C 
ATOM     26  N   LIG    1      -21.538  77.430  30.956  0.00  0.00    -0.308 N 
ATOM     27  H   LIG    1      -22.038  77.668  31.810  0.00  0.00    +0.149 HD
ATOM     28  O   LIG    1      -21.791  76.401  28.915  0.00  0.00    -0.270 OA
BRANCH  26  29
ATOM     29  C   LIG    1      -20.202  77.898  30.773  0.00  0.00    +0.073 C 
ATOM     30  C   LIG    1      -19.018  77.039  31.122  0.00  0.00    +0.024 C 
ATOM     31  C   LIG    1      -19.356  78.223  31.978  0.00  0.00    +0.024 C 
ENDBRANCH  26  29
ENDBRANCH   4  25
TORSDOF 6
ENDMDL
MODEL 4
REMARK VINA RESULT:      -5.0     18.083     20.883
REMARK  Name = pdb/CHEMBL3675954.pdb
REMARK                            x       y       z     vdW  Elec       q    Type
REMARK                         _______ _______ _______ _____ _____    ______ ____
ROOT
ATOM      1  C   LIG    1      -19.968  83.487  12.889  0.00  0.00    +0.126 A 
ATOM      2  N   LIG    1      -20.170  82.505  13.747  0.00  0.00    -0.212 NA
ATOM      3  C   LIG    1      -19.086  81.878  14.299  0.00  0.00    +0.170 A 
ATOM      4  C   LIG    1      -18.990  80.860  15.230  0.00  0.00    +0.100 A 
ATOM      5  C   LIG    1      -17.611  80.571  15.278  0.00  0.00    +0.150 A 
ATOM      6  N   LIG    1      -16.875  81.385  14.516  0.00  0.00    -0.173 NA
ATOM      7  N   LIG    1      -17.783  82.209  13.940  0.00  0.00    -0.221 N 
ATOM      8  C   LIG    1      -17.547  83.278  13.094  0.00  0.00    +0.118 A 
ATOM      9  C   LIG    1      -18.571  83.973  12.583  0.00  0.00    +0.063 A 
ENDROOT
BRANCH   1  11
ATOM     10  C   LIG    1      -22.365  84.401  12.885  0.00  0.00    +0.107 C 
ATOM     11  N   LIG    1      -21.084  84.018  12.245  0.00  0.00    -0.308 N 
ATOM     12  C   LIG    1      -21.271  83.822  10.800  0.00  0.00    +0.107 C 
ATOM     13  C   LIG    1      -22.775  83.742  10.612  0.00  0.00    +0.021 C 
ATOM     14  C   LIG    1      -23.298  84.674  11.688  0.00  0.00    +0.029 C 
BRANCH  10  16
ATOM     15  CA  LIG    1      -22.493  85.576  15.180  0.00  0.00    +0.072 A 
ATOM     16  C   LIG    1      -22.291  85.623  13.783  0.00  0.00    -0.001 A 
ATOM     17  C   LIG    1      -22.005  86.883  13.220  0.00  0.00    +0.047 A 
ATOM     18  C   LIG    1      -21.870  87.998  14.028  0.00  0.00    +0.142 A 
ATOM     19  F   LIG    1      -21.547  89.183  13.497  0.00  0.00    -0.204 F 
ATOM     20  C   LIG    1      -22.056  87.859  15.385  0.00  0.00    +0.149 A 
ATOM     21  N   LIG    1      -22.379  86.686  15.971  0.00  0.00    -0.254 NA
BRANCH  15  22
ATOM     22  C   LIG    1      -22.856  84.320  15.942  0.00  0.00    +0.211 C 
BRANCH  22  23
ATOM     23  O   LIG    1      -21.743  83.446  16.077  0.00  0.00    -0.389 OA
ATOM     24  H   LIG    1      -21.012  83.988  16.426  0.00  0.00    +0.210 HD
ENDBRANCH  22  23
ENDBRANCH  15  22
ENDBRANCH  10  16
ENDBRANCH   1  11
BRANCH   4  25
ATOM     25  C   LIG    1      -20.059  80.211  15.974  0.00  0.00    +0.249 C 
ATOM     26  N   LIG    1      -21.332  80.571  15.565  0.00  0.00    -0.308 N 
ATOM     27  H   LIG    1      -21.393  81.256  14.814  0.00  0.00    +0.149 HD
ATOM     28  O   LIG    1      -19.833  79.442  16.894  0.00  0.00    -0.270 OA
BRANCH  26  29
ATOM     29  C   LIG    1      -22.531  80.092  16.173  0.00  0.00    +0.073 C 
ATOM     30  C   LIG    1      -23.391  79.059  15.499  0.00  0.00    +0.024 C 
ATOM     31  C   LIG    1      -23.867  80.477  15.591  0.00  0.00    +0.024 C 
ENDBRANCH  26  29
ENDBRANCH   4  25
TORSDOF 6
ENDMDL
MODEL 5
REMARK VINA RESULT:      -5.0     18.016     21.233
REMARK  Name = pdb/CHEMBL3675954.pdb
REMARK                            x       y       z     vdW  Elec       q    Type
REMARK                         _______ _______ _______ _____ _____    ______ ____
ROOT
ATOM      1  C   LIG    1      -32.116  67.934  15.792  0.00  0.00    +0.126 A 
ATOM      2  N   LIG    1      -31.303  67.619  16.783  0.00  0.00    -0.212 NA
ATOM      3  C   LIG    1      -31.817  66.985  17.881  0.00  0.00    +0.170 A 
ATOM      4  C   LIG    1      -31.216  66.515  19.035  0.00  0.00    +0.100 A 
ATOM      5  C   LIG    1      -32.297  66.090  19.833  0.00  0.00    +0.150 A 
ATOM      6  N   LIG    1      -33.479  66.193  19.219  0.00  0.00    -0.173 NA
ATOM      7  N   LIG    1      -33.176  66.714  18.006  0.00  0.00    -0.221 N 
ATOM      8  C   LIG    1      -34.034  66.974  16.952  0.00  0.00    +0.118 A 
ATOM      9  C   LIG    1      -33.571  67.527  15.825  0.00  0.00    +0.063 A 
ENDROOT
BRANCH   1  11
ATOM     10  C   LIG    1      -31.456  70.168  14.718  0.00  0.00    +0.107 C 
ATOM     11  N   LIG    1      -31.593  68.692  14.747  0.00  0.00    -0.308 N 
ATOM     12  C   LIG    1      -31.549  68.147  13.382  0.00  0.00    +0.107 C 
ATOM     13  C   LIG    1      -31.742  69.351  12.478  0.00  0.00    +0.021 C 
ATOM     14  C   LIG    1      -31.070  70.466  13.255  0.00  0.00    +0.029 C 
BRANCH  10  16
ATOM     15  CA  LIG    1      -30.695  71.148  16.983  0.00  0.00    +0.072 A 
ATOM     16  C   LIG    1      -30.409  70.732  15.663  0.00  0.00    -0.001 A 
ATOM     17  C   LIG    1      -29.075  70.856  15.227  0.00  0.00    +0.047 A 
ATOM     18  C   LIG    1      -28.094  71.307  16.093  0.00  0.00    +0.142 A 
ATOM     19  F   LIG    1      -26.819  71.374  15.694  0.00  0.00    -0.204 F 
ATOM     20  C   LIG    1      -28.453  71.666  17.372  0.00  0.00    +0.149 A 
ATOM     21  N   LIG    1      -29.724  71.614  17.825  0.00  0.00    -0.254 NA
BRANCH  15  22
ATOM     22  C   LIG    1      -32.078  71.132  17.596  0.00  0.00    +0.211 C 
BRANCH  22  23
ATOM     23  O   LIG    1      -32.879  72.203  17.112  0.00  0.00    -0.389 OA
ATOM     24  H   LIG    1      -33.575  71.798  16.565  0.00  0.00    +0.210 HD
ENDBRANCH  22  23
ENDBRANCH  15  22
ENDBRANCH  10  16
ENDBRANCH   1  11
BRANCH   4  25
ATOM     25  C   LIG    1      -29.800  66.487  19.369  0.00  0.00    +0.249 C 
ATOM     26  N   LIG    1      -29.161  67.707  19.231  0.00  0.00    -0.308 N 
ATOM     27  H   LIG    1      -29.728  68.483  18.896  0.00  0.00    +0.149 HD
ATOM     28  O   LIG    1      -29.237  65.459  19.710  0.00  0.00    -0.270 OA
BRANCH  26  29
ATOM     29  C   LIG    1      -27.767  67.909  19.465  0.00  0.00    +0.073 C 
ATOM     30  C   LIG    1      -27.188  69.292  19.586  0.00  0.00    +0.024 C 
ATOM     31  C   LIG    1      -26.902  68.471  18.366  0.00  0.00    +0.024 C 
ENDBRANCH  26  29
ENDBRANCH   4  25
TORSDOF 6
ENDMDL
MODEL 6
REMARK VINA RESULT:      -5.0     18.450     21.685
REMARK  Name = pdb/CHEMBL3675954.pdb
REMARK                            x       y       z     vdW  Elec       q    Type
REMARK                         _______ _______ _______ _____ _____    ______ ____
ROOT
ATOM      1  C   LIG    1      -20.345  81.913  13.928  0.00  0.00    +0.126 A 
ATOM      2  N   LIG    1      -20.084  83.206  13.970  0.00  0.00    -0.212 NA
ATOM      3  C   LIG    1      -18.926  83.664  13.402  0.00  0.00    +0.170 A 
ATOM      4  C   LIG    1      -18.412  84.942  13.269  0.00  0.00    +0.100 A 
ATOM      5  C   LIG    1      -17.131  84.736  12.718  0.00  0.00    +0.150 A 
ATOM      6  N   LIG    1      -16.875  83.455  12.440  0.00  0.00    -0.173 NA
ATOM      7  N   LIG    1      -17.995  82.802  12.832  0.00  0.00    -0.221 N 
ATOM      8  C   LIG    1      -18.278  81.453  12.717  0.00  0.00    +0.118 A 
ATOM      9  C   LIG    1      -19.430  80.962  13.191  0.00  0.00    +0.063 A 
ENDROOT
BRANCH   1  11
ATOM     10  C   LIG    1      -22.819  82.052  14.590  0.00  0.00    +0.107 C 
ATOM     11  N   LIG    1      -21.461  81.459  14.626  0.00  0.00    -0.308 N 
ATOM     12  C   LIG    1      -21.299  80.625  15.826  0.00  0.00    +0.107 C 
ATOM     13  C   LIG    1      -22.466  81.002  16.721  0.00  0.00    +0.021 C 
ATOM     14  C   LIG    1      -23.563  81.319  15.724  0.00  0.00    +0.029 C 
BRANCH  10  16
ATOM     15  CA  LIG    1      -23.745  82.920  12.341  0.00  0.00    +0.072 A 
ATOM     16  C   LIG    1      -23.559  81.877  13.276  0.00  0.00    -0.001 A 
ATOM     17  C   LIG    1      -24.097  80.617  12.944  0.00  0.00    +0.047 A 
ATOM     18  C   LIG    1      -24.718  80.419  11.724  0.00  0.00    +0.142 A 
ATOM     19  F   LIG    1      -25.181  79.209  11.389  0.00  0.00    -0.204 F 
ATOM     20  C   LIG    1      -24.833  81.483  10.859  0.00  0.00    +0.149 A 
ATOM     21  N   LIG    1      -24.380  82.723  11.147  0.00  0.00    -0.254 NA
BRANCH  15  22
ATOM     22  C   LIG    1      -23.280  84.343  12.556  0.00  0.00    +0.211 C 
BRANCH  22  23
ATOM     23  O   LIG    1      -21.971  84.552  12.040  0.00  0.00    -0.389 OA
ATOM     24  H   LIG    1      -22.078  85.083  11.231  0.00  0.00    +0.210 HD
ENDBRANCH  22  23
ENDBRANCH  15  22
ENDBRANCH  10  16
ENDBRANCH   1  11
BRANCH   4  25
ATOM     25  C   LIG    1      -19.031  86.207  13.633  0.00  0.00    +0.249 C 
ATOM     26  N   LIG    1      -20.254  86.078  14.270  0.00  0.00    -0.308 N 
ATOM     27  H   LIG    1      -20.602  85.130  14.397  0.00  0.00    +0.149 HD
ATOM     28  O   LIG    1      -18.514  87.280  13.365  0.00  0.00    -0.270 OA
BRANCH  26  29
ATOM     29  C   LIG    1      -21.059  87.181  14.683  0.00  0.00    +0.073 C 
ATOM     30  C   LIG    1      -22.477  86.984  15.142  0.00  0.00    +0.024 C 
ATOM     31  C   LIG    1      -22.208  87.629  13.816  0.00  0.00    +0.024 C 
ENDBRANCH  26  29
ENDBRANCH   4  25
TORSDOF 6
ENDMDL
MODEL 7
REMARK VINA RESULT:      -4.8      4.387      6.647
REMARK  Name = pdb/CHEMBL3675954.pdb
REMARK                            x       y       z     vdW  Elec       q    Type
REMARK                         _______ _______ _______ _____ _____    ______ ____
ROOT
ATOM      1  C   LIG    1      -25.104  73.697  31.473  0.00  0.00    +0.126 A 
ATOM      2  N   LIG    1      -24.244  74.554  30.953  0.00  0.00    -0.212 NA
ATOM      3  C   LIG    1      -24.586  75.878  30.896  0.00  0.00    +0.170 A 
ATOM      4  C   LIG    1      -23.892  76.986  30.444  0.00  0.00    +0.100 A 
ATOM      5  C   LIG    1      -24.834  78.033  30.525  0.00  0.00    +0.150 A 
ATOM      6  N   LIG    1      -25.997  77.655  31.061  0.00  0.00    -0.173 NA
ATOM      7  N   LIG    1      -25.830  76.336  31.318  0.00  0.00    -0.221 N 
ATOM      8  C   LIG    1      -26.719  75.467  31.927  0.00  0.00    +0.118 A 
ATOM      9  C   LIG    1      -26.405  74.175  32.074  0.00  0.00    +0.063 A 
ENDROOT
BRANCH   1  11
ATOM     10  C   LIG    1      -23.440  71.748  31.574  0.00  0.00    +0.107 C 
ATOM     11  N   LIG    1      -24.786  72.343  31.399  0.00  0.00    -0.308 N 
ATOM     12  C   LIG    1      -25.670  71.410  30.685  0.00  0.00    +0.107 C 
ATOM     13  C   LIG    1      -24.737  70.364  30.102  0.00  0.00    +0.021 C 
ATOM     14  C   LIG    1      -23.635  70.282  31.139  0.00  0.00    +0.029 C 
BRANCH  10  16
ATOM     15  CA  LIG    1      -21.866  72.692  33.390  0.00  0.00    +0.072 A 
ATOM     16  C   LIG    1      -22.892  71.808  32.989  0.00  0.00    -0.001 A 
ATOM     17  C   LIG    1      -23.420  70.950  33.975  0.00  0.00    +0.047 A 
ATOM     18  C   LIG    1      -22.981  71.033  35.285  0.00  0.00    +0.142 A 
ATOM     19  F   LIG    1      -23.519  70.255  36.230  0.00  0.00    -0.204 F 
ATOM     20  C   LIG    1      -21.995  71.942  35.596  0.00  0.00    +0.149 A 
ATOM     21  N   LIG    1      -21.421  72.753  34.682  0.00  0.00    -0.254 NA
BRANCH  15  22
ATOM     22  C   LIG    1      -21.154  73.644  32.455  0.00  0.00    +0.211 C 
BRANCH  22  23
ATOM     23  O   LIG    1      -21.647  74.972  32.580  0.00  0.00    -0.389 OA
ATOM     24  H   LIG    1      -21.434  75.258  33.487  0.00  0.00    +0.210 HD
ENDBRANCH  22  23
ENDBRANCH  15  22
ENDBRANCH  10  16
ENDBRANCH   1  11
BRANCH   4  25
ATOM     25  C   LIG    1      -22.520  77.061  29.969  0.00  0.00    +0.249 C 
ATOM     26  N   LIG    1      -21.638  77.633  30.870  0.00  0.00    -0.308 N 
ATOM     27  H   LIG    1      -22.034  77.959  31.750  0.00  0.00    +0.149 HD
ATOM     28  O   LIG    1      -22.199  76.674  28.857  0.00  0.00    -0.270 OA
BRANCH  26  29
ATOM     29  C   LIG    1      -20.252  77.846  30.606  0.00  0.00    +0.073 C 
ATOM     30  C   LIG    1      -19.239  76.756  30.827  0.00  0.00    +0.024 C 
ATOM     31  C   LIG    1      -19.280  77.932  31.755  0.00  0.00    +0.024 C 
ENDBRANCH  26  29
ENDBRANCH   4  25
TORSDOF 6
ENDMDL
MODEL 8
REMARK VINA RESULT:      -4.8     14.167     18.247
REMARK  Name = pdb/CHEMBL3675954.pdb
REMARK                            x       y       z     vdW  Elec       q    Type
REMARK                         _______ _______ _______ _____ _____    ______ ____
ROOT
ATOM      1  C   LIG    1      -38.589  72.280  25.776  0.00  0.00    +0.126 A 
ATOM      2  N   LIG    1      -37.513  72.225  26.539  0.00  0.00    -0.212 NA
ATOM      3  C   LIG    1      -36.480  71.410  26.162  0.00  0.00    +0.170 A 
ATOM      4  C   LIG    1      -35.241  71.176  26.732  0.00  0.00    +0.100 A 
ATOM      5  C   LIG    1      -34.698  70.137  25.949  0.00  0.00    +0.150 A 
ATOM      6  N   LIG    1      -35.473  69.793  24.918  0.00  0.00    -0.173 NA
ATOM      7  N   LIG    1      -36.554  70.601  25.033  0.00  0.00    -0.221 N 
ATOM      8  C   LIG    1      -37.644  70.693  24.185  0.00  0.00    +0.118 A 
ATOM      9  C   LIG    1      -38.651  71.528  24.467  0.00  0.00    +0.063 A 
ENDROOT
BRANCH   1  11
ATOM     10  C   LIG    1      -39.628  74.382  26.818  0.00  0.00    +0.107 C 
ATOM     11  N   LIG    1      -39.675  73.014  26.249  0.00  0.00    -0.308 N 
ATOM     12  C   LIG    1      -40.911  72.331  26.659  0.00  0.00    +0.107 C 
ATOM     13  C   LIG    1      -41.463  73.178  27.791  0.00  0.00    +0.021 C 
ATOM     14  C   LIG    1      -41.042  74.580  27.398  0.00  0.00    +0.029 C 
BRANCH  10  16
ATOM     15  CA  LIG    1      -38.112  76.228  25.837  0.00  0.00    +0.072 A 
ATOM     16  C   LIG    1      -39.311  75.480  25.818  0.00  0.00    -0.001 A 
ATOM     17  C   LIG    1      -40.241  75.787  24.805  0.00  0.00    +0.047 A 
ATOM     18  C   LIG    1      -39.945  76.739  23.846  0.00  0.00    +0.142 A 
ATOM     19  F   LIG    1      -40.808  76.992  22.855  0.00  0.00    -0.204 F 
ATOM     20  C   LIG    1      -38.742  77.404  23.922  0.00  0.00    +0.149 A 
ATOM     21  N   LIG    1      -37.836  77.183  24.898  0.00  0.00    -0.254 NA
BRANCH  15  22
ATOM     22  C   LIG    1      -37.028  76.066  26.879  0.00  0.00    +0.211 C 
BRANCH  22  23
ATOM     23  O   LIG    1      -36.255  74.894  26.656  0.00  0.00    -0.389 OA
ATOM     24  H   LIG    1      -35.397  75.195  26.309  0.00  0.00    +0.210 HD
ENDBRANCH  22  23
ENDBRANCH  15  22
ENDBRANCH  10  16
ENDBRANCH   1  11
BRANCH   4  25
ATOM     25  C   LIG    1      -34.641  71.825  27.887  0.00  0.00    +0.249 C 
ATOM     26  N   LIG    1      -34.078  73.060  27.614  0.00  0.00    -0.308 N 
ATOM     27  H   LIG    1      -34.119  73.375  26.646  0.00  0.00    +0.149 HD
ATOM     28  O   LIG    1      -34.619  71.297  28.987  0.00  0.00    -0.270 OA
BRANCH  26  29
ATOM     29  C   LIG    1      -33.400  73.860  28.581  0.00  0.00    +0.073 C 
ATOM     30  C   LIG    1      -34.153  74.791  29.492  0.00  0.00    +0.024 C 
ATOM     31  C   LIG    1      -33.313  75.353  28.385  0.00  0.00    +0.024 C 
ENDBRANCH  26  29
ENDBRANCH   4  25
TORSDOF 6
ENDMDL
MODEL 9
REMARK VINA RESULT:      -4.8     18.316     20.777
REMARK  Name = pdb/CHEMBL3675954.pdb
REMARK                            x       y       z     vdW  Elec       q    Type
REMARK                         _______ _______ _______ _____ _____    ______ ____
ROOT
ATOM      1  C   LIG    1      -38.825  68.937  22.792  0.00  0.00    +0.126 A 
ATOM      2  N   LIG    1      -37.721  68.620  23.443  0.00  0.00    -0.212 NA
ATOM      3  C   LIG    1      -36.657  68.128  22.736  0.00  0.00    +0.170 A 
ATOM      4  C   LIG    1      -35.389  67.747  23.134  0.00  0.00    +0.100 A 
ATOM      5  C   LIG    1      -34.816  67.202  21.966  0.00  0.00    +0.150 A 
ATOM      6  N   LIG    1      -35.607  67.302  20.895  0.00  0.00    -0.173 NA
ATOM      7  N   LIG    1      -36.726  67.901  21.365  0.00  0.00    -0.221 N 
ATOM      8  C   LIG    1      -37.848  68.288  20.654  0.00  0.00    +0.118 A 
ATOM      9  C   LIG    1      -38.890  68.842  21.285  0.00  0.00    +0.063 A 
ENDROOT
BRANCH   1  11
ATOM     10  C   LIG    1      -39.908  70.054  24.832  0.00  0.00    +0.107 C 
ATOM     11  N   LIG    1      -39.933  69.311  23.549  0.00  0.00    -0.308 N 
ATOM     12  C   LIG    1      -41.214  68.607  23.390  0.00  0.00    +0.107 C 
ATOM     13  C   LIG    1      -41.846  68.637  24.770  0.00  0.00    +0.021 C 
ATOM     14  C   LIG    1      -41.364  69.960  25.331  0.00  0.00    +0.029 C 
BRANCH  10  16
ATOM     15  CA  LIG    1      -38.215  71.981  25.126  0.00  0.00    +0.072 A 
ATOM     16  C   LIG    1      -39.483  71.508  24.721  0.00  0.00    -0.001 A 
ATOM     17  C   LIG    1      -40.379  72.455  24.187  0.00  0.00    +0.047 A 
ATOM     18  C   LIG    1      -39.989  73.772  24.017  0.00  0.00    +0.142 A 
ATOM     19  F   LIG    1      -40.823  74.658  23.462  0.00  0.00    -0.204 F 
ATOM     20  C   LIG    1      -38.725  74.144  24.414  0.00  0.00    +0.149 A 
ATOM     21  N   LIG    1      -37.844  73.288  24.977  0.00  0.00    -0.254 NA
BRANCH  15  22
ATOM     22  C   LIG    1      -37.151  71.115  25.765  0.00  0.00    +0.211 C 
BRANCH  22  23
ATOM     23  O   LIG    1      -35.893  71.266  25.119  0.00  0.00    -0.389 OA
ATOM     24  H   LIG    1      -35.238  71.403  25.826  0.00  0.00    +0.210 HD
ENDBRANCH  22  23
ENDBRANCH  15  22
ENDBRANCH  10  16
ENDBRANCH   1  11
BRANCH   4  25
ATOM     25  C   LIG    1      -34.785  67.854  24.453  0.00  0.00    +0.249 C 
ATOM     26  N   LIG    1      -34.735  66.660  25.152  0.00  0.00    -0.308 N 
ATOM     27  H   LIG    1      -35.137  65.846  24.692  0.00  0.00    +0.149 HD
ATOM     28  O   LIG    1      -34.390  68.920  24.898  0.00  0.00    -0.270 OA
BRANCH  26  29
ATOM     29  C   LIG    1      -34.222  66.533  26.478  0.00  0.00    +0.073 C 
ATOM     30  C   LIG    1      -34.327  65.237  27.234  0.00  0.00    +0.024 C 
ATOM     31  C   LIG    1      -35.179  66.403  27.636  0.00  0.00    +0.024 C 
ENDBRANCH  26  29
ENDBRANCH   4  25
TORSDOF 6
ENDMDL
