MODEL 1
REMARK VINA RESULT:      -5.6      0.000      0.000
REMARK  Name = pdb/CHEMBL1231124.pdb
REMARK                            x       y       z     vdW  Elec       q    Type
REMARK                         _______ _______ _______ _____ _____    ______ ____
ROOT
ATOM      1  C   LIG    1      -19.242  82.649  14.041  0.00  0.00    +0.217 A 
ATOM      2  N   LIG    1      -20.366  82.463  14.754  0.00  0.00    -0.198 NA
ATOM      3  C   LIG    1      -20.424  81.402  15.599  0.00  0.00    +0.148 A 
ATOM      4  C   LIG    1      -19.355  80.521  15.725  0.00  0.00    +0.099 A 
ATOM      5 CL   LIG    1      -19.376  79.151  16.761  0.00  0.00    -0.078 Cl
ATOM      6  C   LIG    1      -18.246  80.807  14.969  0.00  0.00    +0.137 A 
ATOM      7  N   LIG    1      -18.171  81.852  14.126  0.00  0.00    -0.221 NA
ENDROOT
BRANCH   1   8
ATOM      8  N   LIG    1      -19.255  83.698  13.135  0.00  0.00    -0.304 N 
ATOM      9  H   LIG    1      -20.210  83.781  12.797  0.00  0.00    +0.150 HD
BRANCH   8  11
ATOM     10  C   LIG    1      -17.604  85.426  12.707  0.00  0.00    +0.036 C 
ATOM     11  C   LIG    1      -18.731  84.977  13.641  0.00  0.00    +0.138 C 
BRANCH  11  12
ATOM     12  C   LIG    1      -19.808  86.068  13.715  0.00  0.00    +0.149 A 
ATOM     13  N   LIG    1      -19.425  87.365  13.593  0.00  0.00    -0.236 NA
ATOM     14  C   LIG    1      -20.405  88.293  13.670  0.00  0.00    +0.152 A 
ATOM     15  C   LIG    1      -21.724  87.981  13.887  0.00  0.00    +0.159 A 
ATOM     16  F   LIG    1      -22.670  88.923  13.970  0.00  0.00    -0.202 F 
ATOM     17  C   LIG    1      -22.016  86.648  14.017  0.00  0.00    +0.152 A 
ATOM     18  N   LIG    1      -21.085  85.672  13.928  0.00  0.00    -0.236 NA
ENDBRANCH  11  12
ENDBRANCH   8  11
ENDBRANCH   1   8
BRANCH   3  19
ATOM     19  N   LIG    1      -21.614  81.146  16.334  0.00  0.00    -0.283 N 
ATOM     20  H   LIG    1      -21.534  81.403  17.314  0.00  0.00    +0.155 HD
BRANCH  19  21
ATOM     21  C   LIG    1      -22.826  80.816  15.830  0.00  0.00    +0.120 A 
ATOM     22  N   LIG    1      -23.581  81.673  15.076  0.00  0.00    -0.264 N 
ATOM     23  H   LIG    1      -23.324  82.620  14.812  0.00  0.00    +0.190 HD
ATOM     24  N   LIG    1      -24.770  81.170  14.700  0.00  0.00    -0.178 NA
ATOM     25  C   LIG    1      -24.767  79.934  15.214  0.00  0.00    +0.062 A 
ATOM     26  C   LIG    1      -25.930  79.038  15.017  0.00  0.00    +0.067 C 
ATOM     27  C   LIG    1      -23.566  79.661  15.918  0.00  0.00    +0.068 A 
ENDBRANCH  19  21
ENDBRANCH   3  19
TORSDOF 5
ENDMDL
MODEL 2
REMARK VINA RESULT:      -5.4     18.280     19.910
REMARK  Name = pdb/CHEMBL1231124.pdb
REMARK                            x       y       z     vdW  Elec       q    Type
REMARK                         _______ _______ _______ _____ _____    ______ ____
ROOT
ATOM      1  C   LIG    1      -30.633  75.323  30.905  0.00  0.00    +0.217 A 
ATOM      2  N   LIG    1      -30.700  76.272  29.957  0.00  0.00    -0.198 NA
ATOM      3  C   LIG    1      -31.702  76.202  29.045  0.00  0.00    +0.148 A 
ATOM      4  C   LIG    1      -32.637  75.173  29.079  0.00  0.00    +0.099 A 
ATOM      5 CL   LIG    1      -33.916  75.019  27.941  0.00  0.00    -0.078 Cl
ATOM      6  C   LIG    1      -32.495  74.262  30.095  0.00  0.00    +0.137 A 
ATOM      7  N   LIG    1      -31.507  74.315  31.007  0.00  0.00    -0.221 NA
ENDROOT
BRANCH   1   8
ATOM      8  N   LIG    1      -29.550  75.389  31.768  0.00  0.00    -0.304 N 
ATOM      9  H   LIG    1      -28.939  74.611  31.531  0.00  0.00    +0.150 HD
BRANCH   8  11
ATOM     10  C   LIG    1      -29.107  77.350  33.128  0.00  0.00    +0.036 C 
ATOM     11  C   LIG    1      -28.832  76.673  31.783  0.00  0.00    +0.138 C 
BRANCH  11  12
ATOM     12  C   LIG    1      -27.319  76.506  31.587  0.00  0.00    +0.149 A 
ATOM     13  N   LIG    1      -26.782  75.267  31.722  0.00  0.00    -0.236 NA
ATOM     14  C   LIG    1      -25.445  75.167  31.547  0.00  0.00    +0.152 A 
ATOM     15  C   LIG    1      -24.637  76.242  31.273  0.00  0.00    +0.159 A 
ATOM     16  F   LIG    1      -23.314  76.113  31.115  0.00  0.00    -0.202 F 
ATOM     17  C   LIG    1      -25.263  77.458  31.172  0.00  0.00    +0.152 A 
ATOM     18  N   LIG    1      -26.597  77.619  31.316  0.00  0.00    -0.236 NA
ENDBRANCH  11  12
ENDBRANCH   8  11
ENDBRANCH   1   8
BRANCH   3  19
ATOM     19  N   LIG    1      -31.778  77.163  27.999  0.00  0.00    -0.283 N 
ATOM     20  H   LIG    1      -31.203  76.918  27.198  0.00  0.00    +0.155 HD
BRANCH  19  21
ATOM     21  C   LIG    1      -32.654  78.190  27.900  0.00  0.00    +0.120 A 
ATOM     22  N   LIG    1      -32.764  78.973  26.784  0.00  0.00    -0.264 N 
ATOM     23  H   LIG    1      -32.226  78.873  25.928  0.00  0.00    +0.190 HD
ATOM     24  N   LIG    1      -33.667  79.964  26.897  0.00  0.00    -0.178 NA
ATOM     25  C   LIG    1      -34.170  79.795  28.125  0.00  0.00    +0.062 A 
ATOM     26  C   LIG    1      -35.215  80.710  28.640  0.00  0.00    +0.067 C 
ATOM     27  C   LIG    1      -33.577  78.689  28.788  0.00  0.00    +0.068 A 
ENDBRANCH  19  21
ENDBRANCH   3  19
TORSDOF 5
ENDMDL
MODEL 3
REMARK VINA RESULT:      -5.4      4.194      8.393
REMARK  Name = pdb/CHEMBL1231124.pdb
REMARK                            x       y       z     vdW  Elec       q    Type
REMARK                         _______ _______ _______ _____ _____    ______ ____
ROOT
ATOM      1  C   LIG    1      -23.896  81.140  13.907  0.00  0.00    +0.217 A 
ATOM      2  N   LIG    1      -23.843  82.225  14.698  0.00  0.00    -0.198 NA
ATOM      3  C   LIG    1      -22.680  82.924  14.757  0.00  0.00    +0.148 A 
ATOM      4  C   LIG    1      -21.564  82.529  14.027  0.00  0.00    +0.099 A 
ATOM      5 CL   LIG    1      -20.060  83.358  14.075  0.00  0.00    -0.078 Cl
ATOM      6  C   LIG    1      -21.724  81.419  13.235  0.00  0.00    +0.137 A 
ATOM      7  N   LIG    1      -22.867  80.715  13.166  0.00  0.00    -0.221 NA
ENDROOT
BRANCH   1   8
ATOM      8  N   LIG    1      -25.075  80.414  13.937  0.00  0.00    -0.304 N 
ATOM      9  H   LIG    1      -25.507  80.519  13.022  0.00  0.00    +0.150 HD
BRANCH   8  11
ATOM     10  C   LIG    1      -24.848  78.941  15.853  0.00  0.00    +0.036 C 
ATOM     11  C   LIG    1      -24.938  79.001  14.326  0.00  0.00    +0.138 C 
BRANCH  11  12
ATOM     12  C   LIG    1      -26.112  78.139  13.842  0.00  0.00    +0.149 A 
ATOM     13  N   LIG    1      -27.039  78.706  13.029  0.00  0.00    -0.236 NA
ATOM     14  C   LIG    1      -28.059  77.911  12.631  0.00  0.00    +0.152 A 
ATOM     15  C   LIG    1      -28.197  76.605  13.029  0.00  0.00    +0.159 A 
ATOM     16  F   LIG    1      -29.224  75.847  12.627  0.00  0.00    -0.202 F 
ATOM     17  C   LIG    1      -27.224  76.122  13.865  0.00  0.00    +0.152 A 
ATOM     18  N   LIG    1      -26.170  76.860  14.281  0.00  0.00    -0.236 NA
ENDBRANCH  11  12
ENDBRANCH   8  11
ENDBRANCH   1   8
BRANCH   3  19
ATOM     19  N   LIG    1      -22.573  84.049  15.619  0.00  0.00    -0.283 N 
ATOM     20  H   LIG    1      -22.382  83.791  16.584  0.00  0.00    +0.155 HD
BRANCH  19  21
ATOM     21  C   LIG    1      -22.493  85.350  15.252  0.00  0.00    +0.120 A 
ATOM     22  N   LIG    1      -22.099  86.345  16.104  0.00  0.00    -0.264 N 
ATOM     23  H   LIG    1      -21.822  86.225  17.075  0.00  0.00    +0.190 HD
ATOM     24  N   LIG    1      -22.121  87.574  15.560  0.00  0.00    -0.178 NA
ATOM     25  C   LIG    1      -22.523  87.355  14.302  0.00  0.00    +0.062 A 
ATOM     26  C   LIG    1      -22.680  88.486  13.358  0.00  0.00    +0.067 C 
ATOM     27  C   LIG    1      -22.756  85.977  14.057  0.00  0.00    +0.068 A 
ENDBRANCH  19  21
ENDBRANCH   3  19
TORSDOF 5
ENDMDL
MODEL 4
REMARK VINA RESULT:      -5.4     19.767     21.285
REMARK  Name = pdb/CHEMBL1231124.pdb
REMARK                            x       y       z     vdW  Elec       q    Type
REMARK                         _______ _______ _______ _____ _____    ______ ____
ROOT
ATOM      1  C   LIG    1      -37.455  76.126  25.399  0.00  0.00    +0.217 A 
ATOM      2  N   LIG    1      -37.834  77.153  24.618  0.00  0.00    -0.198 NA
ATOM      3  C   LIG    1      -39.047  77.089  24.014  0.00  0.00    +0.148 A 
ATOM      4  C   LIG    1      -39.882  75.990  24.187  0.00  0.00    +0.099 A 
ATOM      5 CL   LIG    1      -41.419  75.842  23.433  0.00  0.00    -0.078 Cl
ATOM      6  C   LIG    1      -39.413  75.002  25.016  0.00  0.00    +0.137 A 
ATOM      7  N   LIG    1      -38.213  75.047  25.621  0.00  0.00    -0.221 NA
ENDROOT
BRANCH   1   8
ATOM      8  N   LIG    1      -36.178  76.197  25.932  0.00  0.00    -0.304 N 
ATOM      9  H   LIG    1      -35.661  76.865  25.367  0.00  0.00    +0.150 HD
BRANCH   8  11
ATOM     10  C   LIG    1      -35.081  75.581  28.009  0.00  0.00    +0.036 C 
ATOM     11  C   LIG    1      -36.110  76.515  27.368  0.00  0.00    +0.138 C 
BRANCH  11  12
ATOM     12  C   LIG    1      -35.719  77.975  27.631  0.00  0.00    +0.149 A 
ATOM     13  N   LIG    1      -36.701  78.912  27.668  0.00  0.00    -0.236 NA
ATOM     14  C   LIG    1      -36.310  80.187  27.897  0.00  0.00    +0.152 A 
ATOM     15  C   LIG    1      -34.999  80.556  28.062  0.00  0.00    +0.159 A 
ATOM     16  F   LIG    1      -34.642  81.827  28.277  0.00  0.00    -0.202 F 
ATOM     17  C   LIG    1      -34.074  79.546  27.992  0.00  0.00    +0.152 A 
ATOM     18  N   LIG    1      -34.403  78.252  27.786  0.00  0.00    -0.236 NA
ENDBRANCH  11  12
ENDBRANCH   8  11
ENDBRANCH   1   8
BRANCH   3  19
ATOM     19  N   LIG    1      -39.461  78.135  23.145  0.00  0.00    -0.283 N 
ATOM     20  H   LIG    1      -39.754  77.796  22.232  0.00  0.00    +0.155 HD
BRANCH  19  21
ATOM     21  C   LIG    1      -39.689  79.428  23.477  0.00  0.00    +0.120 A 
ATOM     22  N   LIG    1      -39.155  80.482  22.788  0.00  0.00    -0.264 N 
ATOM     23  H   LIG    1      -38.554  80.418  21.971  0.00  0.00    +0.190 HD
ATOM     24  N   LIG    1      -39.470  81.686  23.298  0.00  0.00    -0.178 NA
ATOM     25  C   LIG    1      -40.255  81.391  24.341  0.00  0.00    +0.062 A 
ATOM     26  C   LIG    1      -40.817  82.472  25.184  0.00  0.00    +0.067 C 
ATOM     27  C   LIG    1      -40.433  79.991  24.487  0.00  0.00    +0.068 A 
ENDBRANCH  19  21
ENDBRANCH   3  19
TORSDOF 5
ENDMDL
MODEL 5
REMARK VINA RESULT:      -5.4     17.815     19.949
REMARK  Name = pdb/CHEMBL1231124.pdb
REMARK                            x       y       z     vdW  Elec       q    Type
REMARK                         _______ _______ _______ _____ _____    ______ ____
ROOT
ATOM      1  C   LIG    1      -26.299  76.953  31.321  0.00  0.00    +0.217 A 
ATOM      2  N   LIG    1      -25.829  75.706  31.492  0.00  0.00    -0.198 NA
ATOM      3  C   LIG    1      -24.571  75.428  31.066  0.00  0.00    +0.148 A 
ATOM      4  C   LIG    1      -23.784  76.401  30.459  0.00  0.00    +0.099 A 
ATOM      5 CL   LIG    1      -22.193  76.105  29.880  0.00  0.00    -0.078 Cl
ATOM      6  C   LIG    1      -24.346  77.647  30.346  0.00  0.00    +0.137 A 
ATOM      7  N   LIG    1      -25.591  77.941  30.762  0.00  0.00    -0.221 NA
ENDROOT
BRANCH   1   8
ATOM      8  N   LIG    1      -27.614  77.173  31.700  0.00  0.00    -0.304 N 
ATOM      9  H   LIG    1      -28.095  77.546  30.886  0.00  0.00    +0.150 HD
BRANCH   8  11
ATOM     10  C   LIG    1      -28.874  76.419  33.633  0.00  0.00    +0.036 C 
ATOM     11  C   LIG    1      -28.310  76.009  32.271  0.00  0.00    +0.138 C 
BRANCH  11  12
ATOM     12  C   LIG    1      -29.446  75.502  31.372  0.00  0.00    +0.149 A 
ATOM     13  N   LIG    1      -30.003  76.364  30.483  0.00  0.00    -0.236 NA
ATOM     14  C   LIG    1      -31.004  75.876  29.716  0.00  0.00    +0.152 A 
ATOM     15  C   LIG    1      -31.478  74.592  29.820  0.00  0.00    +0.159 A 
ATOM     16  F   LIG    1      -32.478  74.141  29.054  0.00  0.00    -0.202 F 
ATOM     17  C   LIG    1      -30.869  73.798  30.757  0.00  0.00    +0.152 A 
ATOM     18  N   LIG    1      -29.850  74.220  31.538  0.00  0.00    -0.236 NA
ENDBRANCH  11  12
ENDBRANCH   8  11
ENDBRANCH   1   8
BRANCH   3  19
ATOM     19  N   LIG    1      -24.057  74.108  31.188  0.00  0.00    -0.283 N 
ATOM     20  H   LIG    1      -23.179  74.072  31.698  0.00  0.00    +0.155 HD
BRANCH  19  21
ATOM     21  C   LIG    1      -24.702  72.954  30.893  0.00  0.00    +0.120 A 
ATOM     22  N   LIG    1      -26.011  72.725  31.217  0.00  0.00    -0.264 N 
ATOM     23  H   LIG    1      -26.631  73.374  31.693  0.00  0.00    +0.190 HD
ATOM     24  N   LIG    1      -26.456  71.504  30.870  0.00  0.00    -0.178 NA
ATOM     25  C   LIG    1      -25.396  70.938  30.280  0.00  0.00    +0.062 A 
ATOM     26  C   LIG    1      -25.483  69.557  29.751  0.00  0.00    +0.067 C 
ATOM     27  C   LIG    1      -24.278  71.810  30.258  0.00  0.00    +0.068 A 
ENDBRANCH  19  21
ENDBRANCH   3  19
TORSDOF 5
ENDMDL
MODEL 6
REMARK VINA RESULT:      -5.3     18.139     21.173
REMARK  Name = pdb/CHEMBL1231124.pdb
REMARK                            x       y       z     vdW  Elec       q    Type
REMARK                         _______ _______ _______ _____ _____    ______ ____
ROOT
ATOM      1  C   LIG    1      -37.879  78.898  27.561  0.00  0.00    +0.217 A 
ATOM      2  N   LIG    1      -37.699  78.067  26.521  0.00  0.00    -0.198 NA
ATOM      3  C   LIG    1      -38.695  77.955  25.606  0.00  0.00    +0.148 A 
ATOM      4  C   LIG    1      -39.880  78.672  25.738  0.00  0.00    +0.099 A 
ATOM      5 CL   LIG    1      -41.184  78.557  24.626  0.00  0.00    -0.078 Cl
ATOM      6  C   LIG    1      -39.961  79.507  26.825  0.00  0.00    +0.137 A 
ATOM      7  N   LIG    1      -38.984  79.630  27.741  0.00  0.00    -0.221 NA
ENDROOT
BRANCH   1   8
ATOM      8  N   LIG    1      -36.870  78.924  28.511  0.00  0.00    -0.304 N 
ATOM      9  H   LIG    1      -36.562  77.963  28.637  0.00  0.00    +0.150 HD
BRANCH   8  11
ATOM     10  C   LIG    1      -35.356  80.530  29.523  0.00  0.00    +0.036 C 
ATOM     11  C   LIG    1      -35.750  79.832  28.218  0.00  0.00    +0.138 C 
BRANCH  11  12
ATOM     12  C   LIG    1      -34.533  79.100  27.635  0.00  0.00    +0.149 A 
ATOM     13  N   LIG    1      -33.548  79.837  27.061  0.00  0.00    -0.236 NA
ATOM     14  C   LIG    1      -32.498  79.152  26.556  0.00  0.00    +0.152 A 
ATOM     15  C   LIG    1      -32.409  77.782  26.579  0.00  0.00    +0.159 A 
ATOM     16  F   LIG    1      -31.362  77.131  26.061  0.00  0.00    -0.202 F 
ATOM     17  C   LIG    1      -33.458  77.119  27.162  0.00  0.00    +0.152 A 
ATOM     18  N   LIG    1      -34.525  77.748  27.703  0.00  0.00    -0.236 NA
ENDBRANCH  11  12
ENDBRANCH   8  11
ENDBRANCH   1   8
BRANCH   3  19
ATOM     19  N   LIG    1      -38.559  77.051  24.517  0.00  0.00    -0.283 N 
ATOM     20  H   LIG    1      -38.151  77.485  23.693  0.00  0.00    +0.155 HD
BRANCH  19  21
ATOM     21  C   LIG    1      -38.714  75.706  24.553  0.00  0.00    +0.120 A 
ATOM     22  N   LIG    1      -37.715  74.848  24.922  0.00  0.00    -0.264 N 
ATOM     23  H   LIG    1      -36.776  75.112  25.209  0.00  0.00    +0.190 HD
ATOM     24  N   LIG    1      -38.056  73.549  24.857  0.00  0.00    -0.178 NA
ATOM     25  C   LIG    1      -39.331  73.577  24.452  0.00  0.00    +0.062 A 
ATOM     26  C   LIG    1      -40.082  72.316  24.252  0.00  0.00    +0.067 C 
ATOM     27  C   LIG    1      -39.793  74.905  24.261  0.00  0.00    +0.068 A 
ENDBRANCH  19  21
ENDBRANCH   3  19
TORSDOF 5
ENDMDL
MODEL 7
REMARK VINA RESULT:      -5.2     19.594     21.509
REMARK  Name = pdb/CHEMBL1231124.pdb
REMARK                            x       y       z     vdW  Elec       q    Type
REMARK                         _______ _______ _______ _____ _____    ______ ____
ROOT
ATOM      1  C   LIG    1      -37.201  76.193  25.474  0.00  0.00    +0.217 A 
ATOM      2  N   LIG    1      -37.551  74.896  25.498  0.00  0.00    -0.198 NA
ATOM      3  C   LIG    1      -38.733  74.537  24.935  0.00  0.00    +0.148 A 
ATOM      4  C   LIG    1      -39.570  75.483  24.352  0.00  0.00    +0.099 A 
ATOM      5 CL   LIG    1      -41.086  75.094  23.643  0.00  0.00    -0.078 Cl
ATOM      6  C   LIG    1      -39.116  76.778  24.362  0.00  0.00    +0.137 A 
ATOM      7  N   LIG    1      -37.949  77.151  24.916  0.00  0.00    -0.221 NA
ENDROOT
BRANCH   1   8
ATOM      8  N   LIG    1      -36.025  76.525  26.127  0.00  0.00    -0.304 N 
ATOM      9  H   LIG    1      -35.608  77.293  25.608  0.00  0.00    +0.150 HD
BRANCH   8  11
ATOM     10  C   LIG    1      -35.347  75.807  28.345  0.00  0.00    +0.036 C 
ATOM     11  C   LIG    1      -36.163  76.836  27.559  0.00  0.00    +0.138 C 
BRANCH  11  12
ATOM     12  C   LIG    1      -35.683  78.252  27.906  0.00  0.00    +0.149 A 
ATOM     13  N   LIG    1      -34.435  78.624  27.524  0.00  0.00    -0.236 NA
ATOM     14  C   LIG    1      -34.051  79.877  27.855  0.00  0.00    +0.152 A 
ATOM     15  C   LIG    1      -34.843  80.747  28.562  0.00  0.00    +0.159 A 
ATOM     16  F   LIG    1      -34.431  81.979  28.884  0.00  0.00    -0.202 F 
ATOM     17  C   LIG    1      -36.081  80.280  28.921  0.00  0.00    +0.152 A 
ATOM     18  N   LIG    1      -36.530  79.046  28.603  0.00  0.00    -0.236 NA
ENDBRANCH  11  12
ENDBRANCH   8  11
ENDBRANCH   1   8
BRANCH   3  19
ATOM     19  N   LIG    1      -39.158  73.181  24.983  0.00  0.00    -0.283 N 
ATOM     20  H   LIG    1      -40.149  73.086  25.189  0.00  0.00    +0.155 HD
BRANCH  19  21
ATOM     21  C   LIG    1      -38.453  72.094  24.592  0.00  0.00    +0.120 A 
ATOM     22  N   LIG    1      -37.093  72.002  24.711  0.00  0.00    -0.264 N 
ATOM     23  H   LIG    1      -36.478  72.713  25.099  0.00  0.00    +0.190 HD
ATOM     24  N   LIG    1      -36.577  70.857  24.233  0.00  0.00    -0.178 NA
ATOM     25  C   LIG    1      -37.651  70.178  23.812  0.00  0.00    +0.062 A 
ATOM     26  C   LIG    1      -37.498  68.836  23.203  0.00  0.00    +0.067 C 
ATOM     27  C   LIG    1      -38.850  70.905  24.028  0.00  0.00    +0.068 A 
ENDBRANCH  19  21
ENDBRANCH   3  19
TORSDOF 5
ENDMDL
MODEL 8
REMARK VINA RESULT:      -5.2     22.459     23.480
REMARK  Name = pdb/CHEMBL1231124.pdb
REMARK                            x       y       z     vdW  Elec       q    Type
REMARK                         _______ _______ _______ _____ _____    ______ ____
ROOT
ATOM      1  C   LIG    1      -34.639  67.686  24.773  0.00  0.00    +0.217 A 
ATOM      2  N   LIG    1      -35.129  68.915  24.536  0.00  0.00    -0.198 NA
ATOM      3  C   LIG    1      -35.107  69.823  25.545  0.00  0.00    +0.148 A 
ATOM      4  C   LIG    1      -34.600  69.496  26.798  0.00  0.00    +0.099 A 
ATOM      5 CL   LIG    1      -34.564  70.594  28.119  0.00  0.00    -0.078 Cl
ATOM      6  C   LIG    1      -34.107  68.222  26.935  0.00  0.00    +0.137 A 
ATOM      7  N   LIG    1      -34.121  67.310  25.947  0.00  0.00    -0.221 NA
ENDROOT
BRANCH   1   8
ATOM      8  N   LIG    1      -34.752  66.769  23.740  0.00  0.00    -0.304 N 
ATOM      9  H   LIG    1      -35.562  66.191  23.949  0.00  0.00    +0.150 HD
BRANCH   8  11
ATOM     10  C   LIG    1      -33.983  66.458  21.459  0.00  0.00    +0.036 C 
ATOM     11  C   LIG    1      -34.815  67.345  22.387  0.00  0.00    +0.138 C 
BRANCH  11  12
ATOM     12  C   LIG    1      -36.252  67.447  21.856  0.00  0.00    +0.149 A 
ATOM     13  N   LIG    1      -36.928  66.299  21.595  0.00  0.00    -0.236 NA
ATOM     14  C   LIG    1      -38.188  66.436  21.123  0.00  0.00    +0.152 A 
ATOM     15  C   LIG    1      -38.776  67.652  20.882  0.00  0.00    +0.159 A 
ATOM     16  F   LIG    1      -40.021  67.755  20.404  0.00  0.00    -0.202 F 
ATOM     17  C   LIG    1      -38.012  68.757  21.157  0.00  0.00    +0.152 A 
ATOM     18  N   LIG    1      -36.755  68.686  21.649  0.00  0.00    -0.236 NA
ENDBRANCH  11  12
ENDBRANCH   8  11
ENDBRANCH   1   8
BRANCH   3  19
ATOM     19  N   LIG    1      -35.660  71.118  25.345  0.00  0.00    -0.283 N 
ATOM     20  H   LIG    1      -34.959  71.854  25.372  0.00  0.00    +0.155 HD
BRANCH  19  21
ATOM     21  C   LIG    1      -36.916  71.412  24.936  0.00  0.00    +0.120 A 
ATOM     22  N   LIG    1      -37.718  70.516  24.283  0.00  0.00    -0.264 N 
ATOM     23  H   LIG    1      -37.474  69.559  24.044  0.00  0.00    +0.190 HD
ATOM     24  N   LIG    1      -38.917  71.012  23.928  0.00  0.00    -0.178 NA
ATOM     25  C   LIG    1      -38.891  72.266  24.393  0.00  0.00    +0.062 A 
ATOM     26  C   LIG    1      -40.053  73.163  24.196  0.00  0.00    +0.067 C 
ATOM     27  C   LIG    1      -37.665  72.560  25.044  0.00  0.00    +0.068 A 
ENDBRANCH  19  21
ENDBRANCH   3  19
TORSDOF 5
ENDMDL
MODEL 9
REMARK VINA RESULT:      -5.0     17.152     19.120
REMARK  Name = pdb/CHEMBL1231124.pdb
REMARK                            x       y       z     vdW  Elec       q    Type
REMARK                         _______ _______ _______ _____ _____    ______ ____
ROOT
ATOM      1  C   LIG    1      -19.160  78.873  32.919  0.00  0.00    +0.217 A 
ATOM      2  N   LIG    1      -20.022  78.369  32.020  0.00  0.00    -0.198 NA
ATOM      3  C   LIG    1      -19.534  77.573  31.035  0.00  0.00    +0.148 A 
ATOM      4  C   LIG    1      -18.175  77.288  30.945  0.00  0.00    +0.099 A 
ATOM      5 CL   LIG    1      -17.495  76.306  29.711  0.00  0.00    -0.078 Cl
ATOM      6  C   LIG    1      -17.379  77.835  31.920  0.00  0.00    +0.137 A 
ATOM      7  N   LIG    1      -17.845  78.626  32.903  0.00  0.00    -0.221 NA
ENDROOT
BRANCH   1   8
ATOM      8  N   LIG    1      -19.689  79.741  33.861  0.00  0.00    -0.304 N 
ATOM      9  H   LIG    1      -20.297  80.382  33.359  0.00  0.00    +0.150 HD
BRANCH   8  11
ATOM     10  C   LIG    1      -20.268  80.042  36.199  0.00  0.00    +0.036 C 
ATOM     11  C   LIG    1      -20.372  79.101  34.996  0.00  0.00    +0.138 C 
BRANCH  11  12
ATOM     12  C   LIG    1      -21.848  78.798  34.703  0.00  0.00    +0.149 A 
ATOM     13  N   LIG    1      -22.227  77.502  34.564  0.00  0.00    -0.236 NA
ATOM     14  C   LIG    1      -23.535  77.281  34.301  0.00  0.00    +0.152 A 
ATOM     15  C   LIG    1      -24.455  78.289  34.148  0.00  0.00    +0.159 A 
ATOM     16  F   LIG    1      -25.741  78.039  33.877  0.00  0.00    -0.202 F 
ATOM     17  C   LIG    1      -23.979  79.567  34.287  0.00  0.00    +0.152 A 
ATOM     18  N   LIG    1      -22.688  79.851  34.571  0.00  0.00    -0.236 NA
ENDBRANCH  11  12
ENDBRANCH   8  11
ENDBRANCH   1   8
BRANCH   3  19
ATOM     19  N   LIG    1      -20.410  77.060  30.039  0.00  0.00    -0.283 N 
ATOM     20  H   LIG    1      -19.915  76.680  29.237  0.00  0.00    +0.155 HD
BRANCH  19  21
ATOM     21  C   LIG    1      -21.743  76.853  30.157  0.00  0.00    +0.120 A 
ATOM     22  N   LIG    1      -22.677  77.606  29.502  0.00  0.00    -0.264 N 
ATOM     23  H   LIG    1      -22.485  78.377  28.867  0.00  0.00    +0.190 HD
ATOM     24  N   LIG    1      -23.948  77.266  29.779  0.00  0.00    -0.178 NA
ATOM     25  C   LIG    1      -23.822  76.239  30.628  0.00  0.00    +0.062 A 
ATOM     26  C   LIG    1      -25.024  75.572  31.181  0.00  0.00    +0.067 C 
ATOM     27  C   LIG    1      -22.461  75.934  30.886  0.00  0.00    +0.068 A 
ENDBRANCH  19  21
ENDBRANCH   3  19
TORSDOF 5
ENDMDL
