MODEL 1
REMARK VINA RESULT:      -7.5      0.000      0.000
REMARK  Name = pdb/CHEMBL3899561.pdb
REMARK                            x       y       z     vdW  Elec       q    Type
REMARK                         _______ _______ _______ _____ _____    ______ ____
ROOT
ATOM      1  C   LIG    1      -40.279  78.327  24.537  0.00  0.00    +0.149 A 
ATOM      2  N   LIG    1      -40.418  77.043  24.169  0.00  0.00    -0.160 NA
ATOM      3  N   LIG    1      -39.373  76.397  24.765  0.00  0.00    -0.218 N 
ATOM      4  C   LIG    1      -38.507  77.308  25.385  0.00  0.00    +0.129 A 
ATOM      5  C   LIG    1      -39.111  78.533  25.289  0.00  0.00    +0.078 A 
ENDROOT
BRANCH   3   6
ATOM      6  C   LIG    1      -39.269  74.980  24.640  0.00  0.00    +0.067 A 
ATOM      7  C   LIG    1      -38.147  74.271  25.086  0.00  0.00    +0.028 A 
ATOM      8  C   LIG    1      -38.073  72.883  24.905  0.00  0.00    +0.002 A 
ATOM      9  C   LIG    1      -39.120  72.194  24.297  0.00  0.00    +0.000 A 
ATOM     10  C   LIG    1      -40.258  72.886  23.891  0.00  0.00    +0.002 A 
ATOM     11  C   LIG    1      -40.341  74.268  24.075  0.00  0.00    +0.028 A 
ENDBRANCH   3   6
BRANCH   4  12
ATOM     12  N   LIG    1      -37.242  77.065  25.912  0.00  0.00    -0.266 N 
ATOM     13  H   LIG    1      -36.489  76.943  25.243  0.00  0.00    +0.157 HD
ATOM     14  C   LIG    1      -36.914  77.098  27.320  0.00  0.00    +0.251 C 
ATOM     15  O   LIG    1      -37.765  77.320  28.161  0.00  0.00    -0.270 OA
BRANCH  14  16
ATOM     16  C   LIG    1      -35.485  76.846  27.700  0.00  0.00    +0.056 A 
ATOM     17  C   LIG    1      -34.537  77.839  27.928  0.00  0.00    +0.056 A 
ATOM     18 CL   LIG    1      -34.832  79.536  27.902  0.00  0.00    -0.083 Cl
ATOM     19  C   LIG    1      -33.228  77.498  28.247  0.00  0.00    +0.059 A 
ATOM     20  C   LIG    1      -32.868  76.168  28.393  0.00  0.00    +0.134 A 
ATOM     21  F   LIG    1      -31.599  75.924  28.744  0.00  0.00    -0.205 F 
ATOM     22  C   LIG    1      -33.788  75.126  28.227  0.00  0.00    +0.036 A 
ATOM     23  C   LIG    1      -35.100  75.488  27.844  0.00  0.00    +0.027 A 
BRANCH  22  24
ATOM     24  C   LIG    1      -33.429  73.722  28.511  0.00  0.00    +0.074 A 
ATOM     25  N   LIG    1      -34.235  72.793  27.934  0.00  0.00    -0.255 NA
ATOM     26  C   LIG    1      -34.007  71.490  28.230  0.00  0.00    +0.111 A 
ATOM     27  C   LIG    1      -32.999  71.054  29.071  0.00  0.00    +0.020 A 
ATOM     28  C   LIG    1      -32.168  72.008  29.639  0.00  0.00    +0.004 A 
ATOM     29  C   LIG    1      -32.381  73.355  29.354  0.00  0.00    +0.028 A 
ENDBRANCH  22  24
ENDBRANCH  14  16
ENDBRANCH   4  12
BRANCH   1  30
ATOM     30  C   LIG    1      -41.257  79.331  24.151  0.00  0.00    +0.236 C 
ATOM     31  N   LIG    1      -40.893  80.544  23.950  0.00  0.00    -0.248 NA
BRANCH  30  32
ATOM     32  O   LIG    1      -42.525  78.874  24.051  0.00  0.00    -0.491 OA
ATOM     33  H   LIG    1      -43.118  79.503  24.508  0.00  0.00    +0.294 HD
ENDBRANCH  30  32
BRANCH  31  34
ATOM     34  C   LIG    1      -41.947  81.489  23.582  0.00  0.00    +0.162 C 
BRANCH  34  35
ATOM     35  C   LIG    1      -41.572  82.295  22.359  0.00  0.00    +0.052 C 
ATOM     36  C   LIG    1      -42.668  82.555  21.414  0.00  0.00    +0.028 C 
ATOM     37  C   LIG    1      -42.416  83.174  20.249  0.00  0.00    +0.184 C 
ATOM     38  N   LIG    1      -41.154  83.595  19.930  0.00  0.00    -0.210 N 
ATOM     39  H   LIG    1      -40.991  84.103  19.071  0.00  0.00    +0.298 HD
ATOM     40  C   LIG    1      -40.104  83.472  20.801  0.00  0.00    +0.295 C 
ATOM     41  C   LIG    1      -40.326  82.746  22.090  0.00  0.00    +0.083 C 
BRANCH  40  42
ATOM     42  N   LIG    1      -38.951  83.980  20.496  0.00  0.00    -0.071 NA
ATOM     43  H   LIG    1      -38.468  84.288  21.344  0.00  0.00    +0.348 HD
ENDBRANCH  40  42
ENDBRANCH  34  35
ENDBRANCH  31  34
ENDBRANCH   1  30
TORSDOF 9
ENDMDL
MODEL 2
REMARK VINA RESULT:      -7.5      6.609     10.843
REMARK  Name = pdb/CHEMBL3899561.pdb
REMARK                            x       y       z     vdW  Elec       q    Type
REMARK                         _______ _______ _______ _____ _____    ______ ____
ROOT
ATOM      1  C   LIG    1      -35.743  71.629  26.729  0.00  0.00    +0.149 A 
ATOM      2  N   LIG    1      -36.777  72.429  26.423  0.00  0.00    -0.160 NA
ATOM      3  N   LIG    1      -37.350  71.852  25.327  0.00  0.00    -0.218 N 
ATOM      4  C   LIG    1      -36.582  70.772  24.869  0.00  0.00    +0.129 A 
ATOM      5  C   LIG    1      -35.588  70.594  25.793  0.00  0.00    +0.078 A 
ENDROOT
BRANCH   3   6
ATOM      6  C   LIG    1      -38.542  72.417  24.786  0.00  0.00    +0.067 A 
ATOM      7  C   LIG    1      -39.582  71.626  24.283  0.00  0.00    +0.028 A 
ATOM      8  C   LIG    1      -40.718  72.228  23.723  0.00  0.00    +0.002 A 
ATOM      9  C   LIG    1      -40.831  73.616  23.679  0.00  0.00    +0.000 A 
ATOM     10  C   LIG    1      -39.822  74.408  24.219  0.00  0.00    +0.002 A 
ATOM     11  C   LIG    1      -38.690  73.814  24.783  0.00  0.00    +0.028 A 
ENDBRANCH   3   6
BRANCH   4  12
ATOM     12  N   LIG    1      -36.717  70.069  23.676  0.00  0.00    -0.266 N 
ATOM     13  H   LIG    1      -36.221  70.441  22.873  0.00  0.00    +0.157 HD
ATOM     14  C   LIG    1      -37.402  68.804  23.537  0.00  0.00    +0.251 C 
ATOM     15  O   LIG    1      -37.947  68.273  24.486  0.00  0.00    -0.270 OA
BRANCH  14  16
ATOM     16  C   LIG    1      -37.416  68.174  22.175  0.00  0.00    +0.056 A 
ATOM     17  C   LIG    1      -38.425  68.343  21.231  0.00  0.00    +0.056 A 
ATOM     18 CL   LIG    1      -39.802  69.363  21.404  0.00  0.00    -0.083 Cl
ATOM     19  C   LIG    1      -38.357  67.689  20.008  0.00  0.00    +0.059 A 
ATOM     20  C   LIG    1      -37.257  66.904  19.694  0.00  0.00    +0.134 A 
ATOM     21  F   LIG    1      -37.246  66.344  18.478  0.00  0.00    -0.205 F 
ATOM     22  C   LIG    1      -36.187  66.737  20.580  0.00  0.00    +0.036 A 
ATOM     23  C   LIG    1      -36.301  67.360  21.844  0.00  0.00    +0.027 A 
BRANCH  22  24
ATOM     24  C   LIG    1      -34.963  66.008  20.190  0.00  0.00    +0.074 A 
ATOM     25  N   LIG    1      -33.837  66.764  20.129  0.00  0.00    -0.255 NA
ATOM     26  C   LIG    1      -32.701  66.168  19.691  0.00  0.00    +0.111 A 
ATOM     27  C   LIG    1      -32.621  64.839  19.316  0.00  0.00    +0.020 A 
ATOM     28  C   LIG    1      -33.771  64.070  19.402  0.00  0.00    +0.004 A 
ATOM     29  C   LIG    1      -34.953  64.657  19.847  0.00  0.00    +0.028 A 
ENDBRANCH  22  24
ENDBRANCH  14  16
ENDBRANCH   4  12
BRANCH   1  30
ATOM     30  C   LIG    1      -34.918  71.878  27.900  0.00  0.00    +0.236 C 
ATOM     31  N   LIG    1      -34.314  73.001  28.038  0.00  0.00    -0.248 NA
BRANCH  30  32
ATOM     32  O   LIG    1      -34.847  70.846  28.770  0.00  0.00    -0.491 OA
ATOM     33  H   LIG    1      -35.731  70.714  29.166  0.00  0.00    +0.294 HD
ENDBRANCH  30  32
BRANCH  31  34
ATOM     34  C   LIG    1      -33.492  73.157  29.238  0.00  0.00    +0.162 C 
BRANCH  34  35
ATOM     35  C   LIG    1      -32.808  74.505  29.275  0.00  0.00    +0.052 C 
ATOM     36  C   LIG    1      -33.433  75.552  28.454  0.00  0.00    +0.028 C 
ATOM     37  C   LIG    1      -32.845  76.754  28.339  0.00  0.00    +0.184 C 
ATOM     38  N   LIG    1      -31.679  77.037  28.997  0.00  0.00    -0.210 N 
ATOM     39  H   LIG    1      -31.276  77.962  28.939  0.00  0.00    +0.298 HD
ATOM     40  C   LIG    1      -31.091  76.143  29.852  0.00  0.00    +0.295 C 
ATOM     41  C   LIG    1      -31.683  74.775  29.975  0.00  0.00    +0.083 C 
BRANCH  40  42
ATOM     42  N   LIG    1      -30.045  76.494  30.532  0.00  0.00    -0.071 NA
ATOM     43  H   LIG    1      -29.382  76.988  29.928  0.00  0.00    +0.348 HD
ENDBRANCH  40  42
ENDBRANCH  34  35
ENDBRANCH  31  34
ENDBRANCH   1  30
TORSDOF 9
ENDMDL
MODEL 3
REMARK VINA RESULT:      -7.5      8.793     13.175
REMARK  Name = pdb/CHEMBL3899561.pdb
REMARK                            x       y       z     vdW  Elec       q    Type
REMARK                         _______ _______ _______ _____ _____    ______ ____
ROOT
ATOM      1  C   LIG    1      -29.950  75.840  31.630  0.00  0.00    +0.149 A 
ATOM      2  N   LIG    1      -29.413  74.613  31.553  0.00  0.00    -0.160 NA
ATOM      3  N   LIG    1      -28.174  74.741  32.112  0.00  0.00    -0.218 N 
ATOM      4  C   LIG    1      -27.891  76.082  32.405  0.00  0.00    +0.129 A 
ATOM      5  C   LIG    1      -29.042  76.778  32.150  0.00  0.00    +0.078 A 
ENDROOT
BRANCH   3   6
ATOM      6  C   LIG    1      -27.355  73.582  32.263  0.00  0.00    +0.067 A 
ATOM      7  C   LIG    1      -26.140  73.433  31.584  0.00  0.00    +0.028 A 
ATOM      8  C   LIG    1      -25.390  72.258  31.732  0.00  0.00    +0.002 A 
ATOM      9  C   LIG    1      -25.835  71.238  32.570  0.00  0.00    +0.000 A 
ATOM     10  C   LIG    1      -27.020  71.399  33.284  0.00  0.00    +0.002 A 
ATOM     11  C   LIG    1      -27.769  72.569  33.144  0.00  0.00    +0.028 A 
ENDBRANCH   3   6
BRANCH   4  12
ATOM     12  N   LIG    1      -26.673  76.639  32.784  0.00  0.00    -0.266 N 
ATOM     13  H   LIG    1      -26.471  76.651  33.778  0.00  0.00    +0.157 HD
ATOM     14  C   LIG    1      -25.646  77.078  31.867  0.00  0.00    +0.251 C 
ATOM     15  O   LIG    1      -25.803  77.011  30.662  0.00  0.00    -0.270 OA
BRANCH  14  16
ATOM     16  C   LIG    1      -24.379  77.621  32.460  0.00  0.00    +0.056 A 
ATOM     17  C   LIG    1      -23.096  77.251  32.067  0.00  0.00    +0.056 A 
ATOM     18 CL   LIG    1      -22.710  76.174  30.779  0.00  0.00    -0.083 Cl
ATOM     19  C   LIG    1      -21.985  77.793  32.703  0.00  0.00    +0.059 A 
ATOM     20  C   LIG    1      -22.144  78.744  33.699  0.00  0.00    +0.134 A 
ATOM     21  F   LIG    1      -21.024  79.249  34.231  0.00  0.00    -0.205 F 
ATOM     22  C   LIG    1      -23.407  79.194  34.102  0.00  0.00    +0.036 A 
ATOM     23  C   LIG    1      -24.527  78.589  33.487  0.00  0.00    +0.027 A 
BRANCH  22  24
ATOM     24  C   LIG    1      -23.563  80.299  35.069  0.00  0.00    +0.074 A 
ATOM     25  N   LIG    1      -22.578  81.233  35.041  0.00  0.00    -0.255 NA
ATOM     26  C   LIG    1      -22.622  82.224  35.965  0.00  0.00    +0.111 A 
ATOM     27  C   LIG    1      -23.615  82.344  36.920  0.00  0.00    +0.020 A 
ATOM     28  C   LIG    1      -24.628  81.399  36.928  0.00  0.00    +0.004 A 
ATOM     29  C   LIG    1      -24.606  80.368  35.991  0.00  0.00    +0.028 A 
ENDBRANCH  22  24
ENDBRANCH  14  16
ENDBRANCH   4  12
BRANCH   1  30
ATOM     30  C   LIG    1      -31.313  76.096  31.193  0.00  0.00    +0.236 C 
ATOM     31  N   LIG    1      -31.687  75.758  30.014  0.00  0.00    -0.248 NA
BRANCH  30  32
ATOM     32  O   LIG    1      -32.093  76.710  32.109  0.00  0.00    -0.491 OA
ATOM     33  H   LIG    1      -33.023  76.455  31.946  0.00  0.00    +0.294 HD
ENDBRANCH  30  32
BRANCH  31  34
ATOM     34  C   LIG    1      -33.071  76.070  29.654  0.00  0.00    +0.162 C 
BRANCH  34  35
ATOM     35  C   LIG    1      -33.152  77.274  28.744  0.00  0.00    +0.052 C 
ATOM     36  C   LIG    1      -33.996  78.376  29.230  0.00  0.00    +0.028 C 
ATOM     37  C   LIG    1      -34.215  79.447  28.450  0.00  0.00    +0.184 C 
ATOM     38  N   LIG    1      -33.642  79.549  27.211  0.00  0.00    -0.210 N 
ATOM     39  H   LIG    1      -33.778  80.384  26.658  0.00  0.00    +0.298 HD
ATOM     40  C   LIG    1      -32.771  78.607  26.733  0.00  0.00    +0.295 C 
ATOM     41  C   LIG    1      -32.535  77.373  27.546  0.00  0.00    +0.083 C 
BRANCH  40  42
ATOM     42  N   LIG    1      -32.174  78.799  25.599  0.00  0.00    -0.071 NA
ATOM     43  H   LIG    1      -32.584  78.198  24.879  0.00  0.00    +0.348 HD
ENDBRANCH  40  42
ENDBRANCH  34  35
ENDBRANCH  31  34
ENDBRANCH   1  30
TORSDOF 9
ENDMDL
MODEL 4
REMARK VINA RESULT:      -7.3     18.409     20.150
REMARK  Name = pdb/CHEMBL3899561.pdb
REMARK                            x       y       z     vdW  Elec       q    Type
REMARK                         _______ _______ _______ _____ _____    ______ ____
ROOT
ATOM      1  C   LIG    1      -21.969  82.403  15.698  0.00  0.00    +0.149 A 
ATOM      2  N   LIG    1      -20.695  82.038  15.911  0.00  0.00    -0.160 NA
ATOM      3  N   LIG    1      -20.691  80.682  15.753  0.00  0.00    -0.218 N 
ATOM      4  C   LIG    1      -21.993  80.193  15.584  0.00  0.00    +0.129 A 
ATOM      5  C   LIG    1      -22.804  81.292  15.494  0.00  0.00    +0.078 A 
ENDROOT
BRANCH   3   6
ATOM      6  C   LIG    1      -19.454  79.976  15.834  0.00  0.00    +0.067 A 
ATOM      7  C   LIG    1      -19.352  78.715  16.436  0.00  0.00    +0.028 A 
ATOM      8  C   LIG    1      -18.107  78.077  16.528  0.00  0.00    +0.002 A 
ATOM      9  C   LIG    1      -16.965  78.681  16.007  0.00  0.00    +0.000 A 
ATOM     10  C   LIG    1      -17.066  79.913  15.367  0.00  0.00    +0.002 A 
ATOM     11  C   LIG    1      -18.305  80.552  15.267  0.00  0.00    +0.028 A 
ENDBRANCH   3   6
BRANCH   4  12
ATOM     12  N   LIG    1      -22.420  78.868  15.600  0.00  0.00    -0.266 N 
ATOM     13  H   LIG    1      -22.864  78.546  16.453  0.00  0.00    +0.157 HD
ATOM     14  C   LIG    1      -22.384  77.975  14.464  0.00  0.00    +0.251 C 
ATOM     15  O   LIG    1      -21.934  78.335  13.392  0.00  0.00    -0.270 OA
BRANCH  14  16
ATOM     16  C   LIG    1      -22.921  76.588  14.660  0.00  0.00    +0.056 A 
ATOM     17  C   LIG    1      -23.832  75.963  13.813  0.00  0.00    +0.056 A 
ATOM     18 CL   LIG    1      -24.453  76.616  12.344  0.00  0.00    -0.083 Cl
ATOM     19  C   LIG    1      -24.292  74.684  14.101  0.00  0.00    +0.059 A 
ATOM     20  C   LIG    1      -23.808  73.999  15.205  0.00  0.00    +0.134 A 
ATOM     21  F   LIG    1      -24.267  72.754  15.389  0.00  0.00    -0.205 F 
ATOM     22  C   LIG    1      -22.853  74.554  16.065  0.00  0.00    +0.036 A 
ATOM     23  C   LIG    1      -22.442  75.879  15.791  0.00  0.00    +0.027 A 
BRANCH  22  24
ATOM     24  C   LIG    1      -22.247  73.771  17.160  0.00  0.00    +0.074 A 
ATOM     25  N   LIG    1      -20.918  73.528  17.028  0.00  0.00    -0.255 NA
ATOM     26  C   LIG    1      -20.326  72.740  17.958  0.00  0.00    +0.111 A 
ATOM     27  C   LIG    1      -20.991  72.183  19.035  0.00  0.00    +0.020 A 
ATOM     28  C   LIG    1      -22.344  72.454  19.174  0.00  0.00    +0.004 A 
ATOM     29  C   LIG    1      -22.979  73.259  18.231  0.00  0.00    +0.028 A 
ENDBRANCH  22  24
ENDBRANCH  14  16
ENDBRANCH   4  12
BRANCH   1  30
ATOM     30  C   LIG    1      -22.365  83.802  15.709  0.00  0.00    +0.236 C 
ATOM     31  N   LIG    1      -22.220  84.523  14.659  0.00  0.00    -0.248 NA
BRANCH  30  32
ATOM     32  O   LIG    1      -22.859  84.238  16.888  0.00  0.00    -0.491 OA
ATOM     33  H   LIG    1      -23.662  84.767  16.712  0.00  0.00    +0.294 HD
ENDBRANCH  30  32
BRANCH  31  34
ATOM     34  C   LIG    1      -22.629  85.923  14.767  0.00  0.00    +0.162 C 
BRANCH  34  35
ATOM     35  C   LIG    1      -21.603  86.852  14.159  0.00  0.00    +0.052 C 
ATOM     36  C   LIG    1      -22.091  88.197  13.822  0.00  0.00    +0.028 C 
ATOM     37  C   LIG    1      -21.286  89.063  13.185  0.00  0.00    +0.184 C 
ATOM     38  N   LIG    1      -19.998  88.726  12.864  0.00  0.00    -0.210 N 
ATOM     39  H   LIG    1      -19.391  89.406  12.428  0.00  0.00    +0.298 HD
ATOM     40  C   LIG    1      -19.447  87.527  13.230  0.00  0.00    +0.295 C 
ATOM     41  C   LIG    1      -20.320  86.513  13.898  0.00  0.00    +0.083 C 
BRANCH  40  42
ATOM     42  N   LIG    1      -18.194  87.297  12.995  0.00  0.00    -0.071 NA
ATOM     43  H   LIG    1      -17.990  87.434  12.001  0.00  0.00    +0.348 HD
ENDBRANCH  40  42
ENDBRANCH  34  35
ENDBRANCH  31  34
ENDBRANCH   1  30
TORSDOF 9
ENDMDL
MODEL 5
REMARK VINA RESULT:      -7.3     18.416     19.805
REMARK  Name = pdb/CHEMBL3899561.pdb
REMARK                            x       y       z     vdW  Elec       q    Type
REMARK                         _______ _______ _______ _____ _____    ______ ____
ROOT
ATOM      1  C   LIG    1      -22.715  82.882  15.727  0.00  0.00    +0.149 A 
ATOM      2  N   LIG    1      -23.625  82.273  14.951  0.00  0.00    -0.160 NA
ATOM      3  N   LIG    1      -23.387  80.939  15.118  0.00  0.00    -0.218 N 
ATOM      4  C   LIG    1      -22.234  80.728  15.887  0.00  0.00    +0.129 A 
ATOM      5  C   LIG    1      -21.835  81.963  16.322  0.00  0.00    +0.078 A 
ENDROOT
BRANCH   3   6
ATOM      6  C   LIG    1      -24.245  79.994  14.483  0.00  0.00    +0.067 A 
ATOM      7  C   LIG    1      -24.047  79.574  13.162  0.00  0.00    +0.028 A 
ATOM      8  C   LIG    1      -24.942  78.673  12.567  0.00  0.00    +0.002 A 
ATOM      9  C   LIG    1      -26.024  78.174  13.289  0.00  0.00    +0.000 A 
ATOM     10  C   LIG    1      -26.201  78.552  14.617  0.00  0.00    +0.002 A 
ATOM     11  C   LIG    1      -25.310  79.445  15.217  0.00  0.00    +0.028 A 
ENDBRANCH   3   6
BRANCH   4  12
ATOM     12  N   LIG    1      -21.554  79.532  16.102  0.00  0.00    -0.266 N 
ATOM     13  H   LIG    1      -21.773  79.035  16.958  0.00  0.00    +0.157 HD
ATOM     14  C   LIG    1      -20.666  78.906  15.148  0.00  0.00    +0.251 C 
ATOM     15  O   LIG    1      -20.430  79.421  14.071  0.00  0.00    -0.270 OA
BRANCH  14  16
ATOM     16  C   LIG    1      -20.048  77.596  15.541  0.00  0.00    +0.056 A 
ATOM     17  C   LIG    1      -18.706  77.418  15.869  0.00  0.00    +0.056 A 
ATOM     18 CL   LIG    1      -17.522  78.665  15.969  0.00  0.00    -0.083 Cl
ATOM     19  C   LIG    1      -18.226  76.155  16.190  0.00  0.00    +0.059 A 
ATOM     20  C   LIG    1      -19.088  75.070  16.238  0.00  0.00    +0.134 A 
ATOM     21  F   LIG    1      -18.556  73.895  16.599  0.00  0.00    -0.205 F 
ATOM     22  C   LIG    1      -20.456  75.195  15.970  0.00  0.00    +0.036 A 
ATOM     23  C   LIG    1      -20.916  76.475  15.585  0.00  0.00    +0.027 A 
BRANCH  22  24
ATOM     24  C   LIG    1      -21.388  74.064  16.150  0.00  0.00    +0.074 A 
ATOM     25  N   LIG    1      -21.286  73.079  15.221  0.00  0.00    -0.255 NA
ATOM     26  C   LIG    1      -22.175  72.058  15.285  0.00  0.00    +0.111 A 
ATOM     27  C   LIG    1      -23.166  71.956  16.244  0.00  0.00    +0.020 A 
ATOM     28  C   LIG    1      -23.250  72.955  17.201  0.00  0.00    +0.004 A 
ATOM     29  C   LIG    1      -22.350  74.018  17.158  0.00  0.00    +0.028 A 
ENDBRANCH  22  24
ENDBRANCH  14  16
ENDBRANCH   4  12
BRANCH   1  30
ATOM     30  C   LIG    1      -22.694  84.329  15.872  0.00  0.00    +0.236 C 
ATOM     31  N   LIG    1      -22.500  85.078  14.849  0.00  0.00    -0.248 NA
BRANCH  30  32
ATOM     32  O   LIG    1      -22.875  84.771  17.136  0.00  0.00    -0.491 OA
ATOM     33  H   LIG    1      -23.817  84.659  17.372  0.00  0.00    +0.294 HD
ENDBRANCH  30  32
BRANCH  31  34
ATOM     34  C   LIG    1      -22.478  86.520  15.092  0.00  0.00    +0.162 C 
BRANCH  34  35
ATOM     35  C   LIG    1      -21.463  87.218  14.216  0.00  0.00    +0.052 C 
ATOM     36  C   LIG    1      -21.968  88.374  13.462  0.00  0.00    +0.028 C 
ATOM     37  C   LIG    1      -21.172  88.999  12.580  0.00  0.00    +0.184 C 
ATOM     38  N   LIG    1      -19.879  88.596  12.384  0.00  0.00    -0.210 N 
ATOM     39  H   LIG    1      -19.279  89.108  11.751  0.00  0.00    +0.298 HD
ATOM     40  C   LIG    1      -19.312  87.588  13.117  0.00  0.00    +0.295 C 
ATOM     41  C   LIG    1      -20.175  86.832  14.078  0.00  0.00    +0.083 C 
BRANCH  40  42
ATOM     42  N   LIG    1      -18.055  87.312  12.970  0.00  0.00    -0.071 NA
ATOM     43  H   LIG    1      -17.711  87.702  12.088  0.00  0.00    +0.348 HD
ENDBRANCH  40  42
ENDBRANCH  34  35
ENDBRANCH  31  34
ENDBRANCH   1  30
TORSDOF 9
ENDMDL
MODEL 6
REMARK VINA RESULT:      -7.2      4.586     11.902
REMARK  Name = pdb/CHEMBL3899561.pdb
REMARK                            x       y       z     vdW  Elec       q    Type
REMARK                         _______ _______ _______ _____ _____    ______ ____
ROOT
ATOM      1  C   LIG    1      -31.694  74.435  29.697  0.00  0.00    +0.149 A 
ATOM      2  N   LIG    1      -31.653  75.739  29.381  0.00  0.00    -0.160 NA
ATOM      3  N   LIG    1      -32.784  75.953  28.647  0.00  0.00    -0.218 N 
ATOM      4  C   LIG    1      -33.450  74.747  28.388  0.00  0.00    +0.129 A 
ATOM      5  C   LIG    1      -32.788  73.786  29.102  0.00  0.00    +0.078 A 
ENDROOT
BRANCH   3   6
ATOM      6  C   LIG    1      -33.093  77.277  28.214  0.00  0.00    +0.067 A 
ATOM      7  C   LIG    1      -32.380  77.913  27.191  0.00  0.00    +0.028 A 
ATOM      8  C   LIG    1      -32.694  79.231  26.827  0.00  0.00    +0.002 A 
ATOM      9  C   LIG    1      -33.728  79.911  27.466  0.00  0.00    +0.000 A 
ATOM     10  C   LIG    1      -34.471  79.268  28.453  0.00  0.00    +0.002 A 
ATOM     11  C   LIG    1      -34.167  77.954  28.816  0.00  0.00    +0.028 A 
ENDBRANCH   3   6
BRANCH   4  12
ATOM     12  N   LIG    1      -34.509  74.523  27.512  0.00  0.00    -0.266 N 
ATOM     13  H   LIG    1      -34.263  74.271  26.561  0.00  0.00    +0.157 HD
ATOM     14  C   LIG    1      -35.903  74.507  27.891  0.00  0.00    +0.251 C 
ATOM     15  O   LIG    1      -36.250  74.724  29.037  0.00  0.00    -0.270 OA
BRANCH  14  16
ATOM     16  C   LIG    1      -36.906  74.212  26.814  0.00  0.00    +0.056 A 
ATOM     17  C   LIG    1      -37.204  72.940  26.333  0.00  0.00    +0.056 A 
ATOM     18 CL   LIG    1      -36.551  71.461  26.928  0.00  0.00    -0.083 Cl
ATOM     19  C   LIG    1      -38.130  72.778  25.310  0.00  0.00    +0.059 A 
ATOM     20  C   LIG    1      -38.803  73.875  24.795  0.00  0.00    +0.134 A 
ATOM     21  F   LIG    1      -39.711  73.630  23.842  0.00  0.00    -0.205 F 
ATOM     22  C   LIG    1      -38.585  75.173  25.272  0.00  0.00    +0.036 A 
ATOM     23  C   LIG    1      -37.596  75.327  26.271  0.00  0.00    +0.027 A 
BRANCH  22  24
ATOM     24  C   LIG    1      -39.398  76.316  24.811  0.00  0.00    +0.074 A 
ATOM     25  N   LIG    1      -40.689  76.311  25.232  0.00  0.00    -0.255 NA
ATOM     26  C   LIG    1      -41.506  77.289  24.769  0.00  0.00    +0.111 A 
ATOM     27  C   LIG    1      -41.099  78.291  23.907  0.00  0.00    +0.020 A 
ATOM     28  C   LIG    1      -39.774  78.300  23.500  0.00  0.00    +0.004 A 
ATOM     29  C   LIG    1      -38.913  77.306  23.959  0.00  0.00    +0.028 A 
ENDBRANCH  22  24
ENDBRANCH  14  16
ENDBRANCH   4  12
BRANCH   1  30
ATOM     30  C   LIG    1      -30.680  73.834  30.548  0.00  0.00    +0.236 C 
ATOM     31  N   LIG    1      -30.265  74.450  31.594  0.00  0.00    -0.248 NA
BRANCH  30  32
ATOM     32  O   LIG    1      -30.235  72.629  30.130  0.00  0.00    -0.491 OA
ATOM     33  H   LIG    1      -30.950  72.193  29.625  0.00  0.00    +0.294 HD
ENDBRANCH  30  32
BRANCH  31  34
ATOM     34  C   LIG    1      -29.231  73.778  32.380  0.00  0.00    +0.162 C 
BRANCH  34  35
ATOM     35  C   LIG    1      -27.954  74.586  32.429  0.00  0.00    +0.052 C 
ATOM     36  C   LIG    1      -26.887  74.029  33.274  0.00  0.00    +0.028 C 
ATOM     37  C   LIG    1      -25.752  74.722  33.464  0.00  0.00    +0.184 C 
ATOM     38  N   LIG    1      -25.554  75.935  32.862  0.00  0.00    -0.210 N 
ATOM     39  H   LIG    1      -24.675  76.420  32.977  0.00  0.00    +0.298 HD
ATOM     40  C   LIG    1      -26.463  76.470  31.988  0.00  0.00    +0.295 C 
ATOM     41  C   LIG    1      -27.762  75.757  31.782  0.00  0.00    +0.083 C 
BRANCH  40  42
ATOM     42  N   LIG    1      -26.184  77.570  31.362  0.00  0.00    -0.071 NA
ATOM     43  H   LIG    1      -25.616  77.369  30.534  0.00  0.00    +0.348 HD
ENDBRANCH  40  42
ENDBRANCH  34  35
ENDBRANCH  31  34
ENDBRANCH   1  30
TORSDOF 9
ENDMDL
MODEL 7
REMARK VINA RESULT:      -7.2      4.478      6.797
REMARK  Name = pdb/CHEMBL3899561.pdb
REMARK                            x       y       z     vdW  Elec       q    Type
REMARK                         _______ _______ _______ _____ _____    ______ ____
ROOT
ATOM      1  C   LIG    1      -37.748  79.985  27.478  0.00  0.00    +0.149 A 
ATOM      2  N   LIG    1      -36.772  79.336  28.131  0.00  0.00    -0.160 NA
ATOM      3  N   LIG    1      -36.833  78.055  27.663  0.00  0.00    -0.218 N 
ATOM      4  C   LIG    1      -37.943  77.880  26.825  0.00  0.00    +0.129 A 
ATOM      5  C   LIG    1      -38.496  79.121  26.662  0.00  0.00    +0.078 A 
ENDROOT
BRANCH   3   6
ATOM      6  C   LIG    1      -35.863  77.106  28.102  0.00  0.00    +0.067 A 
ATOM      7  C   LIG    1      -35.018  76.435  27.210  0.00  0.00    +0.028 A 
ATOM      8  C   LIG    1      -34.107  75.480  27.685  0.00  0.00    +0.002 A 
ATOM      9  C   LIG    1      -34.021  75.205  29.048  0.00  0.00    +0.000 A 
ATOM     10  C   LIG    1      -34.826  75.902  29.945  0.00  0.00    +0.002 A 
ATOM     11  C   LIG    1      -35.732  76.858  29.479  0.00  0.00    +0.028 A 
ENDBRANCH   3   6
BRANCH   4  12
ATOM     12  N   LIG    1      -38.461  76.687  26.326  0.00  0.00    -0.266 N 
ATOM     13  H   LIG    1      -39.221  76.270  26.851  0.00  0.00    +0.157 HD
ATOM     14  C   LIG    1      -38.076  76.083  25.070  0.00  0.00    +0.251 C 
ATOM     15  O   LIG    1      -37.224  76.586  24.362  0.00  0.00    -0.270 OA
BRANCH  14  16
ATOM     16  C   LIG    1      -38.769  74.812  24.678  0.00  0.00    +0.056 A 
ATOM     17  C   LIG    1      -40.029  74.743  24.089  0.00  0.00    +0.056 A 
ATOM     18 CL   LIG    1      -40.997  76.090  23.624  0.00  0.00    -0.083 Cl
ATOM     19  C   LIG    1      -40.596  73.510  23.791  0.00  0.00    +0.059 A 
ATOM     20  C   LIG    1      -39.891  72.340  24.028  0.00  0.00    +0.134 A 
ATOM     21  F   LIG    1      -40.489  71.196  23.672  0.00  0.00    -0.205 F 
ATOM     22  C   LIG    1      -38.601  72.347  24.569  0.00  0.00    +0.036 A 
ATOM     23  C   LIG    1      -38.063  73.606  24.923  0.00  0.00    +0.027 A 
BRANCH  22  24
ATOM     24  C   LIG    1      -37.807  71.108  24.696  0.00  0.00    +0.074 A 
ATOM     25  N   LIG    1      -37.031  71.033  25.808  0.00  0.00    -0.255 NA
ATOM     26  C   LIG    1      -36.214  69.958  25.935  0.00  0.00    +0.111 A 
ATOM     27  C   LIG    1      -36.136  68.934  25.009  0.00  0.00    +0.020 A 
ATOM     28  C   LIG    1      -36.948  69.008  23.887  0.00  0.00    +0.004 A 
ATOM     29  C   LIG    1      -37.795  70.103  23.730  0.00  0.00    +0.028 A 
ENDBRANCH  22  24
ENDBRANCH  14  16
ENDBRANCH   4  12
BRANCH   1  30
ATOM     30  C   LIG    1      -37.956  81.413  27.658  0.00  0.00    +0.236 C 
ATOM     31  N   LIG    1      -37.392  82.031  28.629  0.00  0.00    -0.248 NA
BRANCH  30  32
ATOM     32  O   LIG    1      -38.778  81.982  26.748  0.00  0.00    -0.491 OA
ATOM     33  H   LIG    1      -38.355  81.922  25.868  0.00  0.00    +0.294 HD
ENDBRANCH  30  32
BRANCH  31  34
ATOM     34  C   LIG    1      -37.672  83.462  28.742  0.00  0.00    +0.162 C 
BRANCH  34  35
ATOM     35  C   LIG    1      -36.601  84.294  28.073  0.00  0.00    +0.052 C 
ATOM     36  C   LIG    1      -35.447  84.634  28.916  0.00  0.00    +0.028 C 
ATOM     37  C   LIG    1      -34.491  85.453  28.447  0.00  0.00    +0.184 C 
ATOM     38  N   LIG    1      -34.556  85.962  27.178  0.00  0.00    -0.210 N 
ATOM     39  H   LIG    1      -33.804  86.537  26.824  0.00  0.00    +0.298 HD
ATOM     40  C   LIG    1      -35.552  85.614  26.305  0.00  0.00    +0.295 C 
ATOM     41  C   LIG    1      -36.664  84.743  26.799  0.00  0.00    +0.083 C 
BRANCH  40  42
ATOM     42  N   LIG    1      -35.514  86.039  25.082  0.00  0.00    -0.071 NA
ATOM     43  H   LIG    1      -36.088  86.880  24.983  0.00  0.00    +0.348 HD
ENDBRANCH  40  42
ENDBRANCH  34  35
ENDBRANCH  31  34
ENDBRANCH   1  30
TORSDOF 9
ENDMDL
MODEL 8
REMARK VINA RESULT:      -7.1      6.539      9.935
REMARK  Name = pdb/CHEMBL3899561.pdb
REMARK                            x       y       z     vdW  Elec       q    Type
REMARK                         _______ _______ _______ _____ _____    ______ ____
ROOT
ATOM      1  C   LIG    1      -36.615  69.729  24.773  0.00  0.00    +0.149 A 
ATOM      2  N   LIG    1      -36.272  68.756  25.631  0.00  0.00    -0.160 NA
ATOM      3  N   LIG    1      -35.534  69.386  26.592  0.00  0.00    -0.218 N 
ATOM      4  C   LIG    1      -35.301  70.724  26.248  0.00  0.00    +0.129 A 
ATOM      5  C   LIG    1      -36.035  70.960  25.117  0.00  0.00    +0.078 A 
ENDROOT
BRANCH   3   6
ATOM      6  C   LIG    1      -35.074  68.639  27.717  0.00  0.00    +0.067 A 
ATOM      7  C   LIG    1      -35.409  68.986  29.031  0.00  0.00    +0.028 A 
ATOM      8  C   LIG    1      -34.899  68.246  30.107  0.00  0.00    +0.002 A 
ATOM      9  C   LIG    1      -34.071  67.149  29.879  0.00  0.00    +0.000 A 
ATOM     10  C   LIG    1      -33.770  66.771  28.573  0.00  0.00    +0.002 A 
ATOM     11  C   LIG    1      -34.279  67.501  27.497  0.00  0.00    +0.028 A 
ENDBRANCH   3   6
BRANCH   4  12
ATOM     12  N   LIG    1      -34.431  71.626  26.855  0.00  0.00    -0.266 N 
ATOM     13  H   LIG    1      -33.496  71.684  26.466  0.00  0.00    +0.157 HD
ATOM     14  C   LIG    1      -34.800  72.553  27.901  0.00  0.00    +0.251 C 
ATOM     15  O   LIG    1      -35.931  72.581  28.350  0.00  0.00    -0.270 OA
BRANCH  14  16
ATOM     16  C   LIG    1      -33.734  73.477  28.411  0.00  0.00    +0.056 A 
ATOM     17  C   LIG    1      -32.623  73.078  29.149  0.00  0.00    +0.056 A 
ATOM     18 CL   LIG    1      -32.212  71.453  29.548  0.00  0.00    -0.083 Cl
ATOM     19  C   LIG    1      -31.707  74.020  29.600  0.00  0.00    +0.059 A 
ATOM     20  C   LIG    1      -31.863  75.358  29.276  0.00  0.00    +0.134 A 
ATOM     21  F   LIG    1      -30.914  76.197  29.712  0.00  0.00    -0.205 F 
ATOM     22  C   LIG    1      -32.930  75.815  28.494  0.00  0.00    +0.036 A 
ATOM     23  C   LIG    1      -33.885  74.852  28.094  0.00  0.00    +0.027 A 
BRANCH  22  24
ATOM     24  C   LIG    1      -33.018  77.218  28.044  0.00  0.00    +0.074 A 
ATOM     25  N   LIG    1      -33.928  77.979  28.705  0.00  0.00    -0.255 NA
ATOM     26  C   LIG    1      -34.114  79.252  28.277  0.00  0.00    +0.111 A 
ATOM     27  C   LIG    1      -33.426  79.820  27.220  0.00  0.00    +0.020 A 
ATOM     28  C   LIG    1      -32.484  79.043  26.565  0.00  0.00    +0.004 A 
ATOM     29  C   LIG    1      -32.273  77.730  26.982  0.00  0.00    +0.028 A 
ENDBRANCH  22  24
ENDBRANCH  14  16
ENDBRANCH   4  12
BRANCH   1  30
ATOM     30  C   LIG    1      -37.477  69.459  23.633  0.00  0.00    +0.236 C 
ATOM     31  N   LIG    1      -36.970  69.242  22.476  0.00  0.00    -0.248 NA
BRANCH  30  32
ATOM     32  O   LIG    1      -38.800  69.479  23.911  0.00  0.00    -0.491 OA
ATOM     33  H   LIG    1      -39.108  68.558  24.021  0.00  0.00    +0.294 HD
ENDBRANCH  30  32
BRANCH  31  34
ATOM     34  C   LIG    1      -37.914  68.997  21.386  0.00  0.00    +0.162 C 
BRANCH  34  35
ATOM     35  C   LIG    1      -37.369  67.999  20.389  0.00  0.00    +0.052 C 
ATOM     36  C   LIG    1      -36.630  66.868  20.969  0.00  0.00    +0.028 C 
ATOM     37  C   LIG    1      -36.021  65.982  20.165  0.00  0.00    +0.184 C 
ATOM     38  N   LIG    1      -36.095  66.095  18.803  0.00  0.00    -0.210 N 
ATOM     39  H   LIG    1      -35.672  65.392  18.212  0.00  0.00    +0.298 HD
ATOM     40  C   LIG    1      -36.843  67.067  18.193  0.00  0.00    +0.295 C 
ATOM     41  C   LIG    1      -37.500  68.104  19.048  0.00  0.00    +0.083 C 
BRANCH  40  42
ATOM     42  N   LIG    1      -36.968  67.070  16.904  0.00  0.00    -0.071 NA
ATOM     43  H   LIG    1      -36.044  67.073  16.461  0.00  0.00    +0.348 HD
ENDBRANCH  40  42
ENDBRANCH  34  35
ENDBRANCH  31  34
ENDBRANCH   1  30
TORSDOF 9
ENDMDL
MODEL 9
REMARK VINA RESULT:      -7.1      5.717      8.076
REMARK  Name = pdb/CHEMBL3899561.pdb
REMARK                            x       y       z     vdW  Elec       q    Type
REMARK                         _______ _______ _______ _____ _____    ______ ____
ROOT
ATOM      1  C   LIG    1      -37.242  70.013  24.568  0.00  0.00    +0.149 A 
ATOM      2  N   LIG    1      -36.697  68.924  25.132  0.00  0.00    -0.160 NA
ATOM      3  N   LIG    1      -35.823  69.413  26.059  0.00  0.00    -0.218 N 
ATOM      4  C   LIG    1      -35.722  70.808  25.967  0.00  0.00    +0.129 A 
ATOM      5  C   LIG    1      -36.666  71.198  25.056  0.00  0.00    +0.078 A 
ENDROOT
BRANCH   3   6
ATOM      6  C   LIG    1      -35.124  68.503  26.906  0.00  0.00    +0.067 A 
ATOM      7  C   LIG    1      -35.068  68.667  28.295  0.00  0.00    +0.028 A 
ATOM      8  C   LIG    1      -34.334  67.768  29.082  0.00  0.00    +0.002 A 
ATOM      9  C   LIG    1      -33.671  66.694  28.493  0.00  0.00    +0.000 A 
ATOM     10  C   LIG    1      -33.760  66.498  27.118  0.00  0.00    +0.002 A 
ATOM     11  C   LIG    1      -34.494  67.387  26.329  0.00  0.00    +0.028 A 
ENDBRANCH   3   6
BRANCH   4  12
ATOM     12  N   LIG    1      -34.798  71.644  26.587  0.00  0.00    -0.266 N 
ATOM     13  H   LIG    1      -33.963  71.868  26.056  0.00  0.00    +0.157 HD
ATOM     14  C   LIG    1      -35.001  72.298  27.860  0.00  0.00    +0.251 C 
ATOM     15  O   LIG    1      -36.020  72.128  28.503  0.00  0.00    -0.270 OA
BRANCH  14  16
ATOM     16  C   LIG    1      -33.904  73.195  28.356  0.00  0.00    +0.056 A 
ATOM     17  C   LIG    1      -32.785  72.763  29.064  0.00  0.00    +0.056 A 
ATOM     18 CL   LIG    1      -32.398  71.126  29.433  0.00  0.00    -0.083 Cl
ATOM     19  C   LIG    1      -31.840  73.681  29.505  0.00  0.00    +0.059 A 
ATOM     20  C   LIG    1      -31.976  75.027  29.201  0.00  0.00    +0.134 A 
ATOM     21  F   LIG    1      -31.000  75.840  29.625  0.00  0.00    -0.205 F 
ATOM     22  C   LIG    1      -33.052  75.514  28.450  0.00  0.00    +0.036 A 
ATOM     23  C   LIG    1      -34.035  74.576  28.060  0.00  0.00    +0.027 A 
BRANCH  22  24
ATOM     24  C   LIG    1      -33.121  76.925  28.019  0.00  0.00    +0.074 A 
ATOM     25  N   LIG    1      -32.400  77.224  26.908  0.00  0.00    -0.255 NA
ATOM     26  C   LIG    1      -32.355  78.522  26.517  0.00  0.00    +0.111 A 
ATOM     27  C   LIG    1      -33.007  79.549  27.173  0.00  0.00    +0.020 A 
ATOM     28  C   LIG    1      -33.758  79.231  28.294  0.00  0.00    +0.004 A 
ATOM     29  C   LIG    1      -33.820  77.906  28.720  0.00  0.00    +0.028 A 
ENDBRANCH  22  24
ENDBRANCH  14  16
ENDBRANCH   4  12
BRANCH   1  30
ATOM     30  C   LIG    1      -38.289  69.900  23.566  0.00  0.00    +0.236 C 
ATOM     31  N   LIG    1      -39.477  70.310  23.823  0.00  0.00    -0.248 NA
BRANCH  30  32
ATOM     32  O   LIG    1      -37.898  69.331  22.404  0.00  0.00    -0.491 OA
ATOM     33  H   LIG    1      -37.045  69.727  22.137  0.00  0.00    +0.294 HD
ENDBRANCH  30  32
BRANCH  31  34
ATOM     34  C   LIG    1      -40.469  70.140  22.762  0.00  0.00    +0.162 C 
BRANCH  34  35
ATOM     35  C   LIG    1      -41.319  71.379  22.590  0.00  0.00    +0.052 C 
ATOM     36  C   LIG    1      -40.975  72.507  23.467  0.00  0.00    +0.028 C 
ATOM     37  C   LIG    1      -41.733  73.616  23.463  0.00  0.00    +0.184 C 
ATOM     38  N   LIG    1      -42.814  73.730  22.631  0.00  0.00    -0.210 N 
ATOM     39  H   LIG    1      -43.345  74.590  22.606  0.00  0.00    +0.298 HD
ATOM     40  C   LIG    1      -43.138  72.759  21.721  0.00  0.00    +0.295 C 
ATOM     41  C   LIG    1      -42.351  71.486  21.724  0.00  0.00    +0.083 C 
BRANCH  40  42
ATOM     42  N   LIG    1      -44.107  72.958  20.885  0.00  0.00    -0.071 NA
ATOM     43  H   LIG    1      -43.925  72.457  20.011  0.00  0.00    +0.348 HD
ENDBRANCH  40  42
ENDBRANCH  34  35
ENDBRANCH  31  34
ENDBRANCH   1  30
TORSDOF 9
ENDMDL
