MODEL 1
REMARK VINA RESULT:      -7.0      0.000      0.000
REMARK  Name = pdb/CHEMBL3892259.pdb
REMARK                            x       y       z     vdW  Elec       q    Type
REMARK                         _______ _______ _______ _____ _____    ______ ____
ROOT
ATOM      1  C   LIG    1      -24.204  78.405  34.321  0.00  0.00    +0.149 A 
ATOM      2  N   LIG    1      -23.338  78.584  33.309  0.00  0.00    -0.160 NA
ATOM      3  N   LIG    1      -23.299  77.380  32.649  0.00  0.00    -0.218 N 
ATOM      4  C   LIG    1      -24.192  76.451  33.239  0.00  0.00    +0.129 A 
ATOM      5  C   LIG    1      -24.731  77.098  34.322  0.00  0.00    +0.078 A 
ENDROOT
BRANCH   3   6
ATOM      6  C   LIG    1      -22.376  77.218  31.556  0.00  0.00    +0.067 A 
ATOM      7  C   LIG    1      -22.745  76.677  30.316  0.00  0.00    +0.028 A 
ATOM      8  C   LIG    1      -21.806  76.498  29.295  0.00  0.00    +0.002 A 
ATOM      9  C   LIG    1      -20.476  76.840  29.495  0.00  0.00    +0.000 A 
ATOM     10  C   LIG    1      -20.086  77.384  30.714  0.00  0.00    +0.002 A 
ATOM     11  C   LIG    1      -21.026  77.577  31.736  0.00  0.00    +0.028 A 
ENDBRANCH   3   6
BRANCH   4  12
ATOM     12  N   LIG    1      -24.529  75.169  32.798  0.00  0.00    -0.266 N 
ATOM     13  H   LIG    1      -24.066  74.395  33.215  0.00  0.00    +0.157 HD
ATOM     14  C   LIG    1      -25.458  74.870  31.734  0.00  0.00    +0.251 C 
ATOM     15  O   LIG    1      -26.046  75.762  31.159  0.00  0.00    -0.270 OA
BRANCH  14  16
ATOM     16  C   LIG    1      -25.774  73.439  31.478  0.00  0.00    +0.056 A 
ATOM     17  C   LIG    1      -26.985  72.849  31.819  0.00  0.00    +0.054 A 
ATOM     18 CL   LIG    1      -28.233  73.665  32.693  0.00  0.00    -0.083 Cl
ATOM     19  C   LIG    1      -27.238  71.522  31.466  0.00  0.00    +0.041 A 
ATOM     20  C   LIG    1      -26.279  70.758  30.784  0.00  0.00    +0.052 A 
ATOM     21 CL   LIG    1      -26.818  69.182  30.303  0.00  0.00    -0.083 Cl
ATOM     22  C   LIG    1      -25.011  71.287  30.480  0.00  0.00    +0.019 A 
ATOM     23  C   LIG    1      -24.796  72.652  30.831  0.00  0.00    +0.026 A 
BRANCH  22  24
ATOM     24  C   LIG    1      -23.913  70.542  29.803  0.00  0.00    +0.073 A 
ATOM     25  N   LIG    1      -24.025  70.470  28.448  0.00  0.00    -0.252 NA
ATOM     26  C   LIG    1      -23.058  69.805  27.762  0.00  0.00    +0.149 A 
ATOM     27  C   LIG    1      -21.982  69.183  28.362  0.00  0.00    +0.141 A 
ATOM     28  F   LIG    1      -21.073  68.522  27.635  0.00  0.00    -0.204 F 
ATOM     29  C   LIG    1      -21.855  69.266  29.734  0.00  0.00    +0.042 A 
ATOM     30  C   LIG    1      -22.813  69.976  30.459  0.00  0.00    +0.031 A 
ENDBRANCH  22  24
ENDBRANCH  14  16
ENDBRANCH   4  12
BRANCH   1  32
ATOM     31  N   LIG    1      -23.606  80.266  35.659  0.00  0.00    -0.246 NA
ATOM     32  C   LIG    1      -24.531  79.484  35.254  0.00  0.00    +0.236 C 
BRANCH  31  37
ATOM     33  C   LIG    1      -19.767  81.370  38.043  0.00  0.00    +0.041 C 
ATOM     34  C   LIG    1      -21.132  81.192  37.367  0.00  0.00    +0.063 C 
ATOM     35  C   LIG    1      -21.553  82.492  36.670  0.00  0.00    +0.036 C 
ATOM     36  C   LIG    1      -23.011  82.554  36.183  0.00  0.00    +0.029 C 
ATOM     37  C   LIG    1      -23.899  81.366  36.569  0.00  0.00    +0.109 C 
ATOM     38  C   LIG    1      -23.646  80.960  38.018  0.00  0.00    +0.029 C 
ATOM     39  C   LIG    1      -22.177  80.726  38.397  0.00  0.00    +0.036 C 
BRANCH  34  40
ATOM     40  O   LIG    1      -20.930  80.180  36.373  0.00  0.00    -0.389 OA
ATOM     41  H   LIG    1      -21.271  80.524  35.533  0.00  0.00    +0.210 HD
ENDBRANCH  34  40
ENDBRANCH  31  37
BRANCH  32  42
ATOM     42  O   LIG    1      -25.824  79.563  35.638  0.00  0.00    -0.491 OA
ATOM     43  H   LIG    1      -26.158  80.457  35.438  0.00  0.00    +0.294 HD
ENDBRANCH  32  42
ENDBRANCH   1  32
TORSDOF 8
ENDMDL
MODEL 2
REMARK VINA RESULT:      -7.0     13.668     18.630
REMARK  Name = pdb/CHEMBL3892259.pdb
REMARK                            x       y       z     vdW  Elec       q    Type
REMARK                         _______ _______ _______ _____ _____    ______ ____
ROOT
ATOM      1  C   LIG    1      -39.727  72.714  24.081  0.00  0.00    +0.149 A 
ATOM      2  N   LIG    1      -40.190  73.965  23.916  0.00  0.00    -0.160 NA
ATOM      3  N   LIG    1      -39.313  74.769  24.603  0.00  0.00    -0.218 N 
ATOM      4  C   LIG    1      -38.261  74.003  25.166  0.00  0.00    +0.129 A 
ATOM      5  C   LIG    1      -38.554  72.698  24.863  0.00  0.00    +0.078 A 
ENDROOT
BRANCH   3   6
ATOM      6  C   LIG    1      -39.592  76.178  24.698  0.00  0.00    +0.067 A 
ATOM      7  C   LIG    1      -39.757  76.845  25.919  0.00  0.00    +0.028 A 
ATOM      8  C   LIG    1      -40.070  78.208  25.964  0.00  0.00    +0.002 A 
ATOM      9  C   LIG    1      -40.240  78.929  24.791  0.00  0.00    +0.000 A 
ATOM     10  C   LIG    1      -40.076  78.291  23.567  0.00  0.00    +0.002 A 
ATOM     11  C   LIG    1      -39.750  76.928  23.517  0.00  0.00    +0.028 A 
ENDBRANCH   3   6
BRANCH   4  12
ATOM     12  N   LIG    1      -37.118  74.454  25.832  0.00  0.00    -0.266 N 
ATOM     13  H   LIG    1      -36.312  74.662  25.289  0.00  0.00    +0.157 HD
ATOM     14  C   LIG    1      -36.986  74.588  27.264  0.00  0.00    +0.251 C 
ATOM     15  O   LIG    1      -37.917  74.331  27.997  0.00  0.00    -0.270 OA
BRANCH  14  16
ATOM     16  C   LIG    1      -35.730  75.190  27.785  0.00  0.00    +0.056 A 
ATOM     17  C   LIG    1      -34.573  74.459  28.029  0.00  0.00    +0.054 A 
ATOM     18 CL   LIG    1      -34.480  72.740  27.875  0.00  0.00    -0.083 Cl
ATOM     19  C   LIG    1      -33.408  75.112  28.434  0.00  0.00    +0.041 A 
ATOM     20  C   LIG    1      -33.384  76.503  28.622  0.00  0.00    +0.052 A 
ATOM     21 CL   LIG    1      -31.821  77.157  28.987  0.00  0.00    -0.083 Cl
ATOM     22  C   LIG    1      -34.547  77.278  28.459  0.00  0.00    +0.019 A 
ATOM     23  C   LIG    1      -35.712  76.583  28.018  0.00  0.00    +0.026 A 
BRANCH  22  24
ATOM     24  C   LIG    1      -34.633  78.749  28.679  0.00  0.00    +0.073 A 
ATOM     25  N   LIG    1      -34.623  79.497  27.542  0.00  0.00    -0.252 NA
ATOM     26  C   LIG    1      -34.699  80.848  27.666  0.00  0.00    +0.149 A 
ATOM     27  C   LIG    1      -34.765  81.505  28.878  0.00  0.00    +0.141 A 
ATOM     28  F   LIG    1      -34.815  82.840  28.939  0.00  0.00    -0.204 F 
ATOM     29  C   LIG    1      -34.791  80.750  30.034  0.00  0.00    +0.042 A 
ATOM     30  C   LIG    1      -34.754  79.358  29.934  0.00  0.00    +0.031 A 
ENDBRANCH  22  24
ENDBRANCH  14  16
ENDBRANCH   4  12
BRANCH   1  32
ATOM     31  N   LIG    1      -39.746  70.470  23.324  0.00  0.00    -0.246 NA
ATOM     32  C   LIG    1      -40.393  71.561  23.475  0.00  0.00    +0.236 C 
BRANCH  31  37
ATOM     33  C   LIG    1      -36.493  67.652  21.559  0.00  0.00    +0.041 C 
ATOM     34  C   LIG    1      -37.720  68.410  22.082  0.00  0.00    +0.063 C 
ATOM     35  C   LIG    1      -38.484  67.547  23.094  0.00  0.00    +0.036 C 
ATOM     36  C   LIG    1      -39.877  68.059  23.499  0.00  0.00    +0.029 C 
ATOM     37  C   LIG    1      -40.384  69.294  22.746  0.00  0.00    +0.109 C 
ATOM     38  C   LIG    1      -40.070  69.177  21.258  0.00  0.00    +0.029 C 
ATOM     39  C   LIG    1      -38.612  68.849  20.908  0.00  0.00    +0.036 C 
BRANCH  34  40
ATOM     40  O   LIG    1      -37.192  69.556  22.760  0.00  0.00    -0.389 OA
ATOM     41  H   LIG    1      -36.580  69.237  23.442  0.00  0.00    +0.210 HD
ENDBRANCH  34  40
ENDBRANCH  31  37
BRANCH  32  42
ATOM     42  O   LIG    1      -41.677  71.749  23.098  0.00  0.00    -0.491 OA
ATOM     43  H   LIG    1      -42.234  71.075  23.530  0.00  0.00    +0.294 HD
ENDBRANCH  32  42
ENDBRANCH   1  32
TORSDOF 8
ENDMDL
MODEL 3
REMARK VINA RESULT:      -6.9     12.161     17.826
REMARK  Name = pdb/CHEMBL3892259.pdb
REMARK                            x       y       z     vdW  Elec       q    Type
REMARK                         _______ _______ _______ _____ _____    ______ ____
ROOT
ATOM      1  C   LIG    1      -37.673  69.685  24.097  0.00  0.00    +0.149 A 
ATOM      2  N   LIG    1      -38.347  70.834  23.913  0.00  0.00    -0.160 NA
ATOM      3  N   LIG    1      -37.713  71.757  24.709  0.00  0.00    -0.218 N 
ATOM      4  C   LIG    1      -36.597  71.178  25.363  0.00  0.00    +0.129 A 
ATOM      5  C   LIG    1      -36.604  69.856  25.000  0.00  0.00    +0.078 A 
ENDROOT
BRANCH   3   6
ATOM      6  C   LIG    1      -38.264  73.083  24.806  0.00  0.00    +0.067 A 
ATOM      7  C   LIG    1      -39.519  73.431  24.286  0.00  0.00    +0.028 A 
ATOM      8  C   LIG    1      -39.997  74.744  24.365  0.00  0.00    +0.002 A 
ATOM      9  C   LIG    1      -39.228  75.738  24.951  0.00  0.00    +0.000 A 
ATOM     10  C   LIG    1      -37.983  75.417  25.480  0.00  0.00    +0.002 A 
ATOM     11  C   LIG    1      -37.504  74.101  25.414  0.00  0.00    +0.028 A 
ENDBRANCH   3   6
BRANCH   4  12
ATOM     12  N   LIG    1      -35.635  71.806  26.159  0.00  0.00    -0.266 N 
ATOM     13  H   LIG    1      -34.764  72.041  25.742  0.00  0.00    +0.157 HD
ATOM     14  C   LIG    1      -35.775  72.091  27.568  0.00  0.00    +0.251 C 
ATOM     15  O   LIG    1      -36.798  71.812  28.155  0.00  0.00    -0.270 OA
BRANCH  14  16
ATOM     16  C   LIG    1      -34.687  72.865  28.224  0.00  0.00    +0.056 A 
ATOM     17  C   LIG    1      -33.740  72.295  29.065  0.00  0.00    +0.054 A 
ATOM     18 CL   LIG    1      -33.773  70.637  29.556  0.00  0.00    -0.083 Cl
ATOM     19  C   LIG    1      -32.698  73.073  29.572  0.00  0.00    +0.041 A 
ATOM     20  C   LIG    1      -32.597  74.438  29.264  0.00  0.00    +0.052 A 
ATOM     21 CL   LIG    1      -31.166  75.212  29.863  0.00  0.00    -0.083 Cl
ATOM     22  C   LIG    1      -33.571  75.079  28.476  0.00  0.00    +0.019 A 
ATOM     23  C   LIG    1      -34.606  74.248  27.953  0.00  0.00    +0.026 A 
BRANCH  22  24
ATOM     24  C   LIG    1      -33.577  76.529  28.132  0.00  0.00    +0.073 A 
ATOM     25  N   LIG    1      -34.590  77.243  28.693  0.00  0.00    -0.252 NA
ATOM     26  C   LIG    1      -34.659  78.574  28.424  0.00  0.00    +0.149 A 
ATOM     27  C   LIG    1      -33.773  79.236  27.599  0.00  0.00    +0.141 A 
ATOM     28  F   LIG    1      -33.905  80.544  27.352  0.00  0.00    -0.204 F 
ATOM     29  C   LIG    1      -32.733  78.519  27.039  0.00  0.00    +0.042 A 
ATOM     30  C   LIG    1      -32.617  77.159  27.332  0.00  0.00    +0.031 A 
ENDBRANCH  22  24
ENDBRANCH  14  16
ENDBRANCH   4  12
BRANCH   1  32
ATOM     31  N   LIG    1      -37.125  67.656  23.006  0.00  0.00    -0.246 NA
ATOM     32  C   LIG    1      -38.042  68.456  23.396  0.00  0.00    +0.236 C 
BRANCH  31  37
ATOM     33  C   LIG    1      -33.400  66.122  20.682  0.00  0.00    +0.041 C 
ATOM     34  C   LIG    1      -34.732  66.425  21.378  0.00  0.00    +0.063 C 
ATOM     35  C   LIG    1      -35.113  65.275  22.320  0.00  0.00    +0.036 C 
ATOM     36  C   LIG    1      -36.545  65.309  22.879  0.00  0.00    +0.029 C 
ATOM     37  C   LIG    1      -37.457  66.410  22.326  0.00  0.00    +0.109 C 
ATOM     38  C   LIG    1      -37.275  66.545  20.818  0.00  0.00    +0.029 C 
ATOM     39  C   LIG    1      -35.827  66.700  20.333  0.00  0.00    +0.036 C 
BRANCH  34  40
ATOM     40  O   LIG    1      -34.487  67.600  22.161  0.00  0.00    -0.389 OA
ATOM     41  H   LIG    1      -34.890  67.460  23.032  0.00  0.00    +0.210 HD
ENDBRANCH  34  40
ENDBRANCH  31  37
BRANCH  32  42
ATOM     42  O   LIG    1      -39.364  68.261  23.196  0.00  0.00    -0.491 OA
ATOM     43  H   LIG    1      -39.532  68.195  22.237  0.00  0.00    +0.294 HD
ENDBRANCH  32  42
ENDBRANCH   1  32
TORSDOF 8
ENDMDL
MODEL 4
REMARK VINA RESULT:      -6.8      8.017     12.865
REMARK  Name = pdb/CHEMBL3892259.pdb
REMARK                            x       y       z     vdW  Elec       q    Type
REMARK                         _______ _______ _______ _____ _____    ______ ____
ROOT
ATOM      1  C   LIG    1      -33.675  73.473  28.550  0.00  0.00    +0.149 A 
ATOM      2  N   LIG    1      -33.873  74.624  27.886  0.00  0.00    -0.160 NA
ATOM      3  N   LIG    1      -33.042  75.537  28.488  0.00  0.00    -0.218 N 
ATOM      4  C   LIG    1      -32.281  74.926  29.516  0.00  0.00    +0.129 A 
ATOM      5  C   LIG    1      -32.718  73.628  29.574  0.00  0.00    +0.078 A 
ENDROOT
BRANCH   3   6
ATOM      6  C   LIG    1      -33.093  76.910  28.059  0.00  0.00    +0.067 A 
ATOM      7  C   LIG    1      -33.914  77.872  28.665  0.00  0.00    +0.028 A 
ATOM      8  C   LIG    1      -33.965  79.186  28.187  0.00  0.00    +0.002 A 
ATOM      9  C   LIG    1      -33.209  79.563  27.086  0.00  0.00    +0.000 A 
ATOM     10  C   LIG    1      -32.383  78.629  26.471  0.00  0.00    +0.002 A 
ATOM     11  C   LIG    1      -32.320  77.314  26.953  0.00  0.00    +0.028 A 
ENDBRANCH   3   6
BRANCH   4  12
ATOM     12  N   LIG    1      -31.250  75.480  30.279  0.00  0.00    -0.266 N 
ATOM     13  H   LIG    1      -30.915  76.381  30.030  0.00  0.00    +0.157 HD
ATOM     14  C   LIG    1      -30.579  74.822  31.376  0.00  0.00    +0.251 C 
ATOM     15  O   LIG    1      -30.912  73.710  31.727  0.00  0.00    -0.270 OA
BRANCH  14  16
ATOM     16  C   LIG    1      -29.578  75.612  32.143  0.00  0.00    +0.056 A 
ATOM     17  C   LIG    1      -29.823  76.140  33.405  0.00  0.00    +0.054 A 
ATOM     18 CL   LIG    1      -31.359  76.054  34.195  0.00  0.00    -0.083 Cl
ATOM     19  C   LIG    1      -28.803  76.794  34.097  0.00  0.00    +0.041 A 
ATOM     20  C   LIG    1      -27.527  76.949  33.533  0.00  0.00    +0.052 A 
ATOM     21 CL   LIG    1      -26.350  77.657  34.589  0.00  0.00    -0.083 Cl
ATOM     22  C   LIG    1      -27.250  76.496  32.230  0.00  0.00    +0.019 A 
ATOM     23  C   LIG    1      -28.307  75.809  31.562  0.00  0.00    +0.026 A 
BRANCH  22  24
ATOM     24  C   LIG    1      -25.945  76.654  31.528  0.00  0.00    +0.073 A 
ATOM     25  N   LIG    1      -25.758  77.868  30.941  0.00  0.00    -0.252 NA
ATOM     26  C   LIG    1      -24.590  78.085  30.281  0.00  0.00    +0.149 A 
ATOM     27  C   LIG    1      -23.593  77.139  30.156  0.00  0.00    +0.141 A 
ATOM     28  F   LIG    1      -22.472  77.402  29.474  0.00  0.00    -0.204 F 
ATOM     29  C   LIG    1      -23.771  75.911  30.763  0.00  0.00    +0.042 A 
ATOM     30  C   LIG    1      -24.945  75.676  31.480  0.00  0.00    +0.031 A 
ENDBRANCH  22  24
ENDBRANCH  14  16
ENDBRANCH   4  12
BRANCH   1  32
ATOM     31  N   LIG    1      -35.499  72.318  27.577  0.00  0.00    -0.246 NA
ATOM     32  C   LIG    1      -34.379  72.243  28.187  0.00  0.00    +0.236 C 
BRANCH  31  37
ATOM     33  C   LIG    1      -38.964  73.464  24.693  0.00  0.00    +0.041 C 
ATOM     34  C   LIG    1      -37.885  72.861  25.601  0.00  0.00    +0.063 C 
ATOM     35  C   LIG    1      -37.036  71.851  24.819  0.00  0.00    +0.036 C 
ATOM     36  C   LIG    1      -36.095  70.969  25.657  0.00  0.00    +0.029 C 
ATOM     37  C   LIG    1      -36.217  71.113  27.178  0.00  0.00    +0.109 C 
ATOM     38  C   LIG    1      -37.684  71.188  27.590  0.00  0.00    +0.029 C 
ATOM     39  C   LIG    1      -38.533  72.227  26.845  0.00  0.00    +0.036 C 
BRANCH  34  40
ATOM     40  O   LIG    1      -37.055  73.964  25.982  0.00  0.00    -0.389 OA
ATOM     41  H   LIG    1      -37.637  74.670  26.305  0.00  0.00    +0.210 HD
ENDBRANCH  34  40
ENDBRANCH  31  37
BRANCH  32  42
ATOM     42  O   LIG    1      -33.778  71.088  28.547  0.00  0.00    -0.491 OA
ATOM     43  H   LIG    1      -33.399  71.194  29.439  0.00  0.00    +0.294 HD
ENDBRANCH  32  42
ENDBRANCH   1  32
TORSDOF 8
ENDMDL
MODEL 5
REMARK VINA RESULT:      -6.7     13.986     16.226
REMARK  Name = pdb/CHEMBL3892259.pdb
REMARK                            x       y       z     vdW  Elec       q    Type
REMARK                         _______ _______ _______ _____ _____    ______ ____
ROOT
ATOM      1  C   LIG    1      -37.509  80.088  27.313  0.00  0.00    +0.149 A 
ATOM      2  N   LIG    1      -36.358  79.551  27.752  0.00  0.00    -0.160 NA
ATOM      3  N   LIG    1      -36.499  78.196  27.574  0.00  0.00    -0.218 N 
ATOM      4  C   LIG    1      -37.746  77.893  26.971  0.00  0.00    +0.129 A 
ATOM      5  C   LIG    1      -38.394  79.095  26.846  0.00  0.00    +0.078 A 
ENDROOT
BRANCH   3   6
ATOM      6  C   LIG    1      -35.456  77.322  28.044  0.00  0.00    +0.067 A 
ATOM      7  C   LIG    1      -34.794  76.406  27.215  0.00  0.00    +0.028 A 
ATOM      8  C   LIG    1      -33.815  75.545  27.723  0.00  0.00    +0.002 A 
ATOM      9  C   LIG    1      -33.488  75.570  29.072  0.00  0.00    +0.000 A 
ATOM     10  C   LIG    1      -34.126  76.474  29.913  0.00  0.00    +0.002 A 
ATOM     11  C   LIG    1      -35.100  77.347  29.406  0.00  0.00    +0.028 A 
ENDBRANCH   3   6
BRANCH   4  12
ATOM     12  N   LIG    1      -38.216  76.656  26.522  0.00  0.00    -0.266 N 
ATOM     13  H   LIG    1      -38.774  76.116  27.141  0.00  0.00    +0.157 HD
ATOM     14  C   LIG    1      -37.907  76.061  25.243  0.00  0.00    +0.251 C 
ATOM     15  O   LIG    1      -37.212  76.646  24.441  0.00  0.00    -0.270 OA
BRANCH  14  16
ATOM     16  C   LIG    1      -38.590  74.785  24.895  0.00  0.00    +0.056 A 
ATOM     17  C   LIG    1      -39.788  74.724  24.194  0.00  0.00    +0.054 A 
ATOM     18 CL   LIG    1      -40.703  76.120  23.742  0.00  0.00    -0.083 Cl
ATOM     19  C   LIG    1      -40.320  73.486  23.829  0.00  0.00    +0.041 A 
ATOM     20  C   LIG    1      -39.676  72.289  24.176  0.00  0.00    +0.052 A 
ATOM     21 CL   LIG    1      -40.402  70.859  23.520  0.00  0.00    -0.083 Cl
ATOM     22  C   LIG    1      -38.499  72.295  24.948  0.00  0.00    +0.019 A 
ATOM     23  C   LIG    1      -37.969  73.577  25.280  0.00  0.00    +0.026 A 
BRANCH  22  24
ATOM     24  C   LIG    1      -37.768  71.080  25.405  0.00  0.00    +0.073 A 
ATOM     25  N   LIG    1      -36.526  70.927  24.869  0.00  0.00    -0.252 NA
ATOM     26  C   LIG    1      -35.800  69.839  25.239  0.00  0.00    +0.149 A 
ATOM     27  C   LIG    1      -36.258  68.873  26.113  0.00  0.00    +0.141 A 
ATOM     28  F   LIG    1      -35.506  67.811  26.423  0.00  0.00    -0.204 F 
ATOM     29  C   LIG    1      -37.511  69.032  26.672  0.00  0.00    +0.042 A 
ATOM     30  C   LIG    1      -38.261  70.160  26.338  0.00  0.00    +0.031 A 
ENDBRANCH  22  24
ENDBRANCH  14  16
ENDBRANCH   4  12
BRANCH   1  32
ATOM     31  N   LIG    1      -38.349  82.079  26.344  0.00  0.00    -0.246 NA
ATOM     32  C   LIG    1      -37.738  81.532  27.324  0.00  0.00    +0.236 C 
BRANCH  31  37
ATOM     33  C   LIG    1      -39.897  83.331  22.140  0.00  0.00    +0.041 C 
ATOM     34  C   LIG    1      -39.428  83.144  23.588  0.00  0.00    +0.063 C 
ATOM     35  C   LIG    1      -40.526  83.589  24.563  0.00  0.00    +0.036 C 
ATOM     36  C   LIG    1      -40.106  83.716  26.038  0.00  0.00    +0.029 C 
ATOM     37  C   LIG    1      -38.616  83.512  26.332  0.00  0.00    +0.109 C 
ATOM     38  C   LIG    1      -37.763  84.218  25.282  0.00  0.00    +0.029 C 
ATOM     39  C   LIG    1      -38.109  83.902  23.821  0.00  0.00    +0.036 C 
BRANCH  34  40
ATOM     40  O   LIG    1      -39.223  81.734  23.737  0.00  0.00    -0.389 OA
ATOM     41  H   LIG    1      -39.109  81.553  24.683  0.00  0.00    +0.210 HD
ENDBRANCH  34  40
ENDBRANCH  31  37
BRANCH  32  42
ATOM     42  O   LIG    1      -37.258  82.200  28.395  0.00  0.00    -0.491 OA
ATOM     43  H   LIG    1      -37.259  83.156  28.198  0.00  0.00    +0.294 HD
ENDBRANCH  32  42
ENDBRANCH   1  32
TORSDOF 8
ENDMDL
MODEL 6
REMARK VINA RESULT:      -6.5     11.951     15.194
REMARK  Name = pdb/CHEMBL3892259.pdb
REMARK                            x       y       z     vdW  Elec       q    Type
REMARK                         _______ _______ _______ _____ _____    ______ ____
ROOT
ATOM      1  C   LIG    1      -35.236  72.915  28.325  0.00  0.00    +0.149 A 
ATOM      2  N   LIG    1      -36.310  73.345  27.640  0.00  0.00    -0.160 NA
ATOM      3  N   LIG    1      -36.617  72.327  26.771  0.00  0.00    -0.218 N 
ATOM      4  C   LIG    1      -35.742  71.226  26.953  0.00  0.00    +0.129 A 
ATOM      5  C   LIG    1      -34.847  71.624  27.913  0.00  0.00    +0.078 A 
ENDROOT
BRANCH   3   6
ATOM      6  C   LIG    1      -37.678  72.524  25.818  0.00  0.00    +0.067 A 
ATOM      7  C   LIG    1      -38.108  73.792  25.403  0.00  0.00    +0.028 A 
ATOM      8  C   LIG    1      -39.173  73.938  24.507  0.00  0.00    +0.002 A 
ATOM      9  C   LIG    1      -39.839  72.823  24.019  0.00  0.00    +0.000 A 
ATOM     10  C   LIG    1      -39.428  71.555  24.411  0.00  0.00    +0.002 A 
ATOM     11  C   LIG    1      -38.353  71.402  25.300  0.00  0.00    +0.028 A 
ENDBRANCH   3   6
BRANCH   4  12
ATOM     12  N   LIG    1      -35.795  69.966  26.353  0.00  0.00    -0.266 N 
ATOM     13  H   LIG    1      -36.555  69.369  26.583  0.00  0.00    +0.157 HD
ATOM     14  C   LIG    1      -34.795  69.424  25.462  0.00  0.00    +0.251 C 
ATOM     15  O   LIG    1      -33.824  70.080  25.152  0.00  0.00    -0.270 OA
BRANCH  14  16
ATOM     16  C   LIG    1      -35.077  68.106  24.832  0.00  0.00    +0.056 A 
ATOM     17  C   LIG    1      -34.992  66.897  25.512  0.00  0.00    +0.054 A 
ATOM     18 CL   LIG    1      -34.430  66.755  27.141  0.00  0.00    -0.083 Cl
ATOM     19  C   LIG    1      -35.358  65.711  24.874  0.00  0.00    +0.041 A 
ATOM     20  C   LIG    1      -35.796  65.710  23.541  0.00  0.00    +0.052 A 
ATOM     21 CL   LIG    1      -36.342  64.171  22.959  0.00  0.00    -0.083 Cl
ATOM     22  C   LIG    1      -35.830  66.898  22.786  0.00  0.00    +0.019 A 
ATOM     23  C   LIG    1      -35.475  68.094  23.478  0.00  0.00    +0.026 A 
BRANCH  22  24
ATOM     24  C   LIG    1      -36.234  66.992  21.356  0.00  0.00    +0.073 A 
ATOM     25  N   LIG    1      -37.404  67.652  21.137  0.00  0.00    -0.252 NA
ATOM     26  C   LIG    1      -37.836  67.777  19.854  0.00  0.00    +0.149 A 
ATOM     27  C   LIG    1      -37.167  67.256  18.765  0.00  0.00    +0.141 A 
ATOM     28  F   LIG    1      -37.653  67.391  17.526  0.00  0.00    -0.204 F 
ATOM     29  C   LIG    1      -35.971  66.599  18.980  0.00  0.00    +0.042 A 
ATOM     30  C   LIG    1      -35.485  66.491  20.284  0.00  0.00    +0.031 A 
ENDBRANCH  22  24
ENDBRANCH  14  16
ENDBRANCH   4  12
BRANCH   1  32
ATOM     31  N   LIG    1      -34.085  74.847  29.067  0.00  0.00    -0.246 NA
ATOM     32  C   LIG    1      -34.616  73.726  29.372  0.00  0.00    +0.236 C 
BRANCH  31  37
ATOM     33  C   LIG    1      -32.500  78.753  27.101  0.00  0.00    +0.041 C 
ATOM     34  C   LIG    1      -32.957  77.564  27.956  0.00  0.00    +0.063 C 
ATOM     35  C   LIG    1      -33.931  78.035  29.043  0.00  0.00    +0.036 C 
ATOM     36  C   LIG    1      -34.262  77.010  30.141  0.00  0.00    +0.029 C 
ATOM     37  C   LIG    1      -33.480  75.693  30.088  0.00  0.00    +0.109 C 
ATOM     38  C   LIG    1      -32.010  75.958  29.777  0.00  0.00    +0.029 C 
ATOM     39  C   LIG    1      -31.737  76.838  28.549  0.00  0.00    +0.036 C 
BRANCH  34  40
ATOM     40  O   LIG    1      -33.657  76.701  27.052  0.00  0.00    -0.389 OA
ATOM     41  H   LIG    1      -32.996  76.157  26.596  0.00  0.00    +0.210 HD
ENDBRANCH  34  40
ENDBRANCH  31  37
BRANCH  32  42
ATOM     42  O   LIG    1      -34.640  73.204  30.618  0.00  0.00    -0.491 OA
ATOM     43  H   LIG    1      -34.734  72.236  30.553  0.00  0.00    +0.294 HD
ENDBRANCH  32  42
ENDBRANCH   1  32
TORSDOF 8
ENDMDL
MODEL 7
REMARK VINA RESULT:      -6.4     15.240     20.169
REMARK  Name = pdb/CHEMBL3892259.pdb
REMARK                            x       y       z     vdW  Elec       q    Type
REMARK                         _______ _______ _______ _____ _____    ______ ____
ROOT
ATOM      1  C   LIG    1      -35.345  66.276  21.902  0.00  0.00    +0.149 A 
ATOM      2  N   LIG    1      -34.819  66.316  23.139  0.00  0.00    -0.160 NA
ATOM      3  N   LIG    1      -35.281  67.487  23.690  0.00  0.00    -0.218 N 
ATOM      4  C   LIG    1      -36.146  68.162  22.792  0.00  0.00    +0.129 A 
ATOM      5  C   LIG    1      -36.148  67.406  21.648  0.00  0.00    +0.078 A 
ENDROOT
BRANCH   3   6
ATOM      6  C   LIG    1      -34.811  67.872  24.995  0.00  0.00    +0.067 A 
ATOM      7  C   LIG    1      -34.519  69.198  25.344  0.00  0.00    +0.028 A 
ATOM      8  C   LIG    1      -34.023  69.521  26.612  0.00  0.00    +0.002 A 
ATOM      9  C   LIG    1      -33.795  68.527  27.552  0.00  0.00    +0.000 A 
ATOM     10  C   LIG    1      -34.082  67.204  27.232  0.00  0.00    +0.002 A 
ATOM     11  C   LIG    1      -34.590  66.877  25.967  0.00  0.00    +0.028 A 
ENDBRANCH   3   6
BRANCH   4  12
ATOM     12  N   LIG    1      -36.904  69.313  23.016  0.00  0.00    -0.266 N 
ATOM     13  H   LIG    1      -36.599  70.162  22.600  0.00  0.00    +0.157 HD
ATOM     14  C   LIG    1      -38.073  69.391  23.861  0.00  0.00    +0.251 C 
ATOM     15  O   LIG    1      -38.494  68.403  24.424  0.00  0.00    -0.270 OA
BRANCH  14  16
ATOM     16  C   LIG    1      -38.816  70.680  23.891  0.00  0.00    +0.056 A 
ATOM     17  C   LIG    1      -40.088  70.843  23.357  0.00  0.00    +0.054 A 
ATOM     18 CL   LIG    1      -40.923  69.607  22.482  0.00  0.00    -0.083 Cl
ATOM     19  C   LIG    1      -40.755  72.061  23.502  0.00  0.00    +0.041 A 
ATOM     20  C   LIG    1      -40.154  73.141  24.166  0.00  0.00    +0.052 A 
ATOM     21 CL   LIG    1      -41.179  74.523  24.377  0.00  0.00    -0.083 Cl
ATOM     22  C   LIG    1      -38.839  73.050  24.661  0.00  0.00    +0.019 A 
ATOM     23  C   LIG    1      -38.199  71.783  24.518  0.00  0.00    +0.026 A 
BRANCH  22  24
ATOM     24  C   LIG    1      -38.100  74.153  25.337  0.00  0.00    +0.073 A 
ATOM     25  N   LIG    1      -37.622  73.844  26.573  0.00  0.00    -0.252 NA
ATOM     26  C   LIG    1      -36.937  74.802  27.251  0.00  0.00    +0.149 A 
ATOM     27  C   LIG    1      -36.716  76.075  26.765  0.00  0.00    +0.141 A 
ATOM     28  F   LIG    1      -36.054  76.985  27.488  0.00  0.00    -0.204 F 
ATOM     29  C   LIG    1      -37.185  76.389  25.505  0.00  0.00    +0.042 A 
ATOM     30  C   LIG    1      -37.858  75.410  24.772  0.00  0.00    +0.031 A 
ENDBRANCH  22  24
ENDBRANCH  14  16
ENDBRANCH   4  12
BRANCH   1  32
ATOM     31  N   LIG    1      -35.089  65.357  19.735  0.00  0.00    -0.246 NA
ATOM     32  C   LIG    1      -35.094  65.155  20.996  0.00  0.00    +0.236 C 
BRANCH  31  37
ATOM     33  C   LIG    1      -35.398  66.942  15.372  0.00  0.00    +0.041 C 
ATOM     34  C   LIG    1      -35.227  66.214  16.712  0.00  0.00    +0.063 C 
ATOM     35  C   LIG    1      -33.814  65.628  16.821  0.00  0.00    +0.036 C 
ATOM     36  C   LIG    1      -33.580  64.644  17.980  0.00  0.00    +0.029 C 
ATOM     37  C   LIG    1      -34.818  64.269  18.803  0.00  0.00    +0.109 C 
ATOM     38  C   LIG    1      -36.013  64.024  17.886  0.00  0.00    +0.029 C 
ATOM     39  C   LIG    1      -36.313  65.136  16.871  0.00  0.00    +0.036 C 
BRANCH  34  40
ATOM     40  O   LIG    1      -35.384  67.228  17.712  0.00  0.00    -0.389 OA
ATOM     41  H   LIG    1      -36.284  67.153  18.066  0.00  0.00    +0.210 HD
ENDBRANCH  34  40
ENDBRANCH  31  37
BRANCH  32  42
ATOM     42  O   LIG    1      -34.895  63.954  21.580  0.00  0.00    -0.491 OA
ATOM     43  H   LIG    1      -35.743  63.634  21.942  0.00  0.00    +0.294 HD
ENDBRANCH  32  42
ENDBRANCH   1  32
TORSDOF 8
ENDMDL
MODEL 8
REMARK VINA RESULT:      -6.4      5.909     11.810
REMARK  Name = pdb/CHEMBL3892259.pdb
REMARK                            x       y       z     vdW  Elec       q    Type
REMARK                         _______ _______ _______ _____ _____    ______ ____
ROOT
ATOM      1  C   LIG    1      -21.992  79.688  34.574  0.00  0.00    +0.149 A 
ATOM      2  N   LIG    1      -21.033  80.075  35.432  0.00  0.00    -0.160 NA
ATOM      3  N   LIG    1      -21.600  81.079  36.179  0.00  0.00    -0.218 N 
ATOM      4  C   LIG    1      -22.952  81.284  35.806  0.00  0.00    +0.129 A 
ATOM      5  C   LIG    1      -23.179  80.425  34.761  0.00  0.00    +0.078 A 
ENDROOT
BRANCH   3   6
ATOM      6  C   LIG    1      -20.783  81.776  37.138  0.00  0.00    +0.067 A 
ATOM      7  C   LIG    1      -20.713  83.174  37.211  0.00  0.00    +0.028 A 
ATOM      8  C   LIG    1      -19.872  83.811  38.131  0.00  0.00    +0.002 A 
ATOM      9  C   LIG    1      -19.073  83.065  38.986  0.00  0.00    +0.000 A 
ATOM     10  C   LIG    1      -19.129  81.676  38.937  0.00  0.00    +0.002 A 
ATOM     11  C   LIG    1      -19.979  81.034  38.025  0.00  0.00    +0.028 A 
ENDBRANCH   3   6
BRANCH   4  12
ATOM     12  N   LIG    1      -23.899  82.122  36.399  0.00  0.00    -0.266 N 
ATOM     13  H   LIG    1      -23.761  83.104  36.333  0.00  0.00    +0.157 HD
ATOM     14  C   LIG    1      -25.044  81.680  37.162  0.00  0.00    +0.251 C 
ATOM     15  O   LIG    1      -25.268  80.498  37.309  0.00  0.00    -0.270 OA
BRANCH  14  16
ATOM     16  C   LIG    1      -26.005  82.718  37.624  0.00  0.00    +0.056 A 
ATOM     17  C   LIG    1      -26.417  82.846  38.945  0.00  0.00    +0.054 A 
ATOM     18 CL   LIG    1      -25.965  81.744  40.198  0.00  0.00    -0.083 Cl
ATOM     19  C   LIG    1      -27.253  83.900  39.315  0.00  0.00    +0.041 A 
ATOM     20  C   LIG    1      -27.707  84.832  38.369  0.00  0.00    +0.052 A 
ATOM     21 CL   LIG    1      -28.618  86.151  39.030  0.00  0.00    -0.083 Cl
ATOM     22  C   LIG    1      -27.377  84.705  37.007  0.00  0.00    +0.019 A 
ATOM     23  C   LIG    1      -26.500  83.632  36.669  0.00  0.00    +0.026 A 
BRANCH  22  24
ATOM     24  C   LIG    1      -27.845  85.613  35.923  0.00  0.00    +0.073 A 
ATOM     25  N   LIG    1      -26.922  86.519  35.500  0.00  0.00    -0.252 NA
ATOM     26  C   LIG    1      -27.279  87.382  34.513  0.00  0.00    +0.149 A 
ATOM     27  C   LIG    1      -28.530  87.404  33.930  0.00  0.00    +0.141 A 
ATOM     28  F   LIG    1      -28.832  88.294  32.977  0.00  0.00    -0.204 F 
ATOM     29  C   LIG    1      -29.466  86.477  34.344  0.00  0.00    +0.042 A 
ATOM     30  C   LIG    1      -29.112  85.554  35.329  0.00  0.00    +0.031 A 
ENDBRANCH  22  24
ENDBRANCH  14  16
ENDBRANCH   4  12
BRANCH   1  32
ATOM     31  N   LIG    1      -22.750  78.190  32.903  0.00  0.00    -0.246 NA
ATOM     32  C   LIG    1      -21.772  78.610  33.609  0.00  0.00    +0.236 C 
BRANCH  31  37
ATOM     33  C   LIG    1      -26.875  76.341  31.809  0.00  0.00    +0.041 C 
ATOM     34  C   LIG    1      -25.427  76.807  32.001  0.00  0.00    +0.063 C 
ATOM     35  C   LIG    1      -24.843  77.290  30.667  0.00  0.00    +0.036 C 
ATOM     36  C   LIG    1      -23.324  77.531  30.645  0.00  0.00    +0.029 C 
ATOM     37  C   LIG    1      -22.562  77.135  31.914  0.00  0.00    +0.109 C 
ATOM     38  C   LIG    1      -23.066  75.795  32.442  0.00  0.00    +0.029 C 
ATOM     39  C   LIG    1      -24.585  75.680  32.625  0.00  0.00    +0.036 C 
BRANCH  34  40
ATOM     40  O   LIG    1      -25.508  77.921  32.899  0.00  0.00    -0.389 OA
ATOM     41  H   LIG    1      -24.628  78.047  33.288  0.00  0.00    +0.210 HD
ENDBRANCH  34  40
ENDBRANCH  31  37
BRANCH  32  42
ATOM     42  O   LIG    1      -20.515  78.118  33.548  0.00  0.00    -0.491 OA
ATOM     43  H   LIG    1      -20.450  77.514  32.785  0.00  0.00    +0.294 HD
ENDBRANCH  32  42
ENDBRANCH   1  32
TORSDOF 8
ENDMDL
MODEL 9
REMARK VINA RESULT:      -6.3     12.391     15.519
REMARK  Name = pdb/CHEMBL3892259.pdb
REMARK                            x       y       z     vdW  Elec       q    Type
REMARK                         _______ _______ _______ _____ _____    ______ ____
ROOT
ATOM      1  C   LIG    1      -32.745  76.264  28.873  0.00  0.00    +0.149 A 
ATOM      2  N   LIG    1      -33.019  77.512  29.288  0.00  0.00    -0.160 NA
ATOM      3  N   LIG    1      -34.074  77.929  28.514  0.00  0.00    -0.218 N 
ATOM      4  C   LIG    1      -34.491  76.899  27.632  0.00  0.00    +0.129 A 
ATOM      5  C   LIG    1      -33.616  75.863  27.840  0.00  0.00    +0.078 A 
ENDROOT
BRANCH   3   6
ATOM      6  C   LIG    1      -34.547  79.281  28.654  0.00  0.00    +0.067 A 
ATOM      7  C   LIG    1      -34.683  80.161  27.571  0.00  0.00    +0.028 A 
ATOM      8  C   LIG    1      -35.106  81.481  27.759  0.00  0.00    +0.002 A 
ATOM      9  C   LIG    1      -35.387  81.955  29.033  0.00  0.00    +0.000 A 
ATOM     10  C   LIG    1      -35.265  81.100  30.122  0.00  0.00    +0.002 A 
ATOM     11  C   LIG    1      -34.853  79.772  29.938  0.00  0.00    +0.028 A 
ENDBRANCH   3   6
BRANCH   4  12
ATOM     12  N   LIG    1      -35.592  76.884  26.773  0.00  0.00    -0.266 N 
ATOM     13  H   LIG    1      -35.477  77.255  25.859  0.00  0.00    +0.157 HD
ATOM     14  C   LIG    1      -36.916  76.425  27.123  0.00  0.00    +0.251 C 
ATOM     15  O   LIG    1      -37.143  75.980  28.228  0.00  0.00    -0.270 OA
BRANCH  14  16
ATOM     16  C   LIG    1      -37.937  76.381  26.041  0.00  0.00    +0.056 A 
ATOM     17  C   LIG    1      -38.380  75.202  25.454  0.00  0.00    +0.054 A 
ATOM     18 CL   LIG    1      -37.716  73.647  25.814  0.00  0.00    -0.083 Cl
ATOM     19  C   LIG    1      -39.404  75.237  24.507  0.00  0.00    +0.041 A 
ATOM     20  C   LIG    1      -39.990  76.451  24.116  0.00  0.00    +0.052 A 
ATOM     21 CL   LIG    1      -41.339  76.292  23.040  0.00  0.00    -0.083 Cl
ATOM     22  C   LIG    1      -39.528  77.678  24.628  0.00  0.00    +0.019 A 
ATOM     23  C   LIG    1      -38.499  77.603  25.613  0.00  0.00    +0.026 A 
BRANCH  22  24
ATOM     24  C   LIG    1      -40.051  79.019  24.243  0.00  0.00    +0.073 A 
ATOM     25  N   LIG    1      -39.246  79.724  23.402  0.00  0.00    -0.252 NA
ATOM     26  C   LIG    1      -39.659  80.958  23.007  0.00  0.00    +0.149 A 
ATOM     27  C   LIG    1      -40.838  81.542  23.426  0.00  0.00    +0.141 A 
ATOM     28  F   LIG    1      -41.181  82.770  23.022  0.00  0.00    -0.204 F 
ATOM     29  C   LIG    1      -41.666  80.824  24.267  0.00  0.00    +0.042 A 
ATOM     30  C   LIG    1      -41.283  79.539  24.656  0.00  0.00    +0.031 A 
ENDBRANCH  22  24
ENDBRANCH  14  16
ENDBRANCH   4  12
BRANCH   1  32
ATOM     31  N   LIG    1      -31.861  74.220  29.677  0.00  0.00    -0.246 NA
ATOM     32  C   LIG    1      -31.678  75.468  29.479  0.00  0.00    +0.236 C 
BRANCH  31  37
ATOM     33  C   LIG    1      -33.739  70.341  31.429  0.00  0.00    +0.041 C 
ATOM     34  C   LIG    1      -32.910  71.523  30.910  0.00  0.00    +0.063 C 
ATOM     35  C   LIG    1      -31.864  71.035  29.901  0.00  0.00    +0.036 C 
ATOM     36  C   LIG    1      -30.786  72.057  29.501  0.00  0.00    +0.029 C 
ATOM     37  C   LIG    1      -30.811  73.391  30.256  0.00  0.00    +0.109 C 
ATOM     38  C   LIG    1      -31.057  73.156  31.743  0.00  0.00    +0.029 C 
ATOM     39  C   LIG    1      -32.268  72.278  32.087  0.00  0.00    +0.036 C 
BRANCH  34  40
ATOM     40  O   LIG    1      -33.847  72.368  30.231  0.00  0.00    -0.389 OA
ATOM     41  H   LIG    1      -34.070  73.098  30.830  0.00  0.00    +0.210 HD
ENDBRANCH  34  40
ENDBRANCH  31  37
BRANCH  32  42
ATOM     42  O   LIG    1      -30.551  76.138  29.805  0.00  0.00    -0.491 OA
ATOM     43  H   LIG    1      -30.302  75.911  30.720  0.00  0.00    +0.294 HD
ENDBRANCH  32  42
ENDBRANCH   1  32
TORSDOF 8
ENDMDL
