MODEL 1
REMARK VINA RESULT:      -5.7      0.000      0.000
REMARK  Name = pdb/CHEMBL3675955.pdb
REMARK                            x       y       z     vdW  Elec       q    Type
REMARK                         _______ _______ _______ _____ _____    ______ ____
ROOT
ATOM      1  C   LIG    1      -35.940  71.759  27.361  0.00  0.00    +0.100 A 
ATOM      2  C   LIG    1      -34.856  72.153  28.127  0.00  0.00    +0.170 A 
ATOM      3  N   LIG    1      -34.449  73.381  28.580  0.00  0.00    -0.212 NA
ATOM      4  C   LIG    1      -33.333  73.454  29.275  0.00  0.00    +0.126 A 
ATOM      5  C   LIG    1      -32.501  72.226  29.569  0.00  0.00    +0.063 A 
ATOM      6  C   LIG    1      -32.954  71.052  29.118  0.00  0.00    +0.118 A 
ATOM      7  N   LIG    1      -34.125  70.992  28.385  0.00  0.00    -0.221 N 
ATOM      8  N   LIG    1      -34.697  69.895  27.838  0.00  0.00    -0.173 NA
ATOM      9  C   LIG    1      -35.764  70.369  27.200  0.00  0.00    +0.150 A 
ENDROOT
BRANCH   4  10
ATOM     10  N   LIG    1      -32.920  74.691  29.764  0.00  0.00    -0.308 N 
ATOM     11  C   LIG    1      -32.402  75.736  28.867  0.00  0.00    +0.107 C 
ATOM     12  C   LIG    1      -31.067  76.118  29.510  0.00  0.00    +0.029 C 
ATOM     13  C   LIG    1      -31.332  75.987  30.998  0.00  0.00    +0.021 C 
ATOM     14  C   LIG    1      -32.299  74.810  31.095  0.00  0.00    +0.107 C 
BRANCH  11  15
ATOM     15  C   LIG    1      -33.374  76.896  28.698  0.00  0.00    -0.001 A 
ATOM     16  CA  LIG    1      -33.301  77.784  27.607  0.00  0.00    +0.072 A 
ATOM     17  N   LIG    1      -34.150  78.848  27.457  0.00  0.00    -0.254 NA
ATOM     18  C   LIG    1      -35.094  79.047  28.405  0.00  0.00    +0.149 A 
ATOM     19  C   LIG    1      -35.256  78.215  29.489  0.00  0.00    +0.142 A 
ATOM     20  F   LIG    1      -36.222  78.440  30.388  0.00  0.00    -0.204 F 
ATOM     21  C   LIG    1      -34.399  77.135  29.636  0.00  0.00    +0.047 A 
BRANCH  16  22
ATOM     22  C   LIG    1      -32.277  77.656  26.495  0.00  0.00    +0.211 C 
BRANCH  22  23
ATOM     23  O   LIG    1      -32.311  78.790  25.627  0.00  0.00    -0.389 OA
ATOM     24  H   LIG    1      -31.610  78.637  24.962  0.00  0.00    +0.210 HD
ENDBRANCH  22  23
ENDBRANCH  16  22
ENDBRANCH  11  15
ENDBRANCH   4  10
BRANCH   1  27
ATOM     25  N   LIG    1      -36.750  73.926  26.778  0.00  0.00    -0.306 N 
ATOM     26  H   LIG    1      -35.868  74.225  27.186  0.00  0.00    +0.150 HD
ATOM     27  C   LIG    1      -36.999  72.571  26.811  0.00  0.00    +0.250 C 
ATOM     28  O   LIG    1      -38.065  72.056  26.453  0.00  0.00    -0.270 OA
BRANCH  25  30
ATOM     29  C   LIG    1      -38.115  74.617  24.834  0.00  0.00    +0.031 C 
ATOM     30  C   LIG    1      -37.686  74.941  26.276  0.00  0.00    +0.026 C 
ATOM     31  C   LIG    1      -38.927  75.018  27.178  0.00  0.00    +0.031 C 
ATOM     32  C   LIG    1      -37.005  76.324  26.285  0.00  0.00    +0.031 C 
ENDBRANCH  25  30
ENDBRANCH   1  27
TORSDOF 6
ENDMDL
MODEL 2
REMARK VINA RESULT:      -5.7     18.924     22.182
REMARK  Name = pdb/CHEMBL3675955.pdb
REMARK                            x       y       z     vdW  Elec       q    Type
REMARK                         _______ _______ _______ _____ _____    ______ ____
ROOT
ATOM      1  C   LIG    1      -18.897  85.699  13.348  0.00  0.00    +0.100 A 
ATOM      2  C   LIG    1      -19.069  84.348  13.594  0.00  0.00    +0.170 A 
ATOM      3  N   LIG    1      -20.096  83.641  14.165  0.00  0.00    -0.212 NA
ATOM      4  C   LIG    1      -19.962  82.338  14.298  0.00  0.00    +0.126 A 
ATOM      5  C   LIG    1      -18.709  81.621  13.848  0.00  0.00    +0.063 A 
ATOM      6  C   LIG    1      -17.747  82.356  13.282  0.00  0.00    +0.118 A 
ATOM      7  N   LIG    1      -17.901  83.725  13.154  0.00  0.00    -0.221 N 
ATOM      8  N   LIG    1      -17.015  84.605  12.634  0.00  0.00    -0.173 NA
ATOM      9  C   LIG    1      -17.607  85.788  12.785  0.00  0.00    +0.150 A 
ENDROOT
BRANCH   4  10
ATOM     10  N   LIG    1      -21.007  81.604  14.854  0.00  0.00    -0.308 N 
ATOM     11  C   LIG    1      -22.289  82.237  15.203  0.00  0.00    +0.107 C 
ATOM     12  C   LIG    1      -22.500  81.818  16.660  0.00  0.00    +0.029 C 
ATOM     13  C   LIG    1      -21.920  80.417  16.720  0.00  0.00    +0.021 C 
ATOM     14  C   LIG    1      -20.739  80.468  15.754  0.00  0.00    +0.107 C 
BRANCH  11  15
ATOM     15  C   LIG    1      -23.415  81.833  14.261  0.00  0.00    -0.001 A 
ATOM     16  CA  LIG    1      -23.856  82.669  13.216  0.00  0.00    +0.072 A 
ATOM     17  N   LIG    1      -24.887  82.332  12.380  0.00  0.00    -0.254 NA
ATOM     18  C   LIG    1      -25.503  81.144  12.577  0.00  0.00    +0.149 A 
ATOM     19  C   LIG    1      -25.121  80.253  13.554  0.00  0.00    +0.142 A 
ATOM     20  F   LIG    1      -25.746  79.077  13.693  0.00  0.00    -0.204 F 
ATOM     21  C   LIG    1      -24.073  80.594  14.395  0.00  0.00    +0.047 A 
BRANCH  16  22
ATOM     22  C   LIG    1      -23.240  84.022  12.916  0.00  0.00    +0.211 C 
BRANCH  22  23
ATOM     23  O   LIG    1      -22.160  83.905  11.989  0.00  0.00    -0.389 OA
ATOM     24  H   LIG    1      -21.509  84.587  12.251  0.00  0.00    +0.210 HD
ENDBRANCH  22  23
ENDBRANCH  16  22
ENDBRANCH  11  15
ENDBRANCH   4  10
BRANCH   1  27
ATOM     25  N   LIG    1      -20.954  86.813  12.878  0.00  0.00    -0.306 N 
ATOM     26  H   LIG    1      -21.035  86.091  12.167  0.00  0.00    +0.150 HD
ATOM     27  C   LIG    1      -19.800  86.790  13.630  0.00  0.00    +0.250 C 
ATOM     28  O   LIG    1      -19.500  87.656  14.461  0.00  0.00    -0.270 OA
BRANCH  25  30
ATOM     29  C   LIG    1      -22.500  87.954  14.435  0.00  0.00    +0.031 C 
ATOM     30  C   LIG    1      -22.006  87.834  12.983  0.00  0.00    +0.026 C 
ATOM     31  C   LIG    1      -21.481  89.195  12.501  0.00  0.00    +0.031 C 
ATOM     32  C   LIG    1      -23.200  87.441  12.090  0.00  0.00    +0.031 C 
ENDBRANCH  25  30
ENDBRANCH   1  27
TORSDOF 6
ENDMDL
MODEL 3
REMARK VINA RESULT:      -5.5     17.450     21.126
REMARK  Name = pdb/CHEMBL3675955.pdb
REMARK                            x       y       z     vdW  Elec       q    Type
REMARK                         _______ _______ _______ _____ _____    ______ ____
ROOT
ATOM      1  C   LIG    1      -24.034  85.639  11.642  0.00  0.00    +0.100 A 
ATOM      2  C   LIG    1      -23.926  84.317  12.039  0.00  0.00    +0.170 A 
ATOM      3  N   LIG    1      -23.201  83.712  13.033  0.00  0.00    -0.212 NA
ATOM      4  C   LIG    1      -23.276  82.403  13.155  0.00  0.00    +0.126 A 
ATOM      5  C   LIG    1      -24.128  81.568  12.225  0.00  0.00    +0.063 A 
ATOM      6  C   LIG    1      -24.828  82.212  11.286  0.00  0.00    +0.118 A 
ATOM      7  N   LIG    1      -24.735  83.587  11.167  0.00  0.00    -0.221 N 
ATOM      8  N   LIG    1      -25.352  84.376  10.258  0.00  0.00    -0.173 NA
ATOM      9  C   LIG    1      -24.900  85.598  10.529  0.00  0.00    +0.150 A 
ENDROOT
BRANCH   4  10
ATOM     10  N   LIG    1      -22.564  81.778  14.175  0.00  0.00    -0.308 N 
ATOM     11  C   LIG    1      -23.251  81.104  15.289  0.00  0.00    +0.107 C 
ATOM     12  C   LIG    1      -22.602  81.726  16.527  0.00  0.00    +0.029 C 
ATOM     13  C   LIG    1      -21.161  81.949  16.107  0.00  0.00    +0.021 C 
ATOM     14  C   LIG    1      -21.265  82.307  14.626  0.00  0.00    +0.107 C 
BRANCH  11  15
ATOM     15  C   LIG    1      -23.138  79.588  15.213  0.00  0.00    -0.001 A 
ATOM     16  CA  LIG    1      -24.270  78.748  15.232  0.00  0.00    +0.072 A 
ATOM     17  N   LIG    1      -24.183  77.382  15.194  0.00  0.00    -0.254 NA
ATOM     18  C   LIG    1      -22.952  76.825  15.137  0.00  0.00    +0.149 A 
ATOM     19  C   LIG    1      -21.794  77.567  15.086  0.00  0.00    +0.142 A 
ATOM     20  F   LIG    1      -20.599  76.969  15.005  0.00  0.00    -0.204 F 
ATOM     21  C   LIG    1      -21.885  78.950  15.119  0.00  0.00    +0.047 A 
BRANCH  16  22
ATOM     22  C   LIG    1      -25.693  79.270  15.303  0.00  0.00    +0.211 C 
BRANCH  22  23
ATOM     23  O   LIG    1      -26.636  78.197  15.340  0.00  0.00    -0.389 OA
ATOM     24  H   LIG    1      -26.841  78.056  16.285  0.00  0.00    +0.210 HD
ENDBRANCH  22  23
ENDBRANCH  16  22
ENDBRANCH  11  15
ENDBRANCH   4  10
BRANCH   1  27
ATOM     25  N   LIG    1      -22.325  86.548  13.037  0.00  0.00    -0.306 N 
ATOM     26  H   LIG    1      -22.130  85.566  13.219  0.00  0.00    +0.150 HD
ATOM     27  C   LIG    1      -23.387  86.803  12.198  0.00  0.00    +0.250 C 
ATOM     28  O   LIG    1      -23.819  87.938  11.957  0.00  0.00    -0.270 OA
BRANCH  25  30
ATOM     29  C   LIG    1      -20.294  86.944  14.392  0.00  0.00    +0.031 C 
ATOM     30  C   LIG    1      -21.529  87.574  13.725  0.00  0.00    +0.026 C 
ATOM     31  C   LIG    1      -21.083  88.659  12.733  0.00  0.00    +0.031 C 
ATOM     32  C   LIG    1      -22.385  88.248  14.815  0.00  0.00    +0.031 C 
ENDBRANCH  25  30
ENDBRANCH   1  27
TORSDOF 6
ENDMDL
MODEL 4
REMARK VINA RESULT:      -5.5      3.157      7.940
REMARK  Name = pdb/CHEMBL3675955.pdb
REMARK                            x       y       z     vdW  Elec       q    Type
REMARK                         _______ _______ _______ _____ _____    ______ ____
ROOT
ATOM      1  C   LIG    1      -37.566  76.238  25.739  0.00  0.00    +0.100 A 
ATOM      2  C   LIG    1      -38.167  75.011  25.512  0.00  0.00    +0.170 A 
ATOM      3  N   LIG    1      -37.925  73.762  26.021  0.00  0.00    -0.212 NA
ATOM      4  C   LIG    1      -38.654  72.755  25.585  0.00  0.00    +0.126 A 
ATOM      5  C   LIG    1      -39.730  72.951  24.541  0.00  0.00    +0.063 A 
ATOM      6  C   LIG    1      -39.936  74.194  24.093  0.00  0.00    +0.118 A 
ATOM      7  N   LIG    1      -39.159  75.240  24.557  0.00  0.00    -0.221 N 
ATOM      8  N   LIG    1      -39.223  76.538  24.185  0.00  0.00    -0.173 NA
ATOM      9  C   LIG    1      -38.244  77.121  24.873  0.00  0.00    +0.150 A 
ENDROOT
BRANCH   4  10
ATOM     10  N   LIG    1      -38.435  71.484  26.111  0.00  0.00    -0.308 N 
ATOM     11  C   LIG    1      -38.080  70.347  25.247  0.00  0.00    +0.107 C 
ATOM     12  C   LIG    1      -39.106  69.279  25.636  0.00  0.00    +0.029 C 
ATOM     13  C   LIG    1      -39.311  69.501  27.123  0.00  0.00    +0.021 C 
ATOM     14  C   LIG    1      -39.187  71.014  27.288  0.00  0.00    +0.107 C 
BRANCH  11  15
ATOM     15  C   LIG    1      -36.629  69.917  25.415  0.00  0.00    -0.001 A 
ATOM     16  CA  LIG    1      -36.013  68.995  24.545  0.00  0.00    +0.072 A 
ATOM     17  N   LIG    1      -34.719  68.577  24.701  0.00  0.00    -0.254 NA
ATOM     18  C   LIG    1      -34.010  69.076  25.739  0.00  0.00    +0.149 A 
ATOM     19  C   LIG    1      -34.521  70.001  26.621  0.00  0.00    +0.142 A 
ATOM     20  F   LIG    1      -33.771  70.484  27.619  0.00  0.00    -0.204 F 
ATOM     21  C   LIG    1      -35.830  70.426  26.458  0.00  0.00    +0.047 A 
BRANCH  16  22
ATOM     22  C   LIG    1      -36.721  68.371  23.357  0.00  0.00    +0.211 C 
BRANCH  22  23
ATOM     23  O   LIG    1      -36.719  69.252  22.233  0.00  0.00    -0.389 OA
ATOM     24  H   LIG    1      -35.779  69.381  21.997  0.00  0.00    +0.210 HD
ENDBRANCH  22  23
ENDBRANCH  16  22
ENDBRANCH  11  15
ENDBRANCH   4  10
BRANCH   1  27
ATOM     25  N   LIG    1      -35.662  75.497  26.971  0.00  0.00    -0.306 N 
ATOM     26  H   LIG    1      -35.942  74.588  26.610  0.00  0.00    +0.150 HD
ATOM     27  C   LIG    1      -36.471  76.556  26.624  0.00  0.00    +0.250 C 
ATOM     28  O   LIG    1      -36.331  77.705  27.063  0.00  0.00    -0.270 OA
BRANCH  25  30
ATOM     29  C   LIG    1      -33.432  76.520  27.280  0.00  0.00    +0.031 C 
ATOM     30  C   LIG    1      -34.501  75.583  27.867  0.00  0.00    +0.026 C 
ATOM     31  C   LIG    1      -34.931  76.094  29.251  0.00  0.00    +0.031 C 
ATOM     32  C   LIG    1      -33.881  74.183  28.048  0.00  0.00    +0.031 C 
ENDBRANCH  25  30
ENDBRANCH   1  27
TORSDOF 6
ENDMDL
MODEL 5
REMARK VINA RESULT:      -5.4     17.743     20.159
REMARK  Name = pdb/CHEMBL3675955.pdb
REMARK                            x       y       z     vdW  Elec       q    Type
REMARK                         _______ _______ _______ _____ _____    ______ ____
ROOT
ATOM      1  C   LIG    1      -32.039  93.853  23.803  0.00  0.00    +0.100 A 
ATOM      2  C   LIG    1      -32.192  93.607  22.449  0.00  0.00    +0.170 A 
ATOM      3  N   LIG    1      -33.162  92.948  21.739  0.00  0.00    -0.212 NA
ATOM      4  C   LIG    1      -33.020  92.842  20.434  0.00  0.00    +0.126 A 
ATOM      5  C   LIG    1      -31.818  93.418  19.719  0.00  0.00    +0.063 A 
ATOM      6  C   LIG    1      -30.912  94.065  20.458  0.00  0.00    +0.118 A 
ATOM      7  N   LIG    1      -31.073  94.164  21.828  0.00  0.00    -0.221 N 
ATOM      8  N   LIG    1      -30.238  94.756  22.712  0.00  0.00    -0.173 NA
ATOM      9  C   LIG    1      -30.809  94.536  23.895  0.00  0.00    +0.150 A 
ENDROOT
BRANCH   4  10
ATOM     10  N   LIG    1      -34.009  92.198  19.696  0.00  0.00    -0.308 N 
ATOM     11  C   LIG    1      -34.123  92.380  18.240  0.00  0.00    +0.107 C 
ATOM     12  C   LIG    1      -35.589  92.774  18.050  0.00  0.00    +0.029 C 
ATOM     13  C   LIG    1      -36.319  91.972  19.112  0.00  0.00    +0.021 C 
ATOM     14  C   LIG    1      -35.336  91.933  20.280  0.00  0.00    +0.107 C 
BRANCH  11  15
ATOM     15  C   LIG    1      -33.698  91.142  17.462  0.00  0.00    -0.001 A 
ATOM     16  CA  LIG    1      -33.136  91.222  16.172  0.00  0.00    +0.072 A 
ATOM     17  N   LIG    1      -32.776  90.116  15.448  0.00  0.00    -0.254 NA
ATOM     18  C   LIG    1      -32.975  88.900  16.005  0.00  0.00    +0.149 A 
ATOM     19  C   LIG    1      -33.490  88.728  17.269  0.00  0.00    +0.142 A 
ATOM     20  F   LIG    1      -33.645  87.503  17.786  0.00  0.00    -0.204 F 
ATOM     21  C   LIG    1      -33.849  89.849  18.002  0.00  0.00    +0.047 A 
BRANCH  16  22
ATOM     22  C   LIG    1      -32.880  92.534  15.455  0.00  0.00    +0.211 C 
BRANCH  22  23
ATOM     23  O   LIG    1      -31.481  92.757  15.268  0.00  0.00    -0.389 OA
ATOM     24  H   LIG    1      -31.093  91.876  15.092  0.00  0.00    +0.210 HD
ENDBRANCH  22  23
ENDBRANCH  16  22
ENDBRANCH  11  15
ENDBRANCH   4  10
BRANCH   1  27
ATOM     25  N   LIG    1      -34.167  93.051  24.527  0.00  0.00    -0.306 N 
ATOM     26  H   LIG    1      -34.378  93.092  23.533  0.00  0.00    +0.150 HD
ATOM     27  C   LIG    1      -32.908  93.474  24.892  0.00  0.00    +0.250 C 
ATOM     28  O   LIG    1      -32.530  93.586  26.065  0.00  0.00    -0.270 OA
BRANCH  25  30
ATOM     29  C   LIG    1      -35.632  93.803  26.372  0.00  0.00    +0.031 C 
ATOM     30  C   LIG    1      -35.218  92.632  25.464  0.00  0.00    +0.026 C 
ATOM     31  C   LIG    1      -36.445  92.117  24.695  0.00  0.00    +0.031 C 
ATOM     32  C   LIG    1      -34.695  91.485  26.351  0.00  0.00    +0.031 C 
ENDBRANCH  25  30
ENDBRANCH   1  27
TORSDOF 6
ENDMDL
MODEL 6
REMARK VINA RESULT:      -5.3     18.762     22.086
REMARK  Name = pdb/CHEMBL3675955.pdb
REMARK                            x       y       z     vdW  Elec       q    Type
REMARK                         _______ _______ _______ _____ _____    ______ ____
ROOT
ATOM      1  C   LIG    1      -24.581  81.954  12.856  0.00  0.00    +0.100 A 
ATOM      2  C   LIG    1      -24.189  83.215  12.438  0.00  0.00    +0.170 A 
ATOM      3  N   LIG    1      -23.354  84.148  12.996  0.00  0.00    -0.212 NA
ATOM      4  C   LIG    1      -23.194  85.297  12.372  0.00  0.00    +0.126 A 
ATOM      5  C   LIG    1      -23.911  85.601  11.076  0.00  0.00    +0.063 A 
ATOM      6  C   LIG    1      -24.698  84.648  10.568  0.00  0.00    +0.118 A 
ATOM      7  N   LIG    1      -24.861  83.449  11.238  0.00  0.00    -0.221 N 
ATOM      8  N   LIG    1      -25.638  82.404  10.873  0.00  0.00    -0.173 NA
ATOM      9  C   LIG    1      -25.490  81.528  11.865  0.00  0.00    +0.150 A 
ENDROOT
BRANCH   4  10
ATOM     10  N   LIG    1      -22.330  86.246  12.913  0.00  0.00    -0.308 N 
ATOM     11  C   LIG    1      -21.394  85.903  13.996  0.00  0.00    +0.107 C 
ATOM     12  C   LIG    1      -21.681  86.968  15.056  0.00  0.00    +0.029 C 
ATOM     13  C   LIG    1      -22.006  88.208  14.244  0.00  0.00    +0.021 C 
ATOM     14  C   LIG    1      -22.729  87.661  13.015  0.00  0.00    +0.107 C 
BRANCH  11  15
ATOM     15  C   LIG    1      -19.947  85.856  13.524  0.00  0.00    -0.001 A 
ATOM     16  CA  LIG    1      -19.206  84.658  13.490  0.00  0.00    +0.072 A 
ATOM     17  N   LIG    1      -17.896  84.606  13.096  0.00  0.00    -0.254 NA
ATOM     18  C   LIG    1      -17.296  85.761  12.729  0.00  0.00    +0.149 A 
ATOM     19  C   LIG    1      -17.949  86.972  12.705  0.00  0.00    +0.142 A 
ATOM     20  F   LIG    1      -17.318  88.084  12.309  0.00  0.00    -0.204 F 
ATOM     21  C   LIG    1      -19.278  87.021  13.099  0.00  0.00    +0.047 A 
BRANCH  16  22
ATOM     22  C   LIG    1      -19.781  83.312  13.889  0.00  0.00    +0.211 C 
BRANCH  22  23
ATOM     23  O   LIG    1      -20.652  82.801  12.878  0.00  0.00    -0.389 OA
ATOM     24  H   LIG    1      -20.084  82.278  12.277  0.00  0.00    +0.210 HD
ENDBRANCH  22  23
ENDBRANCH  16  22
ENDBRANCH  11  15
ENDBRANCH   4  10
BRANCH   1  27
ATOM     25  N   LIG    1      -22.843  81.002  14.184  0.00  0.00    -0.306 N 
ATOM     26  H   LIG    1      -22.258  81.314  13.413  0.00  0.00    +0.150 HD
ATOM     27  C   LIG    1      -24.193  81.237  14.047  0.00  0.00    +0.250 C 
ATOM     28  O   LIG    1      -25.049  80.830  14.842  0.00  0.00    -0.270 OA
BRANCH  25  30
ATOM     29  C   LIG    1      -20.744  79.982  15.004  0.00  0.00    +0.031 C 
ATOM     30  C   LIG    1      -22.223  80.281  15.305  0.00  0.00    +0.026 C 
ATOM     31  C   LIG    1      -22.330  81.107  16.596  0.00  0.00    +0.031 C 
ATOM     32  C   LIG    1      -22.957  78.945  15.531  0.00  0.00    +0.031 C 
ENDBRANCH  25  30
ENDBRANCH   1  27
TORSDOF 6
ENDMDL
MODEL 7
REMARK VINA RESULT:      -5.3      2.076      2.919
REMARK  Name = pdb/CHEMBL3675955.pdb
REMARK                            x       y       z     vdW  Elec       q    Type
REMARK                         _______ _______ _______ _____ _____    ______ ____
ROOT
ATOM      1  C   LIG    1      -38.433  73.955  25.452  0.00  0.00    +0.100 A 
ATOM      2  C   LIG    1      -37.459  73.820  26.426  0.00  0.00    +0.170 A 
ATOM      3  N   LIG    1      -36.831  74.737  27.230  0.00  0.00    -0.212 NA
ATOM      4  C   LIG    1      -35.901  74.309  28.059  0.00  0.00    +0.126 A 
ATOM      5  C   LIG    1      -35.515  72.849  28.131  0.00  0.00    +0.063 A 
ATOM      6  C   LIG    1      -36.173  71.997  27.339  0.00  0.00    +0.118 A 
ATOM      7  N   LIG    1      -37.143  72.462  26.469  0.00  0.00    -0.221 N 
ATOM      8  N   LIG    1      -37.872  71.738  25.590  0.00  0.00    -0.173 NA
ATOM      9  C   LIG    1      -38.617  72.645  24.962  0.00  0.00    +0.150 A 
ENDROOT
BRANCH   4  10
ATOM     10  N   LIG    1      -35.271  75.224  28.899  0.00  0.00    -0.308 N 
ATOM     11  C   LIG    1      -34.138  76.040  28.433  0.00  0.00    +0.107 C 
ATOM     12  C   LIG    1      -33.066  75.788  29.496  0.00  0.00    +0.029 C 
ATOM     13  C   LIG    1      -33.859  75.651  30.783  0.00  0.00    +0.021 C 
ATOM     14  C   LIG    1      -35.151  74.966  30.344  0.00  0.00    +0.107 C 
BRANCH  11  15
ATOM     15  C   LIG    1      -34.510  77.504  28.248  0.00  0.00    -0.001 A 
ATOM     16  CA  LIG    1      -33.738  78.382  27.460  0.00  0.00    +0.072 A 
ATOM     17  N   LIG    1      -34.044  79.708  27.308  0.00  0.00    -0.254 NA
ATOM     18  C   LIG    1      -35.135  80.186  27.949  0.00  0.00    +0.149 A 
ATOM     19  C   LIG    1      -35.961  79.397  28.716  0.00  0.00    +0.142 A 
ATOM     20  F   LIG    1      -37.044  79.913  29.310  0.00  0.00    -0.204 F 
ATOM     21  C   LIG    1      -35.652  78.054  28.863  0.00  0.00    +0.047 A 
BRANCH  16  22
ATOM     22  C   LIG    1      -32.494  77.949  26.708  0.00  0.00    +0.211 C 
BRANCH  22  23
ATOM     23  O   LIG    1      -32.246  78.798  25.586  0.00  0.00    -0.389 OA
ATOM     24  H   LIG    1      -32.258  79.712  25.936  0.00  0.00    +0.210 HD
ENDBRANCH  22  23
ENDBRANCH  16  22
ENDBRANCH  11  15
ENDBRANCH   4  10
BRANCH   1  27
ATOM     25  N   LIG    1      -38.778  76.304  25.687  0.00  0.00    -0.306 N 
ATOM     26  H   LIG    1      -38.148  76.188  26.477  0.00  0.00    +0.150 HD
ATOM     27  C   LIG    1      -39.094  75.155  24.997  0.00  0.00    +0.250 C 
ATOM     28  O   LIG    1      -39.924  75.107  24.080  0.00  0.00    -0.270 OA
BRANCH  25  30
ATOM     29  C   LIG    1      -39.082  78.035  23.946  0.00  0.00    +0.031 C 
ATOM     30  C   LIG    1      -39.338  77.634  25.409  0.00  0.00    +0.026 C 
ATOM     31  C   LIG    1      -40.848  77.648  25.692  0.00  0.00    +0.031 C 
ATOM     32  C   LIG    1      -38.672  78.679  26.327  0.00  0.00    +0.031 C 
ENDBRANCH  25  30
ENDBRANCH   1  27
TORSDOF 6
ENDMDL
MODEL 8
REMARK VINA RESULT:      -5.3      4.561      8.994
REMARK  Name = pdb/CHEMBL3675955.pdb
REMARK                            x       y       z     vdW  Elec       q    Type
REMARK                         _______ _______ _______ _____ _____    ______ ____
ROOT
ATOM      1  C   LIG    1      -37.845  76.174  25.790  0.00  0.00    +0.100 A 
ATOM      2  C   LIG    1      -38.331  74.968  25.313  0.00  0.00    +0.170 A 
ATOM      3  N   LIG    1      -37.874  73.681  25.435  0.00  0.00    -0.212 NA
ATOM      4  C   LIG    1      -38.542  72.720  24.831  0.00  0.00    +0.126 A 
ATOM      5  C   LIG    1      -39.779  73.009  24.012  0.00  0.00    +0.063 A 
ATOM      6  C   LIG    1      -40.190  74.279  23.941  0.00  0.00    +0.118 A 
ATOM      7  N   LIG    1      -39.475  75.279  24.576  0.00  0.00    -0.221 N 
ATOM      8  N   LIG    1      -39.741  76.605  24.577  0.00  0.00    -0.173 NA
ATOM      9  C   LIG    1      -38.742  77.135  25.278  0.00  0.00    +0.150 A 
ENDROOT
BRANCH   4  10
ATOM     10  N   LIG    1      -38.104  71.405  24.967  0.00  0.00    -0.308 N 
ATOM     11  C   LIG    1      -38.963  70.268  24.598  0.00  0.00    +0.107 C 
ATOM     12  C   LIG    1      -38.937  69.389  25.850  0.00  0.00    +0.029 C 
ATOM     13  C   LIG    1      -37.529  69.566  26.387  0.00  0.00    +0.021 C 
ATOM     14  C   LIG    1      -37.194  71.020  26.060  0.00  0.00    +0.107 C 
BRANCH  11  15
ATOM     15  C   LIG    1      -38.494  69.570  23.328  0.00  0.00    -0.001 A 
ATOM     16  CA  LIG    1      -39.317  69.444  22.192  0.00  0.00    +0.072 A 
ATOM     17  N   LIG    1      -38.920  68.793  21.055  0.00  0.00    -0.254 NA
ATOM     18  C   LIG    1      -37.681  68.251  21.032  0.00  0.00    +0.149 A 
ATOM     19  C   LIG    1      -36.799  68.350  22.084  0.00  0.00    +0.142 A 
ATOM     20  F   LIG    1      -35.574  67.817  22.005  0.00  0.00    -0.204 F 
ATOM     21  C   LIG    1      -37.203  69.013  23.233  0.00  0.00    +0.047 A 
BRANCH  16  22
ATOM     22  C   LIG    1      -40.724  70.008  22.116  0.00  0.00    +0.211 C 
BRANCH  22  23
ATOM     23  O   LIG    1      -41.181  70.076  20.764  0.00  0.00    -0.389 OA
ATOM     24  H   LIG    1      -41.650  69.233  20.600  0.00  0.00    +0.210 HD
ENDBRANCH  22  23
ENDBRANCH  16  22
ENDBRANCH  11  15
ENDBRANCH   4  10
BRANCH   1  27
ATOM     25  N   LIG    1      -36.026  75.295  27.058  0.00  0.00    -0.306 N 
ATOM     26  H   LIG    1      -36.463  74.406  26.829  0.00  0.00    +0.150 HD
ATOM     27  C   LIG    1      -36.673  76.419  26.594  0.00  0.00    +0.250 C 
ATOM     28  O   LIG    1      -36.332  77.576  26.873  0.00  0.00    -0.270 OA
BRANCH  25  30
ATOM     29  C   LIG    1      -33.728  76.184  27.278  0.00  0.00    +0.031 C 
ATOM     30  C   LIG    1      -34.824  75.304  27.904  0.00  0.00    +0.026 C 
ATOM     31  C   LIG    1      -35.163  75.823  29.309  0.00  0.00    +0.031 C 
ATOM     32  C   LIG    1      -34.279  73.869  28.045  0.00  0.00    +0.031 C 
ENDBRANCH  25  30
ENDBRANCH   1  27
TORSDOF 6
ENDMDL
MODEL 9
REMARK VINA RESULT:      -5.3     12.107     16.032
REMARK  Name = pdb/CHEMBL3675955.pdb
REMARK                            x       y       z     vdW  Elec       q    Type
REMARK                         _______ _______ _______ _____ _____    ______ ____
ROOT
ATOM      1  C   LIG    1      -19.370  79.684  36.273  0.00  0.00    +0.100 A 
ATOM      2  C   LIG    1      -19.184  78.960  35.107  0.00  0.00    +0.170 A 
ATOM      3  N   LIG    1      -20.030  78.651  34.073  0.00  0.00    -0.212 NA
ATOM      4  C   LIG    1      -19.571  77.902  33.092  0.00  0.00    +0.126 A 
ATOM      5  C   LIG    1      -18.153  77.378  33.092  0.00  0.00    +0.063 A 
ATOM      6  C   LIG    1      -17.367  77.725  34.116  0.00  0.00    +0.118 A 
ATOM      7  N   LIG    1      -17.864  78.508  35.142  0.00  0.00    -0.221 N 
ATOM      8  N   LIG    1      -17.211  78.918  36.252  0.00  0.00    -0.173 NA
ATOM      9  C   LIG    1      -18.130  79.593  36.939  0.00  0.00    +0.150 A 
ENDROOT
BRANCH   4  10
ATOM     10  N   LIG    1      -20.411  77.600  32.022  0.00  0.00    -0.308 N 
ATOM     11  C   LIG    1      -21.323  76.446  32.065  0.00  0.00    +0.107 C 
ATOM     12  C   LIG    1      -20.998  75.696  30.771  0.00  0.00    +0.029 C 
ATOM     13  C   LIG    1      -20.680  76.803  29.782  0.00  0.00    +0.021 C 
ATOM     14  C   LIG    1      -19.993  77.868  30.635  0.00  0.00    +0.107 C 
BRANCH  11  15
ATOM     15  C   LIG    1      -22.781  76.861  32.204  0.00  0.00    -0.001 A 
ATOM     16  CA  LIG    1      -23.500  76.687  33.403  0.00  0.00    +0.072 A 
ATOM     17  N   LIG    1      -24.820  77.028  33.535  0.00  0.00    -0.254 NA
ATOM     18  C   LIG    1      -25.452  77.550  32.459  0.00  0.00    +0.149 A 
ATOM     19  C   LIG    1      -24.823  77.780  31.257  0.00  0.00    +0.142 A 
ATOM     20  F   LIG    1      -25.485  78.323  30.228  0.00  0.00    -0.204 F 
ATOM     21  C   LIG    1      -23.485  77.439  31.129  0.00  0.00    +0.047 A 
BRANCH  16  22
ATOM     22  C   LIG    1      -22.889  76.104  34.664  0.00  0.00    +0.211 C 
BRANCH  22  23
ATOM     23  O   LIG    1      -22.242  77.114  35.440  0.00  0.00    -0.389 OA
ATOM     24  H   LIG    1      -22.259  76.792  36.363  0.00  0.00    +0.210 HD
ENDBRANCH  22  23
ENDBRANCH  16  22
ENDBRANCH  11  15
ENDBRANCH   4  10
BRANCH   1  27
ATOM     25  N   LIG    1      -21.702  80.112  36.006  0.00  0.00    -0.306 N 
ATOM     26  H   LIG    1      -21.585  79.527  35.182  0.00  0.00    +0.150 HD
ATOM     27  C   LIG    1      -20.562  80.352  36.739  0.00  0.00    +0.250 C 
ATOM     28  O   LIG    1      -20.512  81.124  37.705  0.00  0.00    -0.270 OA
BRANCH  25  30
ATOM     29  C   LIG    1      -23.480  80.336  37.710  0.00  0.00    +0.031 C 
ATOM     30  C   LIG    1      -23.022  80.694  36.286  0.00  0.00    +0.026 C 
ATOM     31  C   LIG    1      -22.977  82.222  36.127  0.00  0.00    +0.031 C 
ATOM     32  C   LIG    1      -24.056  80.142  35.284  0.00  0.00    +0.031 C 
ENDBRANCH  25  30
ENDBRANCH   1  27
TORSDOF 6
ENDMDL
