MODEL 1
REMARK VINA RESULT:      -6.3      0.000      0.000
REMARK  Name = pdb/CHEMBL3902802.pdb
REMARK                            x       y       z     vdW  Elec       q    Type
REMARK                         _______ _______ _______ _____ _____    ______ ____
ROOT
ATOM      1  C   LIG    1      -37.459  76.316  25.983  0.00  0.00    +0.100 A 
ATOM      2  C   LIG    1      -38.134  75.296  25.332  0.00  0.00    +0.170 A 
ATOM      3  N   LIG    1      -37.891  73.944  25.255  0.00  0.00    -0.212 NA
ATOM      4  C   LIG    1      -38.779  73.194  24.631  0.00  0.00    +0.126 A 
ATOM      5  C   LIG    1      -40.015  73.790  23.992  0.00  0.00    +0.063 A 
ATOM      6  C   LIG    1      -40.173  75.117  24.062  0.00  0.00    +0.118 A 
ATOM      7  N   LIG    1      -39.242  75.890  24.725  0.00  0.00    -0.221 N 
ATOM      8  N   LIG    1      -39.261  77.230  24.901  0.00  0.00    -0.173 NA
ATOM      9  C   LIG    1      -38.195  77.476  25.670  0.00  0.00    +0.150 A 
ENDROOT
BRANCH   4  10
ATOM     10  N   LIG    1      -38.580  71.822  24.555  0.00  0.00    -0.308 N 
ATOM     11  C   LIG    1      -37.258  71.206  24.379  0.00  0.00    +0.107 C 
ATOM     12  C   LIG    1      -37.538  69.980  23.506  0.00  0.00    +0.029 C 
ATOM     13  C   LIG    1      -38.929  69.553  23.940  0.00  0.00    +0.021 C 
ATOM     14  C   LIG    1      -39.641  70.888  24.154  0.00  0.00    +0.107 C 
BRANCH  11  15
ATOM     15  C   LIG    1      -36.609  70.848  25.698  0.00  0.00    -0.006 A 
ATOM     16  C   LIG    1      -35.285  70.402  25.817  0.00  0.00    +0.046 A 
ATOM     17  C   LIG    1      -34.760  70.133  27.072  0.00  0.00    +0.142 A 
ATOM     18  F   LIG    1      -33.493  69.722  27.200  0.00  0.00    -0.204 F 
ATOM     19  C   LIG    1      -35.564  70.301  28.185  0.00  0.00    +0.149 A 
ATOM     20  N   LIG    1      -36.849  70.719  28.118  0.00  0.00    -0.260 NA
ATOM     21  C   LIG    1      -37.336  70.984  26.883  0.00  0.00    +0.116 A 
ENDBRANCH  11  15
ENDBRANCH   4  10
BRANCH   1  23
ATOM     22  N   LIG    1      -35.573  77.225  27.105  0.00  0.00    -0.247 NA
ATOM     23  C   LIG    1      -36.273  76.195  26.805  0.00  0.00    +0.221 C 
BRANCH  22  27
ATOM     24  C   LIG    1      -32.671  79.214  26.904  0.00  0.00    +0.115 C 
ATOM     25  C   LIG    1      -33.740  79.491  27.960  0.00  0.00    +0.033 C 
ATOM     26  C   LIG    1      -34.139  78.282  28.805  0.00  0.00    +0.029 C 
ATOM     27  C   LIG    1      -34.402  77.019  27.980  0.00  0.00    +0.109 C 
ATOM     28  C   LIG    1      -33.155  76.690  27.161  0.00  0.00    +0.029 C 
ATOM     29  C   LIG    1      -32.702  77.831  26.252  0.00  0.00    +0.033 C 
BRANCH  24  30
ATOM     30  O   LIG    1      -31.383  79.417  27.491  0.00  0.00    -0.392 OA
ATOM     31  H   LIG    1      -30.731  79.289  26.779  0.00  0.00    +0.210 HD
ENDBRANCH  24  30
ENDBRANCH  22  27
BRANCH  23  32
ATOM     32  O   LIG    1      -35.977  74.939  27.227  0.00  0.00    -0.492 OA
ATOM     33  H   LIG    1      -36.176  74.838  28.178  0.00  0.00    +0.294 HD
ENDBRANCH  23  32
ENDBRANCH   1  23
TORSDOF 6
ENDMDL
MODEL 2
REMARK VINA RESULT:      -6.3      2.093      3.257
REMARK  Name = pdb/CHEMBL3902802.pdb
REMARK                            x       y       z     vdW  Elec       q    Type
REMARK                         _______ _______ _______ _____ _____    ______ ____
ROOT
ATOM      1  C   LIG    1      -37.393  76.074  25.987  0.00  0.00    +0.100 A 
ATOM      2  C   LIG    1      -38.023  74.941  25.498  0.00  0.00    +0.170 A 
ATOM      3  N   LIG    1      -37.818  73.604  25.745  0.00  0.00    -0.212 NA
ATOM      4  C   LIG    1      -38.654  72.741  25.198  0.00  0.00    +0.126 A 
ATOM      5  C   LIG    1      -39.789  73.192  24.304  0.00  0.00    +0.063 A 
ATOM      6  C   LIG    1      -39.910  74.503  24.066  0.00  0.00    +0.118 A 
ATOM      7  N   LIG    1      -39.035  75.396  24.650  0.00  0.00    -0.221 N 
ATOM      8  N   LIG    1      -39.030  76.742  24.528  0.00  0.00    -0.173 NA
ATOM      9  C   LIG    1      -38.051  77.143  25.346  0.00  0.00    +0.150 A 
ENDROOT
BRANCH   4  10
ATOM     10  N   LIG    1      -38.493  71.384  25.446  0.00  0.00    -0.308 N 
ATOM     11  C   LIG    1      -39.379  70.352  24.891  0.00  0.00    +0.107 C 
ATOM     12  C   LIG    1      -39.453  69.298  25.999  0.00  0.00    +0.029 C 
ATOM     13  C   LIG    1      -38.081  69.375  26.645  0.00  0.00    +0.021 C 
ATOM     14  C   LIG    1      -37.781  70.873  26.624  0.00  0.00    +0.107 C 
BRANCH  11  15
ATOM     15  C   LIG    1      -38.862  69.791  23.584  0.00  0.00    -0.006 A 
ATOM     16  C   LIG    1      -39.690  69.269  22.581  0.00  0.00    +0.046 A 
ATOM     17  C   LIG    1      -39.130  68.810  21.397  0.00  0.00    +0.142 A 
ATOM     18  F   LIG    1      -39.911  68.324  20.426  0.00  0.00    -0.204 F 
ATOM     19  C   LIG    1      -37.759  68.869  21.237  0.00  0.00    +0.149 A 
ATOM     20  N   LIG    1      -36.919  69.355  22.181  0.00  0.00    -0.260 NA
ATOM     21  C   LIG    1      -37.489  69.806  23.324  0.00  0.00    +0.116 A 
ENDBRANCH  11  15
ENDBRANCH   4  10
BRANCH   1  23
ATOM     22  N   LIG    1      -35.486  77.105  26.955  0.00  0.00    -0.247 NA
ATOM     23  C   LIG    1      -36.313  76.128  26.950  0.00  0.00    +0.221 C 
BRANCH  22  27
ATOM     24  C   LIG    1      -32.592  79.108  26.752  0.00  0.00    +0.115 C 
ATOM     25  C   LIG    1      -33.792  79.545  27.592  0.00  0.00    +0.033 C 
ATOM     26  C   LIG    1      -34.291  78.504  28.593  0.00  0.00    +0.029 C 
ATOM     27  C   LIG    1      -34.438  77.101  27.995  0.00  0.00    +0.109 C 
ATOM     28  C   LIG    1      -33.093  76.663  27.419  0.00  0.00    +0.029 C 
ATOM     29  C   LIG    1      -32.531  77.627  26.375  0.00  0.00    +0.033 C 
BRANCH  24  30
ATOM     30  O   LIG    1      -31.394  79.456  27.449  0.00  0.00    -0.392 OA
ATOM     31  H   LIG    1      -31.668  79.788  28.323  0.00  0.00    +0.210 HD
ENDBRANCH  24  30
ENDBRANCH  22  27
BRANCH  23  32
ATOM     32  O   LIG    1      -36.256  75.092  27.826  0.00  0.00    -0.492 OA
ATOM     33  H   LIG    1      -35.797  75.359  28.646  0.00  0.00    +0.294 HD
ENDBRANCH  23  32
ENDBRANCH   1  23
TORSDOF 6
ENDMDL
MODEL 3
REMARK VINA RESULT:      -6.3     19.420     22.846
REMARK  Name = pdb/CHEMBL3902802.pdb
REMARK                            x       y       z     vdW  Elec       q    Type
REMARK                         _______ _______ _______ _____ _____    ______ ____
ROOT
ATOM      1  C   LIG    1      -18.737  85.851  13.268  0.00  0.00    +0.100 A 
ATOM      2  C   LIG    1      -18.892  84.511  13.587  0.00  0.00    +0.170 A 
ATOM      3  N   LIG    1      -19.910  83.834  14.217  0.00  0.00    -0.212 NA
ATOM      4  C   LIG    1      -19.819  82.520  14.295  0.00  0.00    +0.126 A 
ATOM      5  C   LIG    1      -18.628  81.771  13.738  0.00  0.00    +0.063 A 
ATOM      6  C   LIG    1      -17.649  82.489  13.177  0.00  0.00    +0.118 A 
ATOM      7  N   LIG    1      -17.759  83.862  13.093  0.00  0.00    -0.221 N 
ATOM      8  N   LIG    1      -16.875  84.726  12.546  0.00  0.00    -0.173 NA
ATOM      9  C   LIG    1      -17.477  85.916  12.641  0.00  0.00    +0.150 A 
ENDROOT
BRANCH   4  10
ATOM     10  N   LIG    1      -20.841  81.800  14.901  0.00  0.00    -0.308 N 
ATOM     11  C   LIG    1      -22.078  82.418  15.398  0.00  0.00    +0.107 C 
ATOM     12  C   LIG    1      -22.419  81.601  16.648  0.00  0.00    +0.029 C 
ATOM     13  C   LIG    1      -21.914  80.211  16.304  0.00  0.00    +0.021 C 
ATOM     14  C   LIG    1      -20.620  80.499  15.545  0.00  0.00    +0.107 C 
BRANCH  11  15
ATOM     15  C   LIG    1      -23.186  82.398  14.368  0.00  0.00    -0.006 A 
ATOM     16  C   LIG    1      -23.182  83.186  13.208  0.00  0.00    +0.046 A 
ATOM     17  C   LIG    1      -24.223  83.075  12.298  0.00  0.00    +0.142 A 
ATOM     18  F   LIG    1      -24.224  83.811  11.180  0.00  0.00    -0.204 F 
ATOM     19  C   LIG    1      -25.253  82.192  12.563  0.00  0.00    +0.149 A 
ATOM     20  N   LIG    1      -25.304  81.419  13.672  0.00  0.00    -0.260 NA
ATOM     21  C   LIG    1      -24.272  81.538  14.541  0.00  0.00    +0.116 A 
ENDBRANCH  11  15
ENDBRANCH   4  10
BRANCH   1  23
ATOM     22  N   LIG    1      -20.541  87.259  12.635  0.00  0.00    -0.247 NA
ATOM     23  C   LIG    1      -19.677  86.924  13.518  0.00  0.00    +0.221 C 
BRANCH  22  27
ATOM     24  C   LIG    1      -23.612  87.717  10.968  0.00  0.00    +0.115 C 
ATOM     25  C   LIG    1      -23.548  86.981  12.305  0.00  0.00    +0.033 C 
ATOM     26  C   LIG    1      -22.826  87.735  13.421  0.00  0.00    +0.029 C 
ATOM     27  C   LIG    1      -21.487  88.337  12.986  0.00  0.00    +0.109 C 
ATOM     28  C   LIG    1      -21.723  89.270  11.799  0.00  0.00    +0.029 C 
ATOM     29  C   LIG    1      -22.407  88.590  10.614  0.00  0.00    +0.033 C 
BRANCH  24  30
ATOM     30  O   LIG    1      -24.790  88.527  10.947  0.00  0.00    -0.392 OA
ATOM     31  H   LIG    1      -25.298  88.256  10.160  0.00  0.00    +0.210 HD
ENDBRANCH  24  30
ENDBRANCH  22  27
BRANCH  23  32
ATOM     32  O   LIG    1      -19.575  87.522  14.733  0.00  0.00    -0.492 OA
ATOM     33  H   LIG    1      -20.459  87.762  15.074  0.00  0.00    +0.294 HD
ENDBRANCH  23  32
ENDBRANCH   1  23
TORSDOF 6
ENDMDL
MODEL 4
REMARK VINA RESULT:      -6.3     13.936     17.743
REMARK  Name = pdb/CHEMBL3902802.pdb
REMARK                            x       y       z     vdW  Elec       q    Type
REMARK                         _______ _______ _______ _____ _____    ______ ____
ROOT
ATOM      1  C   LIG    1      -19.883  77.058  30.906  0.00  0.00    +0.100 A 
ATOM      2  C   LIG    1      -19.736  77.796  32.070  0.00  0.00    +0.170 A 
ATOM      3  N   LIG    1      -20.658  78.424  32.875  0.00  0.00    -0.212 NA
ATOM      4  C   LIG    1      -20.224  78.978  33.991  0.00  0.00    +0.126 A 
ATOM      5  C   LIG    1      -18.759  78.953  34.374  0.00  0.00    +0.063 A 
ATOM      6  C   LIG    1      -17.905  78.366  33.528  0.00  0.00    +0.118 A 
ATOM      7  N   LIG    1      -18.372  77.783  32.368  0.00  0.00    -0.221 N 
ATOM      8  N   LIG    1      -17.651  77.140  31.423  0.00  0.00    -0.173 NA
ATOM      9  C   LIG    1      -18.568  76.693  30.557  0.00  0.00    +0.150 A 
ENDROOT
BRANCH   4  10
ATOM     10  N   LIG    1      -21.129  79.599  34.842  0.00  0.00    -0.308 N 
ATOM     11  C   LIG    1      -22.536  79.833  34.491  0.00  0.00    +0.107 C 
ATOM     12  C   LIG    1      -22.862  81.173  35.157  0.00  0.00    +0.029 C 
ATOM     13  C   LIG    1      -22.002  81.159  36.407  0.00  0.00    +0.021 C 
ATOM     14  C   LIG    1      -20.711  80.501  35.922  0.00  0.00    +0.107 C 
BRANCH  11  15
ATOM     15  C   LIG    1      -23.441  78.713  34.959  0.00  0.00    -0.006 A 
ATOM     16  C   LIG    1      -22.983  77.427  35.280  0.00  0.00    +0.046 A 
ATOM     17  C   LIG    1      -23.879  76.473  35.738  0.00  0.00    +0.142 A 
ATOM     18  F   LIG    1      -23.451  75.247  36.063  0.00  0.00    -0.204 F 
ATOM     19  C   LIG    1      -25.214  76.809  35.857  0.00  0.00    +0.149 A 
ATOM     20  N   LIG    1      -25.703  78.033  35.550  0.00  0.00    -0.260 NA
ATOM     21  C   LIG    1      -24.808  78.951  35.114  0.00  0.00    +0.116 A 
ENDBRANCH  11  15
ENDBRANCH   4  10
BRANCH   1  23
ATOM     22  N   LIG    1      -22.166  76.406  30.887  0.00  0.00    -0.247 NA
ATOM     23  C   LIG    1      -21.120  76.733  30.226  0.00  0.00    +0.221 C 
BRANCH  22  27
ATOM     24  C   LIG    1      -25.362  77.422  31.970  0.00  0.00    +0.115 C 
ATOM     25  C   LIG    1      -24.587  78.239  30.938  0.00  0.00    +0.033 C 
ATOM     26  C   LIG    1      -24.080  77.444  29.736  0.00  0.00    +0.029 C 
ATOM     27  C   LIG    1      -23.395  76.128  30.118  0.00  0.00    +0.109 C 
ATOM     28  C   LIG    1      -24.371  75.277  30.929  0.00  0.00    +0.029 C 
ATOM     29  C   LIG    1      -24.903  75.978  32.178  0.00  0.00    +0.033 C 
BRANCH  24  30
ATOM     30  O   LIG    1      -26.745  77.419  31.608  0.00  0.00    -0.392 OA
ATOM     31  H   LIG    1      -27.235  77.755  32.380  0.00  0.00    +0.210 HD
ENDBRANCH  24  30
ENDBRANCH  22  27
BRANCH  23  32
ATOM     32  O   LIG    1      -21.082  76.809  28.871  0.00  0.00    -0.492 OA
ATOM     33  H   LIG    1      -20.623  76.034  28.494  0.00  0.00    +0.294 HD
ENDBRANCH  23  32
ENDBRANCH   1  23
TORSDOF 6
ENDMDL
MODEL 5
REMARK VINA RESULT:      -6.2     19.273     23.047
REMARK  Name = pdb/CHEMBL3902802.pdb
REMARK                            x       y       z     vdW  Elec       q    Type
REMARK                         _______ _______ _______ _____ _____    ______ ____
ROOT
ATOM      1  C   LIG    1      -18.795  82.494  14.090  0.00  0.00    +0.100 A 
ATOM      2  C   LIG    1      -19.069  83.801  13.720  0.00  0.00    +0.170 A 
ATOM      3  N   LIG    1      -20.160  84.606  13.950  0.00  0.00    -0.212 NA
ATOM      4  C   LIG    1      -20.094  85.861  13.551  0.00  0.00    +0.126 A 
ATOM      5  C   LIG    1      -18.875  86.406  12.837  0.00  0.00    +0.063 A 
ATOM      6  C   LIG    1      -17.863  85.562  12.603  0.00  0.00    +0.118 A 
ATOM      7  N   LIG    1      -17.941  84.254  13.033  0.00  0.00    -0.221 N 
ATOM      8  N   LIG    1      -17.008  83.285  12.894  0.00  0.00    -0.173 NA
ATOM      9  C   LIG    1      -17.522  82.237  13.545  0.00  0.00    +0.150 A 
ENDROOT
BRANCH   4  10
ATOM     10  N   LIG    1      -21.167  86.711  13.789  0.00  0.00    -0.308 N 
ATOM     11  C   LIG    1      -21.848  87.468  12.729  0.00  0.00    +0.107 C 
ATOM     12  C   LIG    1      -22.233  88.784  13.409  0.00  0.00    +0.029 C 
ATOM     13  C   LIG    1      -22.500  88.370  14.845  0.00  0.00    +0.021 C 
ATOM     14  C   LIG    1      -21.420  87.320  15.101  0.00  0.00    +0.107 C 
BRANCH  11  15
ATOM     15  C   LIG    1      -23.043  86.727  12.169  0.00  0.00    -0.006 A 
ATOM     16  C   LIG    1      -23.269  85.358  12.363  0.00  0.00    +0.046 A 
ATOM     17  C   LIG    1      -24.413  84.769  11.845  0.00  0.00    +0.142 A 
ATOM     18  F   LIG    1      -24.648  83.466  12.036  0.00  0.00    -0.204 F 
ATOM     19  C   LIG    1      -25.305  85.550  11.135  0.00  0.00    +0.149 A 
ATOM     20  N   LIG    1      -25.125  86.873  10.914  0.00  0.00    -0.260 NA
ATOM     21  C   LIG    1      -24.005  87.427  11.438  0.00  0.00    +0.116 A 
ENDBRANCH  11  15
ENDBRANCH   4  10
BRANCH   1  23
ATOM     22  N   LIG    1      -20.778  81.234  14.437  0.00  0.00    -0.247 NA
ATOM     23  C   LIG    1      -19.636  81.612  14.874  0.00  0.00    +0.221 C 
BRANCH  22  27
ATOM     24  C   LIG    1      -24.291  80.994  14.277  0.00  0.00    +0.115 C 
ATOM     25  C   LIG    1      -23.402  79.995  13.538  0.00  0.00    +0.033 C 
ATOM     26  C   LIG    1      -22.333  79.324  14.400  0.00  0.00    +0.029 C 
ATOM     27  C   LIG    1      -21.554  80.305  15.282  0.00  0.00    +0.109 C 
ATOM     28  C   LIG    1      -22.537  81.062  16.173  0.00  0.00    +0.029 C 
ATOM     29  C   LIG    1      -23.625  81.800  15.393  0.00  0.00    +0.033 C 
BRANCH  24  30
ATOM     30  O   LIG    1      -25.413  80.295  14.820  0.00  0.00    -0.392 OA
ATOM     31  H   LIG    1      -25.277  80.259  15.784  0.00  0.00    +0.210 HD
ENDBRANCH  24  30
ENDBRANCH  22  27
BRANCH  23  32
ATOM     32  O   LIG    1      -19.125  81.225  16.071  0.00  0.00    -0.492 OA
ATOM     33  H   LIG    1      -19.841  80.973  16.687  0.00  0.00    +0.294 HD
ENDBRANCH  23  32
ENDBRANCH   1  23
TORSDOF 6
ENDMDL
MODEL 6
REMARK VINA RESULT:      -5.9      8.732     11.051
REMARK  Name = pdb/CHEMBL3902802.pdb
REMARK                            x       y       z     vdW  Elec       q    Type
REMARK                         _______ _______ _______ _____ _____    ______ ____
ROOT
ATOM      1  C   LIG    1      -31.896  68.264  17.084  0.00  0.00    +0.100 A 
ATOM      2  C   LIG    1      -33.018  67.476  17.287  0.00  0.00    +0.170 A 
ATOM      3  N   LIG    1      -33.534  66.897  18.423  0.00  0.00    -0.212 NA
ATOM      4  C   LIG    1      -34.692  66.273  18.324  0.00  0.00    +0.126 A 
ATOM      5  C   LIG    1      -35.427  66.166  17.005  0.00  0.00    +0.063 A 
ATOM      6  C   LIG    1      -34.853  66.712  15.927  0.00  0.00    +0.118 A 
ATOM      7  N   LIG    1      -33.646  67.369  16.045  0.00  0.00    -0.221 N 
ATOM      8  N   LIG    1      -32.946  67.985  15.066  0.00  0.00    -0.173 NA
ATOM      9  C   LIG    1      -31.904  68.533  15.702  0.00  0.00    +0.150 A 
ENDROOT
BRANCH   4  10
ATOM     10  N   LIG    1      -35.256  65.698  19.455  0.00  0.00    -0.308 N 
ATOM     11  C   LIG    1      -34.853  66.047  20.824  0.00  0.00    +0.107 C 
ATOM     12  C   LIG    1      -34.974  64.726  21.590  0.00  0.00    +0.029 C 
ATOM     13  C   LIG    1      -36.133  64.028  20.901  0.00  0.00    +0.021 C 
ATOM     14  C   LIG    1      -35.919  64.388  19.431  0.00  0.00    +0.107 C 
BRANCH  11  15
ATOM     15  C   LIG    1      -35.712  67.145  21.415  0.00  0.00    -0.006 A 
ATOM     16  C   LIG    1      -36.815  67.706  20.758  0.00  0.00    +0.046 A 
ATOM     17  C   LIG    1      -37.569  68.683  21.392  0.00  0.00    +0.142 A 
ATOM     18  F   LIG    1      -38.634  69.216  20.781  0.00  0.00    -0.204 F 
ATOM     19  C   LIG    1      -37.205  69.091  22.661  0.00  0.00    +0.149 A 
ATOM     20  N   LIG    1      -36.144  68.585  23.331  0.00  0.00    -0.260 NA
ATOM     21  C   LIG    1      -35.429  67.626  22.695  0.00  0.00    +0.116 A 
ENDBRANCH  11  15
ENDBRANCH   4  10
BRANCH   1  23
ATOM     22  N   LIG    1      -30.006  69.523  17.780  0.00  0.00    -0.247 NA
ATOM     23  C   LIG    1      -30.948  68.710  18.084  0.00  0.00    +0.221 C 
BRANCH  22  27
ATOM     24  C   LIG    1      -26.636  70.395  17.232  0.00  0.00    +0.115 C 
ATOM     25  C   LIG    1      -27.716  71.469  17.342  0.00  0.00    +0.033 C 
ATOM     26  C   LIG    1      -28.596  71.374  18.587  0.00  0.00    +0.029 C 
ATOM     27  C   LIG    1      -29.107  69.958  18.868  0.00  0.00    +0.109 C 
ATOM     28  C   LIG    1      -27.913  69.015  19.004  0.00  0.00    +0.029 C 
ATOM     29  C   LIG    1      -26.993  69.013  17.783  0.00  0.00    +0.033 C 
BRANCH  24  30
ATOM     30  O   LIG    1      -25.456  70.862  17.891  0.00  0.00    -0.392 OA
ATOM     31  H   LIG    1      -25.466  70.475  18.785  0.00  0.00    +0.210 HD
ENDBRANCH  24  30
ENDBRANCH  22  27
BRANCH  23  32
ATOM     32  O   LIG    1      -31.138  68.217  19.335  0.00  0.00    -0.492 OA
ATOM     33  H   LIG    1      -31.212  68.943  19.985  0.00  0.00    +0.294 HD
ENDBRANCH  23  32
ENDBRANCH   1  23
TORSDOF 6
ENDMDL
MODEL 7
REMARK VINA RESULT:      -5.8     12.605     15.100
REMARK  Name = pdb/CHEMBL3902802.pdb
REMARK                            x       y       z     vdW  Elec       q    Type
REMARK                         _______ _______ _______ _____ _____    ______ ____
ROOT
ATOM      1  C   LIG    1      -23.831  76.648  30.618  0.00  0.00    +0.100 A 
ATOM      2  C   LIG    1      -24.192  75.381  31.048  0.00  0.00    +0.170 A 
ATOM      3  N   LIG    1      -23.450  74.242  31.259  0.00  0.00    -0.212 NA
ATOM      4  C   LIG    1      -24.063  73.194  31.774  0.00  0.00    +0.126 A 
ATOM      5  C   LIG    1      -25.541  73.221  32.103  0.00  0.00    +0.063 A 
ATOM      6  C   LIG    1      -26.218  74.343  31.834  0.00  0.00    +0.118 A 
ATOM      7  N   LIG    1      -25.563  75.435  31.303  0.00  0.00    -0.221 N 
ATOM      8  N   LIG    1      -26.092  76.639  30.992  0.00  0.00    -0.173 NA
ATOM      9  C   LIG    1      -25.042  77.367  30.597  0.00  0.00    +0.150 A 
ENDROOT
BRANCH   4  10
ATOM     10  N   LIG    1      -23.341  72.035  32.024  0.00  0.00    -0.308 N 
ATOM     11  C   LIG    1      -23.847  70.688  31.724  0.00  0.00    +0.107 C 
ATOM     12  C   LIG    1      -23.280  69.824  32.855  0.00  0.00    +0.029 C 
ATOM     13  C   LIG    1      -21.948  70.483  33.163  0.00  0.00    +0.021 C 
ATOM     14  C   LIG    1      -22.265  71.971  33.022  0.00  0.00    +0.107 C 
BRANCH  11  15
ATOM     15  C   LIG    1      -23.424  70.207  30.353  0.00  0.00    -0.006 A 
ATOM     16  C   LIG    1      -24.036  70.621  29.162  0.00  0.00    +0.046 A 
ATOM     17  C   LIG    1      -23.558  70.156  27.945  0.00  0.00    +0.142 A 
ATOM     18  F   LIG    1      -24.123  70.556  26.801  0.00  0.00    -0.204 F 
ATOM     19  C   LIG    1      -22.488  69.281  27.936  0.00  0.00    +0.149 A 
ATOM     20  N   LIG    1      -21.872  68.846  29.060  0.00  0.00    -0.260 NA
ATOM     21  C   LIG    1      -22.351  69.320  30.235  0.00  0.00    +0.116 A 
ENDBRANCH  11  15
ENDBRANCH   4  10
BRANCH   1  23
ATOM     22  N   LIG    1      -21.624  77.306  31.198  0.00  0.00    -0.247 NA
ATOM     23  C   LIG    1      -22.500  77.113  30.284  0.00  0.00    +0.221 C 
BRANCH  22  27
ATOM     24  C   LIG    1      -18.665  76.153  32.727  0.00  0.00    +0.115 C 
ATOM     25  C   LIG    1      -19.168  75.534  31.424  0.00  0.00    +0.033 C 
ATOM     26  C   LIG    1      -19.462  76.533  30.307  0.00  0.00    +0.029 C 
ATOM     27  C   LIG    1      -20.280  77.743  30.768  0.00  0.00    +0.109 C 
ATOM     28  C   LIG    1      -19.539  78.442  31.906  0.00  0.00    +0.029 C 
ATOM     29  C   LIG    1      -19.235  77.526  33.091  0.00  0.00    +0.033 C 
BRANCH  24  30
ATOM     30  O   LIG    1      -17.240  76.247  32.671  0.00  0.00    -0.392 OA
ATOM     31  H   LIG    1      -17.010  76.411  31.738  0.00  0.00    +0.210 HD
ENDBRANCH  24  30
ENDBRANCH  22  27
BRANCH  23  32
ATOM     32  O   LIG    1      -22.262  77.312  28.962  0.00  0.00    -0.492 OA
ATOM     33  H   LIG    1      -22.812  78.043  28.619  0.00  0.00    +0.294 HD
ENDBRANCH  23  32
ENDBRANCH   1  23
TORSDOF 6
ENDMDL
MODEL 8
REMARK VINA RESULT:      -5.8      2.699      5.202
REMARK  Name = pdb/CHEMBL3902802.pdb
REMARK                            x       y       z     vdW  Elec       q    Type
REMARK                         _______ _______ _______ _____ _____    ______ ____
ROOT
ATOM      1  C   LIG    1      -35.131  72.274  27.820  0.00  0.00    +0.100 A 
ATOM      2  C   LIG    1      -36.022  71.833  26.854  0.00  0.00    +0.170 A 
ATOM      3  N   LIG    1      -37.167  72.398  26.342  0.00  0.00    -0.212 NA
ATOM      4  C   LIG    1      -37.764  71.778  25.341  0.00  0.00    +0.126 A 
ATOM      5  C   LIG    1      -37.233  70.475  24.783  0.00  0.00    +0.063 A 
ATOM      6  C   LIG    1      -36.141  69.953  25.353  0.00  0.00    +0.118 A 
ATOM      7  N   LIG    1      -35.520  70.614  26.393  0.00  0.00    -0.221 N 
ATOM      8  N   LIG    1      -34.409  70.236  27.062  0.00  0.00    -0.173 NA
ATOM      9  C   LIG    1      -34.173  71.246  27.906  0.00  0.00    +0.150 A 
ENDROOT
BRANCH   4  10
ATOM     10  N   LIG    1      -38.908  72.331  24.781  0.00  0.00    -0.308 N 
ATOM     11  C   LIG    1      -39.644  73.448  25.389  0.00  0.00    +0.107 C 
ATOM     12  C   LIG    1      -41.108  73.145  25.056  0.00  0.00    +0.029 C 
ATOM     13  C   LIG    1      -41.023  72.454  23.707  0.00  0.00    +0.021 C 
ATOM     14  C   LIG    1      -39.767  71.596  23.845  0.00  0.00    +0.107 C 
BRANCH  11  15
ATOM     15  C   LIG    1      -39.191  74.792  24.861  0.00  0.00    -0.006 A 
ATOM     16  C   LIG    1      -40.036  75.690  24.194  0.00  0.00    +0.046 A 
ATOM     17  C   LIG    1      -39.544  76.918  23.777  0.00  0.00    +0.142 A 
ATOM     18  F   LIG    1      -40.345  77.790  23.154  0.00  0.00    -0.204 F 
ATOM     19  C   LIG    1      -38.218  77.226  24.021  0.00  0.00    +0.149 A 
ATOM     20  N   LIG    1      -37.363  76.388  24.651  0.00  0.00    -0.260 NA
ATOM     21  C   LIG    1      -37.869  75.199  25.057  0.00  0.00    +0.116 A 
ENDBRANCH  11  15
ENDBRANCH   4  10
BRANCH   1  23
ATOM     22  N   LIG    1      -34.191  74.329  28.549  0.00  0.00    -0.247 NA
ATOM     23  C   LIG    1      -35.184  73.522  28.555  0.00  0.00    +0.221 C 
BRANCH  22  27
ATOM     24  C   LIG    1      -32.263  77.194  27.844  0.00  0.00    +0.115 C 
ATOM     25  C   LIG    1      -33.679  77.046  27.289  0.00  0.00    +0.033 C 
ATOM     26  C   LIG    1      -34.747  76.719  28.331  0.00  0.00    +0.029 C 
ATOM     27  C   LIG    1      -34.343  75.596  29.292  0.00  0.00    +0.109 C 
ATOM     28  C   LIG    1      -33.040  75.984  29.989  0.00  0.00    +0.029 C 
ATOM     29  C   LIG    1      -31.897  76.292  29.023  0.00  0.00    +0.033 C 
BRANCH  24  30
ATOM     30  O   LIG    1      -32.061  78.557  28.226  0.00  0.00    -0.392 OA
ATOM     31  H   LIG    1      -32.633  79.094  27.648  0.00  0.00    +0.210 HD
ENDBRANCH  24  30
ENDBRANCH  22  27
BRANCH  23  32
ATOM     32  O   LIG    1      -36.342  73.761  29.223  0.00  0.00    -0.492 OA
ATOM     33  H   LIG    1      -36.450  74.717  29.394  0.00  0.00    +0.294 HD
ENDBRANCH  23  32
ENDBRANCH   1  23
TORSDOF 6
ENDMDL
MODEL 9
REMARK VINA RESULT:      -5.8     11.875     15.038
REMARK  Name = pdb/CHEMBL3902802.pdb
REMARK                            x       y       z     vdW  Elec       q    Type
REMARK                         _______ _______ _______ _____ _____    ______ ____
ROOT
ATOM      1  C   LIG    1      -27.608  65.903  19.037  0.00  0.00    +0.100 A 
ATOM      2  C   LIG    1      -26.886  66.794  18.258  0.00  0.00    +0.170 A 
ATOM      3  N   LIG    1      -27.184  68.055  17.798  0.00  0.00    -0.212 NA
ATOM      4  C   LIG    1      -26.244  68.712  17.147  0.00  0.00    +0.126 A 
ATOM      5  C   LIG    1      -24.884  68.100  16.883  0.00  0.00    +0.063 A 
ATOM      6  C   LIG    1      -24.669  66.852  17.317  0.00  0.00    +0.118 A 
ATOM      7  N   LIG    1      -25.658  66.179  18.004  0.00  0.00    -0.221 N 
ATOM      8  N   LIG    1      -25.597  64.932  18.520  0.00  0.00    -0.173 NA
ATOM      9  C   LIG    1      -26.766  64.780  19.152  0.00  0.00    +0.150 A 
ENDROOT
BRANCH   4  10
ATOM     10  N   LIG    1      -26.500  69.998  16.690  0.00  0.00    -0.308 N 
ATOM     11  C   LIG    1      -27.276  70.283  15.475  0.00  0.00    +0.107 C 
ATOM     12  C   LIG    1      -26.600  71.528  14.893  0.00  0.00    +0.029 C 
ATOM     13  C   LIG    1      -26.125  72.275  16.126  0.00  0.00    +0.021 C 
ATOM     14  C   LIG    1      -25.660  71.148  17.047  0.00  0.00    +0.107 C 
BRANCH  11  15
ATOM     15  C   LIG    1      -28.745  70.498  15.767  0.00  0.00    -0.006 A 
ATOM     16  C   LIG    1      -29.270  70.621  17.061  0.00  0.00    +0.046 A 
ATOM     17  C   LIG    1      -30.627  70.855  17.234  0.00  0.00    +0.142 A 
ATOM     18  F   LIG    1      -31.137  70.989  18.463  0.00  0.00    -0.204 F 
ATOM     19  C   LIG    1      -31.437  70.952  16.118  0.00  0.00    +0.149 A 
ATOM     20  N   LIG    1      -30.977  70.831  14.851  0.00  0.00    -0.260 NA
ATOM     21  C   LIG    1      -29.648  70.612  14.708  0.00  0.00    +0.116 A 
ENDBRANCH  11  15
ENDBRANCH   4  10
BRANCH   1  23
ATOM     22  N   LIG    1      -29.974  66.026  18.879  0.00  0.00    -0.247 NA
ATOM     23  C   LIG    1      -28.924  66.107  19.607  0.00  0.00    +0.221 C 
BRANCH  22  27
ATOM     24  C   LIG    1      -32.996  66.366  17.098  0.00  0.00    +0.115 C 
ATOM     25  C   LIG    1      -32.584  65.021  17.694  0.00  0.00    +0.033 C 
ATOM     26  C   LIG    1      -32.219  65.059  19.177  0.00  0.00    +0.029 C 
ATOM     27  C   LIG    1      -31.278  66.209  19.547  0.00  0.00    +0.109 C 
ATOM     28  C   LIG    1      -31.924  67.532  19.139  0.00  0.00    +0.029 C 
ATOM     29  C   LIG    1      -32.289  67.602  17.656  0.00  0.00    +0.033 C 
BRANCH  24  30
ATOM     30  O   LIG    1      -34.406  66.528  17.263  0.00  0.00    -0.392 OA
ATOM     31  H   LIG    1      -34.550  66.768  18.197  0.00  0.00    +0.210 HD
ENDBRANCH  24  30
ENDBRANCH  22  27
BRANCH  23  32
ATOM     32  O   LIG    1      -28.952  66.375  20.938  0.00  0.00    -0.492 OA
ATOM     33  H   LIG    1      -29.867  66.545  21.236  0.00  0.00    +0.294 HD
ENDBRANCH  23  32
ENDBRANCH   1  23
TORSDOF 6
ENDMDL
