MODEL 1
REMARK VINA RESULT:      -6.7      0.000      0.000
REMARK  Name = pdb/CHEMBL3962599.pdb
REMARK                            x       y       z     vdW  Elec       q    Type
REMARK                         _______ _______ _______ _____ _____    ______ ____
ROOT
ATOM      1  C   LIG    1      -28.998  77.719  11.610  0.00  0.00    +0.149 A 
ATOM      2  N   LIG    1      -28.531  76.475  11.811  0.00  0.00    -0.160 NA
ATOM      3  N   LIG    1      -27.376  76.649  12.524  0.00  0.00    -0.218 N 
ATOM      4  C   LIG    1      -27.028  78.007  12.605  0.00  0.00    +0.129 A 
ATOM      5  C   LIG    1      -28.082  78.692  12.044  0.00  0.00    +0.078 A 
ENDROOT
BRANCH   3   6
ATOM      6  C   LIG    1      -26.666  75.509  13.015  0.00  0.00    +0.067 A 
ATOM      7  C   LIG    1      -27.201  74.738  14.061  0.00  0.00    +0.028 A 
ATOM      8  C   LIG    1      -26.521  73.602  14.517  0.00  0.00    +0.002 A 
ATOM      9  C   LIG    1      -25.300  73.239  13.952  0.00  0.00    +0.000 A 
ATOM     10  C   LIG    1      -24.748  74.018  12.941  0.00  0.00    +0.002 A 
ATOM     11  C   LIG    1      -25.419  75.155  12.490  0.00  0.00    +0.028 A 
ENDBRANCH   3   6
BRANCH   4  12
ATOM     12  N   LIG    1      -25.845  78.610  13.112  0.00  0.00    -0.266 N 
ATOM     13  H   LIG    1      -25.244  79.071  12.458  0.00  0.00    +0.157 HD
ATOM     14  C   LIG    1      -25.533  78.708  14.507  0.00  0.00    +0.251 C 
ATOM     15  O   LIG    1      -26.315  78.340  15.377  0.00  0.00    -0.270 OA
BRANCH  14  16
ATOM     16  C   LIG    1      -24.220  79.269  14.869  0.00  0.00    +0.056 A 
ATOM     17  C   LIG    1      -23.118  78.482  15.205  0.00  0.00    +0.054 A 
ATOM     18 CL   LIG    1      -23.124  76.757  15.143  0.00  0.00    -0.083 Cl
ATOM     19  C   LIG    1      -21.926  79.094  15.579  0.00  0.00    +0.041 A 
ATOM     20  C   LIG    1      -21.785  80.495  15.575  0.00  0.00    +0.052 A 
ATOM     21 CL   LIG    1      -20.266  81.054  16.180  0.00  0.00    -0.083 Cl
ATOM     22  C   LIG    1      -22.841  81.334  15.166  0.00  0.00    +0.022 A 
ATOM     23  C   LIG    1      -24.062  80.674  14.847  0.00  0.00    +0.026 A 
BRANCH  22  24
ATOM     24  C   LIG    1      -22.793  82.826  15.055  0.00  0.00    +0.107 A 
ATOM     25  C   LIG    1      -22.690  83.731  16.119  0.00  0.00    +0.149 A 
ATOM     26  F   LIG    1      -22.618  83.333  17.395  0.00  0.00    -0.203 F 
ATOM     27  C   LIG    1      -22.578  85.099  15.873  0.00  0.00    +0.042 A 
ATOM     28  C   LIG    1      -22.535  85.558  14.566  0.00  0.00    +0.023 A 
ATOM     29  C   LIG    1      -22.621  84.619  13.555  0.00  0.00    +0.111 A 
ATOM     30  N   LIG    1      -22.755  83.284  13.767  0.00  0.00    -0.252 NA
ENDBRANCH  22  24
ENDBRANCH  14  16
ENDBRANCH   4  12
BRANCH   1  31
ATOM     31  C   LIG    1      -30.276  77.972  10.957  0.00  0.00    +0.236 C 
ATOM     32  N   LIG    1      -30.447  79.046  10.277  0.00  0.00    -0.243 NA
BRANCH  31  33
ATOM     33  O   LIG    1      -31.198  77.001  11.117  0.00  0.00    -0.491 OA
ATOM     34  H   LIG    1      -31.991  77.219  10.595  0.00  0.00    +0.294 HD
ENDBRANCH  31  33
BRANCH  32  35
ATOM     35  C   LIG    1      -31.780  79.254   9.696  0.00  0.00    +0.202 C 
BRANCH  35  36
ATOM     36  C   LIG    1      -32.416  80.489  10.265  0.00  0.00    +0.084 A 
ATOM     37  N   LIG    1      -31.695  81.348  11.004  0.00  0.00    -0.177 NA
ATOM     38  N   LIG    1      -32.566  82.314  11.331  0.00  0.00    -0.284 N 
ATOM     39  H   LIG    1      -32.234  83.089  11.896  0.00  0.00    +0.188 HD
ATOM     40  C   LIG    1      -33.820  82.108  10.838  0.00  0.00    +0.105 A 
ATOM     41  C   LIG    1      -33.760  80.923  10.145  0.00  0.00    +0.046 A 
ENDBRANCH  35  36
ENDBRANCH  32  35
ENDBRANCH   1  31
TORSDOF 8
ENDMDL
MODEL 2
REMARK VINA RESULT:      -6.7     18.288     21.142
REMARK  Name = pdb/CHEMBL3962599.pdb
REMARK                            x       y       z     vdW  Elec       q    Type
REMARK                         _______ _______ _______ _____ _____    ______ ____
ROOT
ATOM      1  C   LIG    1      -31.410  86.968  30.676  0.00  0.00    +0.149 A 
ATOM      2  N   LIG    1      -32.368  87.798  30.229  0.00  0.00    -0.160 NA
ATOM      3  N   LIG    1      -33.370  86.971  29.798  0.00  0.00    -0.218 N 
ATOM      4  C   LIG    1      -32.959  85.629  29.804  0.00  0.00    +0.129 A 
ATOM      5  C   LIG    1      -31.716  85.626  30.393  0.00  0.00    +0.078 A 
ENDROOT
BRANCH   3   6
ATOM      6  C   LIG    1      -34.610  87.529  29.357  0.00  0.00    +0.067 A 
ATOM      7  C   LIG    1      -35.805  87.221  30.030  0.00  0.00    +0.028 A 
ATOM      8  C   LIG    1      -37.014  87.796  29.617  0.00  0.00    +0.002 A 
ATOM      9  C   LIG    1      -37.044  88.662  28.525  0.00  0.00    +0.000 A 
ATOM     10  C   LIG    1      -35.872  88.942  27.833  0.00  0.00    +0.002 A 
ATOM     11  C   LIG    1      -34.667  88.365  28.236  0.00  0.00    +0.028 A 
ENDBRANCH   3   6
BRANCH   4  12
ATOM     12  N   LIG    1      -33.621  84.477  29.298  0.00  0.00    -0.266 N 
ATOM     13  H   LIG    1      -33.349  84.149  28.392  0.00  0.00    +0.157 HD
ATOM     14  C   LIG    1      -34.550  83.692  30.055  0.00  0.00    +0.251 C 
ATOM     15  O   LIG    1      -34.784  83.919  31.236  0.00  0.00    -0.270 OA
BRANCH  14  16
ATOM     16  C   LIG    1      -35.230  82.588  29.355  0.00  0.00    +0.056 A 
ATOM     17  C   LIG    1      -36.593  82.595  29.058  0.00  0.00    +0.054 A 
ATOM     18 CL   LIG    1      -37.632  83.935  29.381  0.00  0.00    -0.083 Cl
ATOM     19  C   LIG    1      -37.165  81.491  28.435  0.00  0.00    +0.041 A 
ATOM     20  C   LIG    1      -36.391  80.383  28.044  0.00  0.00    +0.052 A 
ATOM     21 CL   LIG    1      -37.309  79.073  27.391  0.00  0.00    -0.083 Cl
ATOM     22  C   LIG    1      -34.996  80.358  28.247  0.00  0.00    +0.022 A 
ATOM     23  C   LIG    1      -34.456  81.479  28.940  0.00  0.00    +0.026 A 
BRANCH  22  24
ATOM     24  C   LIG    1      -34.058  79.272  27.819  0.00  0.00    +0.107 A 
ATOM     25  C   LIG    1      -34.056  77.952  28.283  0.00  0.00    +0.149 A 
ATOM     26  F   LIG    1      -34.933  77.510  29.195  0.00  0.00    -0.203 F 
ATOM     27  C   LIG    1      -33.174  77.016  27.745  0.00  0.00    +0.042 A 
ATOM     28  C   LIG    1      -32.319  77.391  26.720  0.00  0.00    +0.023 A 
ATOM     29  C   LIG    1      -32.378  78.703  26.288  0.00  0.00    +0.111 A 
ATOM     30  N   LIG    1      -33.210  79.640  26.811  0.00  0.00    -0.252 NA
ENDBRANCH  22  24
ENDBRANCH  14  16
ENDBRANCH   4  12
BRANCH   1  31
ATOM     31  C   LIG    1      -30.193  87.458  31.311  0.00  0.00    +0.236 C 
ATOM     32  N   LIG    1      -30.029  87.318  32.575  0.00  0.00    -0.243 NA
BRANCH  31  33
ATOM     33  O   LIG    1      -29.301  88.021  30.471  0.00  0.00    -0.491 OA
ATOM     34  H   LIG    1      -28.550  87.415  30.343  0.00  0.00    +0.294 HD
ENDBRANCH  31  33
BRANCH  32  35
ATOM     35  C   LIG    1      -28.801  87.886  33.148  0.00  0.00    +0.202 C 
BRANCH  35  36
ATOM     36  C   LIG    1      -28.281  87.012  34.252  0.00  0.00    +0.084 A 
ATOM     37  N   LIG    1      -27.070  87.240  34.787  0.00  0.00    -0.177 NA
ATOM     38  N   LIG    1      -26.943  86.292  35.727  0.00  0.00    -0.284 N 
ATOM     39  H   LIG    1      -26.089  86.272  36.276  0.00  0.00    +0.188 HD
ATOM     40  C   LIG    1      -28.019  85.460  35.814  0.00  0.00    +0.105 A 
ATOM     41  C   LIG    1      -28.907  85.896  34.861  0.00  0.00    +0.046 A 
ENDBRANCH  35  36
ENDBRANCH  32  35
ENDBRANCH   1  31
TORSDOF 8
ENDMDL
MODEL 3
REMARK VINA RESULT:      -6.6     15.857     17.957
REMARK  Name = pdb/CHEMBL3962599.pdb
REMARK                            x       y       z     vdW  Elec       q    Type
REMARK                         _______ _______ _______ _____ _____    ______ ____
ROOT
ATOM      1  C   LIG    1      -35.996  69.085  25.201  0.00  0.00    +0.149 A 
ATOM      2  N   LIG    1      -37.098  69.844  25.326  0.00  0.00    -0.160 NA
ATOM      3  N   LIG    1      -36.636  71.056  25.764  0.00  0.00    -0.218 N 
ATOM      4  C   LIG    1      -35.271  70.993  26.089  0.00  0.00    +0.129 A 
ATOM      5  C   LIG    1      -34.857  69.740  25.701  0.00  0.00    +0.078 A 
ENDROOT
BRANCH   3   6
ATOM      6  C   LIG    1      -37.541  72.154  25.896  0.00  0.00    +0.067 A 
ATOM      7  C   LIG    1      -37.963  72.866  24.760  0.00  0.00    +0.028 A 
ATOM      8  C   LIG    1      -38.877  73.920  24.888  0.00  0.00    +0.002 A 
ATOM      9  C   LIG    1      -39.359  74.284  26.144  0.00  0.00    +0.000 A 
ATOM     10  C   LIG    1      -38.919  73.607  27.276  0.00  0.00    +0.002 A 
ATOM     11  C   LIG    1      -38.002  72.562  27.153  0.00  0.00    +0.028 A 
ENDBRANCH   3   6
BRANCH   4  12
ATOM     12  N   LIG    1      -34.444  71.965  26.715  0.00  0.00    -0.266 N 
ATOM     13  H   LIG    1      -33.949  72.600  26.122  0.00  0.00    +0.157 HD
ATOM     14  C   LIG    1      -34.382  72.168  28.132  0.00  0.00    +0.251 C 
ATOM     15  O   LIG    1      -35.108  71.559  28.910  0.00  0.00    -0.270 OA
BRANCH  14  16
ATOM     16  C   LIG    1      -33.399  73.144  28.633  0.00  0.00    +0.056 A 
ATOM     17  C   LIG    1      -32.289  72.788  29.399  0.00  0.00    +0.054 A 
ATOM     18 CL   LIG    1      -31.874  71.155  29.774  0.00  0.00    -0.083 Cl
ATOM     19  C   LIG    1      -31.435  73.779  29.871  0.00  0.00    +0.041 A 
ATOM     20  C   LIG    1      -31.630  75.135  29.547  0.00  0.00    +0.052 A 
ATOM     21 CL   LIG    1      -30.526  76.213  30.324  0.00  0.00    -0.083 Cl
ATOM     22  C   LIG    1      -32.688  75.541  28.709  0.00  0.00    +0.022 A 
ATOM     23  C   LIG    1      -33.575  74.507  28.295  0.00  0.00    +0.026 A 
BRANCH  22  24
ATOM     24  C   LIG    1      -32.960  76.937  28.241  0.00  0.00    +0.107 A 
ATOM     25  C   LIG    1      -33.732  77.896  28.907  0.00  0.00    +0.149 A 
ATOM     26  F   LIG    1      -34.327  77.649  30.081  0.00  0.00    -0.203 F 
ATOM     27  C   LIG    1      -33.846  79.189  28.397  0.00  0.00    +0.042 A 
ATOM     28  C   LIG    1      -33.159  79.531  27.242  0.00  0.00    +0.023 A 
ATOM     29  C   LIG    1      -32.396  78.549  26.637  0.00  0.00    +0.111 A 
ATOM     30  N   LIG    1      -32.289  77.277  27.099  0.00  0.00    -0.252 NA
ENDBRANCH  22  24
ENDBRANCH  14  16
ENDBRANCH   4  12
BRANCH   1  31
ATOM     31  C   LIG    1      -36.043  67.730  24.666  0.00  0.00    +0.236 C 
ATOM     32  N   LIG    1      -35.122  67.321  23.873  0.00  0.00    -0.243 NA
BRANCH  31  33
ATOM     33  O   LIG    1      -37.088  66.988  25.087  0.00  0.00    -0.491 OA
ATOM     34  H   LIG    1      -37.695  66.832  24.342  0.00  0.00    +0.294 HD
ENDBRANCH  31  33
BRANCH  32  35
ATOM     35  C   LIG    1      -35.270  65.963  23.333  0.00  0.00    +0.202 C 
BRANCH  35  36
ATOM     36  C   LIG    1      -34.532  65.830  22.033  0.00  0.00    +0.084 A 
ATOM     37  N   LIG    1      -33.772  66.838  21.575  0.00  0.00    -0.177 NA
ATOM     38  N   LIG    1      -33.272  66.374  20.420  0.00  0.00    -0.284 N 
ATOM     39  H   LIG    1      -32.651  66.977  19.889  0.00  0.00    +0.188 HD
ATOM     40  C   LIG    1      -33.685  65.112  20.113  0.00  0.00    +0.105 A 
ATOM     41  C   LIG    1      -34.514  64.730  21.139  0.00  0.00    +0.046 A 
ENDBRANCH  35  36
ENDBRANCH  32  35
ENDBRANCH   1  31
TORSDOF 8
ENDMDL
MODEL 4
REMARK VINA RESULT:      -6.6     16.608     19.955
REMARK  Name = pdb/CHEMBL3962599.pdb
REMARK                            x       y       z     vdW  Elec       q    Type
REMARK                         _______ _______ _______ _____ _____    ______ ____
ROOT
ATOM      1  C   LIG    1      -37.927  76.429  26.225  0.00  0.00    +0.149 A 
ATOM      2  N   LIG    1      -39.114  76.962  25.890  0.00  0.00    -0.160 NA
ATOM      3  N   LIG    1      -39.772  75.958  25.233  0.00  0.00    -0.218 N 
ATOM      4  C   LIG    1      -38.924  74.864  24.996  0.00  0.00    +0.129 A 
ATOM      5  C   LIG    1      -37.753  75.156  25.657  0.00  0.00    +0.078 A 
ENDROOT
BRANCH   3   6
ATOM      6  C   LIG    1      -41.130  76.144  24.829  0.00  0.00    +0.067 A 
ATOM      7  C   LIG    1      -42.172  76.018  25.765  0.00  0.00    +0.028 A 
ATOM      8  C   LIG    1      -43.499  76.236  25.374  0.00  0.00    +0.002 A 
ATOM      9  C   LIG    1      -43.800  76.559  24.052  0.00  0.00    +0.000 A 
ATOM     10  C   LIG    1      -42.778  76.650  23.114  0.00  0.00    +0.002 A 
ATOM     11  C   LIG    1      -41.455  76.426  23.497  0.00  0.00    +0.028 A 
ENDBRANCH   3   6
BRANCH   4  12
ATOM     12  N   LIG    1      -39.150  73.692  24.223  0.00  0.00    -0.266 N 
ATOM     13  H   LIG    1      -38.607  73.577  23.391  0.00  0.00    +0.157 HD
ATOM     14  C   LIG    1      -40.008  72.620  24.631  0.00  0.00    +0.251 C 
ATOM     15  O   LIG    1      -40.554  72.604  25.728  0.00  0.00    -0.270 OA
BRANCH  14  16
ATOM     16  C   LIG    1      -40.219  71.521  23.673  0.00  0.00    +0.056 A 
ATOM     17  C   LIG    1      -41.359  71.409  22.876  0.00  0.00    +0.054 A 
ATOM     18 CL   LIG    1      -42.616  72.591  22.841  0.00  0.00    -0.083 Cl
ATOM     19  C   LIG    1      -41.500  70.314  22.030  0.00  0.00    +0.041 A 
ATOM     20  C   LIG    1      -40.492  69.339  21.914  0.00  0.00    +0.052 A 
ATOM     21 CL   LIG    1      -40.912  68.006  20.897  0.00  0.00    -0.083 Cl
ATOM     22  C   LIG    1      -39.285  69.446  22.635  0.00  0.00    +0.022 A 
ATOM     23  C   LIG    1      -39.203  70.548  23.533  0.00  0.00    +0.026 A 
BRANCH  22  24
ATOM     24  C   LIG    1      -38.117  68.514  22.547  0.00  0.00    +0.107 A 
ATOM     25  C   LIG    1      -37.259  68.366  21.451  0.00  0.00    +0.149 A 
ATOM     26  F   LIG    1      -37.405  69.076  20.324  0.00  0.00    -0.203 F 
ATOM     27  C   LIG    1      -36.159  67.513  21.526  0.00  0.00    +0.042 A 
ATOM     28  C   LIG    1      -35.897  66.836  22.707  0.00  0.00    +0.023 A 
ATOM     29  C   LIG    1      -36.766  67.036  23.764  0.00  0.00    +0.111 A 
ATOM     30  N   LIG    1      -37.858  67.842  23.709  0.00  0.00    -0.252 NA
ENDBRANCH  22  24
ENDBRANCH  14  16
ENDBRANCH   4  12
BRANCH   1  31
ATOM     31  C   LIG    1      -36.950  77.154  27.028  0.00  0.00    +0.236 C 
ATOM     32  N   LIG    1      -36.033  76.512  27.654  0.00  0.00    -0.243 NA
BRANCH  31  33
ATOM     33  O   LIG    1      -37.093  78.495  27.025  0.00  0.00    -0.491 OA
ATOM     34  H   LIG    1      -36.338  78.899  26.562  0.00  0.00    +0.294 HD
ENDBRANCH  31  33
BRANCH  32  35
ATOM     35  C   LIG    1      -35.121  77.309  28.486  0.00  0.00    +0.202 C 
BRANCH  35  36
ATOM     36  C   LIG    1      -33.995  77.857  27.657  0.00  0.00    +0.084 A 
ATOM     37  N   LIG    1      -33.949  79.165  27.353  0.00  0.00    -0.177 NA
ATOM     38  N   LIG    1      -32.830  79.293  26.624  0.00  0.00    -0.284 N 
ATOM     39  H   LIG    1      -32.584  80.217  26.282  0.00  0.00    +0.188 HD
ATOM     40  C   LIG    1      -32.160  78.121  26.442  0.00  0.00    +0.105 A 
ATOM     41  C   LIG    1      -32.896  77.163  27.095  0.00  0.00    +0.046 A 
ENDBRANCH  35  36
ENDBRANCH  32  35
ENDBRANCH   1  31
TORSDOF 8
ENDMDL
MODEL 5
REMARK VINA RESULT:      -6.6     16.721     19.718
REMARK  Name = pdb/CHEMBL3962599.pdb
REMARK                            x       y       z     vdW  Elec       q    Type
REMARK                         _______ _______ _______ _____ _____    ______ ____
ROOT
ATOM      1  C   LIG    1      -31.433  74.263  29.813  0.00  0.00    +0.149 A 
ATOM      2  N   LIG    1      -31.387  75.558  29.459  0.00  0.00    -0.160 NA
ATOM      3  N   LIG    1      -32.546  75.768  28.761  0.00  0.00    -0.218 N 
ATOM      4  C   LIG    1      -33.222  74.560  28.523  0.00  0.00    +0.129 A 
ATOM      5  C   LIG    1      -32.523  73.603  29.222  0.00  0.00    +0.078 A 
ENDROOT
BRANCH   3   6
ATOM      6  C   LIG    1      -32.884  77.087  28.326  0.00  0.00    +0.067 A 
ATOM      7  C   LIG    1      -32.207  77.669  27.240  0.00  0.00    +0.028 A 
ATOM      8  C   LIG    1      -32.563  78.948  26.793  0.00  0.00    +0.002 A 
ATOM      9  C   LIG    1      -33.576  79.660  27.432  0.00  0.00    +0.000 A 
ATOM     10  C   LIG    1      -34.225  79.104  28.529  0.00  0.00    +0.002 A 
ATOM     11  C   LIG    1      -33.868  77.834  28.983  0.00  0.00    +0.028 A 
ENDBRANCH   3   6
BRANCH   4  12
ATOM     12  N   LIG    1      -34.366  74.306  27.718  0.00  0.00    -0.266 N 
ATOM     13  H   LIG    1      -34.217  73.873  26.828  0.00  0.00    +0.157 HD
ATOM     14  C   LIG    1      -35.714  74.511  28.158  0.00  0.00    +0.251 C 
ATOM     15  O   LIG    1      -35.980  74.853  29.304  0.00  0.00    -0.270 OA
BRANCH  14  16
ATOM     16  C   LIG    1      -36.787  74.299  27.171  0.00  0.00    +0.056 A 
ATOM     17  C   LIG    1      -37.224  73.035  26.775  0.00  0.00    +0.054 A 
ATOM     18 CL   LIG    1      -36.634  71.565  27.460  0.00  0.00    -0.083 Cl
ATOM     19  C   LIG    1      -38.212  72.924  25.802  0.00  0.00    +0.041 A 
ATOM     20  C   LIG    1      -38.826  74.060  25.244  0.00  0.00    +0.052 A 
ATOM     21 CL   LIG    1      -39.945  73.708  23.974  0.00  0.00    -0.083 Cl
ATOM     22  C   LIG    1      -38.480  75.360  25.667  0.00  0.00    +0.022 A 
ATOM     23  C   LIG    1      -37.425  75.435  26.620  0.00  0.00    +0.026 A 
BRANCH  22  24
ATOM     24  C   LIG    1      -39.105  76.638  25.199  0.00  0.00    +0.107 A 
ATOM     25  C   LIG    1      -38.636  77.457  24.166  0.00  0.00    +0.149 A 
ATOM     26  F   LIG    1      -37.535  77.164  23.462  0.00  0.00    -0.203 F 
ATOM     27  C   LIG    1      -39.355  78.587  23.779  0.00  0.00    +0.042 A 
ATOM     28  C   LIG    1      -40.560  78.876  24.400  0.00  0.00    +0.023 A 
ATOM     29  C   LIG    1      -40.985  78.022  25.400  0.00  0.00    +0.111 A 
ATOM     30  N   LIG    1      -40.291  76.930  25.813  0.00  0.00    -0.252 NA
ENDBRANCH  22  24
ENDBRANCH  14  16
ENDBRANCH   4  12
BRANCH   1  31
ATOM     31  C   LIG    1      -30.414  73.653  30.659  0.00  0.00    +0.236 C 
ATOM     32  N   LIG    1      -29.950  74.295  31.667  0.00  0.00    -0.243 NA
BRANCH  31  33
ATOM     33  O   LIG    1      -30.050  72.405  30.300  0.00  0.00    -0.491 OA
ATOM     34  H   LIG    1      -29.774  72.405  29.366  0.00  0.00    +0.294 HD
ENDBRANCH  31  33
BRANCH  32  35
ATOM     35  C   LIG    1      -28.887  73.636  32.437  0.00  0.00    +0.202 C 
BRANCH  35  36
ATOM     36  C   LIG    1      -27.545  74.202  32.075  0.00  0.00    +0.084 A 
ATOM     37  N   LIG    1      -27.364  75.531  32.002  0.00  0.00    -0.177 NA
ATOM     38  N   LIG    1      -26.072  75.669  31.668  0.00  0.00    -0.284 N 
ATOM     39  H   LIG    1      -25.703  76.608  31.559  0.00  0.00    +0.188 HD
ATOM     40  C   LIG    1      -25.417  74.484  31.516  0.00  0.00    +0.105 A 
ATOM     41  C   LIG    1      -26.349  73.506  31.766  0.00  0.00    +0.046 A 
ENDBRANCH  35  36
ENDBRANCH  32  35
ENDBRANCH   1  31
TORSDOF 8
ENDMDL
MODEL 6
REMARK VINA RESULT:      -6.6     16.664     19.785
REMARK  Name = pdb/CHEMBL3962599.pdb
REMARK                            x       y       z     vdW  Elec       q    Type
REMARK                         _______ _______ _______ _____ _____    ______ ____
ROOT
ATOM      1  C   LIG    1      -31.526  74.461  29.895  0.00  0.00    +0.149 A 
ATOM      2  N   LIG    1      -31.470  75.740  29.486  0.00  0.00    -0.160 NA
ATOM      3  N   LIG    1      -32.605  75.915  28.741  0.00  0.00    -0.218 N 
ATOM      4  C   LIG    1      -33.271  74.696  28.533  0.00  0.00    +0.129 A 
ATOM      5  C   LIG    1      -32.594  73.772  29.297  0.00  0.00    +0.078 A 
ENDROOT
BRANCH   3   6
ATOM      6  C   LIG    1      -32.930  77.212  28.236  0.00  0.00    +0.067 A 
ATOM      7  C   LIG    1      -34.006  77.935  28.779  0.00  0.00    +0.028 A 
ATOM      8  C   LIG    1      -34.300  79.221  28.306  0.00  0.00    +0.002 A 
ATOM      9  C   LIG    1      -33.543  79.784  27.282  0.00  0.00    +0.000 A 
ATOM     10  C   LIG    1      -32.500  79.060  26.715  0.00  0.00    +0.002 A 
ATOM     11  C   LIG    1      -32.208  77.776  27.178  0.00  0.00    +0.028 A 
ENDBRANCH   3   6
BRANCH   4  12
ATOM     12  N   LIG    1      -34.386  74.403  27.702  0.00  0.00    -0.266 N 
ATOM     13  H   LIG    1      -34.200  74.001  26.805  0.00  0.00    +0.157 HD
ATOM     14  C   LIG    1      -35.750  74.527  28.122  0.00  0.00    +0.251 C 
ATOM     15  O   LIG    1      -36.053  74.826  29.271  0.00  0.00    -0.270 OA
BRANCH  14  16
ATOM     16  C   LIG    1      -36.794  74.285  27.111  0.00  0.00    +0.056 A 
ATOM     17  C   LIG    1      -37.181  73.008  26.701  0.00  0.00    +0.054 A 
ATOM     18 CL   LIG    1      -36.558  71.555  27.395  0.00  0.00    -0.083 Cl
ATOM     19  C   LIG    1      -38.143  72.869  25.707  0.00  0.00    +0.041 A 
ATOM     20  C   LIG    1      -38.782  73.987  25.139  0.00  0.00    +0.052 A 
ATOM     21 CL   LIG    1      -39.861  73.604  23.845  0.00  0.00    -0.083 Cl
ATOM     22  C   LIG    1      -38.488  75.296  25.574  0.00  0.00    +0.022 A 
ATOM     23  C   LIG    1      -37.457  75.401  26.550  0.00  0.00    +0.026 A 
BRANCH  22  24
ATOM     24  C   LIG    1      -39.144  76.555  25.098  0.00  0.00    +0.107 A 
ATOM     25  C   LIG    1      -38.653  77.420  24.112  0.00  0.00    +0.149 A 
ATOM     26  F   LIG    1      -37.500  77.195  23.470  0.00  0.00    -0.203 F 
ATOM     27  C   LIG    1      -39.401  78.524  23.707  0.00  0.00    +0.042 A 
ATOM     28  C   LIG    1      -40.653  78.743  24.261  0.00  0.00    +0.023 A 
ATOM     29  C   LIG    1      -41.096  77.846  25.215  0.00  0.00    +0.111 A 
ATOM     30  N   LIG    1      -40.376  76.777  25.645  0.00  0.00    -0.252 NA
ENDBRANCH  22  24
ENDBRANCH  14  16
ENDBRANCH   4  12
BRANCH   1  31
ATOM     31  C   LIG    1      -30.535  73.893  30.801  0.00  0.00    +0.236 C 
ATOM     32  N   LIG    1      -30.435  72.620  30.924  0.00  0.00    -0.243 NA
BRANCH  31  33
ATOM     33  O   LIG    1      -29.765  74.796  31.440  0.00  0.00    -0.491 OA
ATOM     34  H   LIG    1      -28.963  74.968  30.914  0.00  0.00    +0.294 HD
ENDBRANCH  31  33
BRANCH  32  35
ATOM     35  C   LIG    1      -29.451  72.127  31.896  0.00  0.00    +0.202 C 
BRANCH  35  36
ATOM     36  C   LIG    1      -28.671  70.980  31.321  0.00  0.00    +0.084 A 
ATOM     37  N   LIG    1      -28.577  70.820  29.991  0.00  0.00    -0.177 NA
ATOM     38  N   LIG    1      -27.818  69.724  29.845  0.00  0.00    -0.284 N 
ATOM     39  H   LIG    1      -27.606  69.409  28.903  0.00  0.00    +0.188 HD
ATOM     40  C   LIG    1      -27.427  69.168  31.026  0.00  0.00    +0.105 A 
ATOM     41  C   LIG    1      -27.972  69.957  32.010  0.00  0.00    +0.046 A 
ENDBRANCH  35  36
ENDBRANCH  32  35
ENDBRANCH   1  31
TORSDOF 8
ENDMDL
MODEL 7
REMARK VINA RESULT:      -6.5     16.821     19.156
REMARK  Name = pdb/CHEMBL3962599.pdb
REMARK                            x       y       z     vdW  Elec       q    Type
REMARK                         _______ _______ _______ _____ _____    ______ ____
ROOT
ATOM      1  C   LIG    1      -37.337  79.798  27.638  0.00  0.00    +0.149 A 
ATOM      2  N   LIG    1      -36.334  79.045  28.120  0.00  0.00    -0.160 NA
ATOM      3  N   LIG    1      -36.538  77.806  27.576  0.00  0.00    -0.218 N 
ATOM      4  C   LIG    1      -37.771  77.741  26.906  0.00  0.00    +0.129 A 
ATOM      5  C   LIG    1      -38.267  79.024  26.922  0.00  0.00    +0.078 A 
ENDROOT
BRANCH   3   6
ATOM      6  C   LIG    1      -35.577  76.770  27.789  0.00  0.00    +0.067 A 
ATOM      7  C   LIG    1      -35.941  75.593  28.466  0.00  0.00    +0.028 A 
ATOM      8  C   LIG    1      -35.007  74.565  28.644  0.00  0.00    +0.002 A 
ATOM      9  C   LIG    1      -33.704  74.708  28.170  0.00  0.00    +0.000 A 
ATOM     10  C   LIG    1      -33.327  75.884  27.531  0.00  0.00    +0.002 A 
ATOM     11  C   LIG    1      -34.253  76.914  27.359  0.00  0.00    +0.028 A 
ENDBRANCH   3   6
BRANCH   4  12
ATOM     12  N   LIG    1      -38.436  76.620  26.339  0.00  0.00    -0.266 N 
ATOM     13  H   LIG    1      -39.270  76.302  26.790  0.00  0.00    +0.157 HD
ATOM     14  C   LIG    1      -38.056  76.008  25.101  0.00  0.00    +0.251 C 
ATOM     15  O   LIG    1      -37.165  76.465  24.395  0.00  0.00    -0.270 OA
BRANCH  14  16
ATOM     16  C   LIG    1      -38.780  74.789  24.698  0.00  0.00    +0.056 A 
ATOM     17  C   LIG    1      -40.023  74.812  24.066  0.00  0.00    +0.054 A 
ATOM     18 CL   LIG    1      -40.823  76.264  23.586  0.00  0.00    -0.083 Cl
ATOM     19  C   LIG    1      -40.660  73.613  23.761  0.00  0.00    +0.041 A 
ATOM     20  C   LIG    1      -40.054  72.370  24.025  0.00  0.00    +0.052 A 
ATOM     21 CL   LIG    1      -41.057  71.007  23.676  0.00  0.00    -0.083 Cl
ATOM     22  C   LIG    1      -38.764  72.291  24.589  0.00  0.00    +0.022 A 
ATOM     23  C   LIG    1      -38.170  73.537  24.940  0.00  0.00    +0.026 A 
BRANCH  22  24
ATOM     24  C   LIG    1      -37.991  71.037  24.854  0.00  0.00    +0.107 A 
ATOM     25  C   LIG    1      -37.693  70.037  23.922  0.00  0.00    +0.149 A 
ATOM     26  F   LIG    1      -38.087  70.107  22.644  0.00  0.00    -0.203 F 
ATOM     27  C   LIG    1      -36.897  68.950  24.282  0.00  0.00    +0.042 A 
ATOM     28  C   LIG    1      -36.370  68.883  25.563  0.00  0.00    +0.023 A 
ATOM     29  C   LIG    1      -36.681  69.909  26.436  0.00  0.00    +0.111 A 
ATOM     30  N   LIG    1      -37.474  70.964  26.118  0.00  0.00    -0.252 NA
ENDBRANCH  22  24
ENDBRANCH  14  16
ENDBRANCH   4  12
BRANCH   1  31
ATOM     31  C   LIG    1      -37.435  81.227  27.910  0.00  0.00    +0.236 C 
ATOM     32  N   LIG    1      -38.189  81.967  27.183  0.00  0.00    -0.243 NA
BRANCH  31  33
ATOM     33  O   LIG    1      -36.707  81.657  28.961  0.00  0.00    -0.491 OA
ATOM     34  H   LIG    1      -37.071  81.281  29.782  0.00  0.00    +0.294 HD
ENDBRANCH  31  33
BRANCH  32  35
ATOM     35  C   LIG    1      -38.191  83.405  27.485  0.00  0.00    +0.202 C 
BRANCH  35  36
ATOM     36  C   LIG    1      -36.994  84.074  26.874  0.00  0.00    +0.084 A 
ATOM     37  N   LIG    1      -36.010  84.552  27.653  0.00  0.00    -0.177 NA
ATOM     38  N   LIG    1      -35.124  85.064  26.786  0.00  0.00    -0.284 N 
ATOM     39  H   LIG    1      -34.278  85.484  27.158  0.00  0.00    +0.188 HD
ATOM     40  C   LIG    1      -35.501  84.940  25.483  0.00  0.00    +0.105 A 
ATOM     41  C   LIG    1      -36.720  84.307  25.504  0.00  0.00    +0.046 A 
ENDBRANCH  35  36
ENDBRANCH  32  35
ENDBRANCH   1  31
TORSDOF 8
ENDMDL
MODEL 8
REMARK VINA RESULT:      -6.5     16.069     17.701
REMARK  Name = pdb/CHEMBL3962599.pdb
REMARK                            x       y       z     vdW  Elec       q    Type
REMARK                         _______ _______ _______ _____ _____    ______ ____
ROOT
ATOM      1  C   LIG    1      -37.190  70.003  24.945  0.00  0.00    +0.149 A 
ATOM      2  N   LIG    1      -36.741  69.008  25.729  0.00  0.00    -0.160 NA
ATOM      3  N   LIG    1      -35.879  69.616  26.600  0.00  0.00    -0.218 N 
ATOM      4  C   LIG    1      -35.649  70.954  26.239  0.00  0.00    +0.129 A 
ATOM      5  C   LIG    1      -36.511  71.207  25.197  0.00  0.00    +0.078 A 
ENDROOT
BRANCH   3   6
ATOM      6  C   LIG    1      -35.296  68.861  27.665  0.00  0.00    +0.067 A 
ATOM      7  C   LIG    1      -35.986  68.699  28.879  0.00  0.00    +0.028 A 
ATOM      8  C   LIG    1      -35.428  67.929  29.908  0.00  0.00    +0.002 A 
ATOM      9  C   LIG    1      -34.177  67.336  29.745  0.00  0.00    +0.000 A 
ATOM     10  C   LIG    1      -33.474  67.523  28.560  0.00  0.00    +0.002 A 
ATOM     11  C   LIG    1      -34.023  68.295  27.536  0.00  0.00    +0.028 A 
ENDBRANCH   3   6
BRANCH   4  12
ATOM     12  N   LIG    1      -34.720  71.889  26.771  0.00  0.00    -0.266 N 
ATOM     13  H   LIG    1      -33.916  72.106  26.217  0.00  0.00    +0.157 HD
ATOM     14  C   LIG    1      -34.933  72.628  27.980  0.00  0.00    +0.251 C 
ATOM     15  O   LIG    1      -35.983  72.559  28.609  0.00  0.00    -0.270 OA
BRANCH  14  16
ATOM     16  C   LIG    1      -33.831  73.482  28.454  0.00  0.00    +0.056 A 
ATOM     17  C   LIG    1      -32.716  72.988  29.132  0.00  0.00    +0.054 A 
ATOM     18 CL   LIG    1      -32.440  71.307  29.414  0.00  0.00    -0.083 Cl
ATOM     19  C   LIG    1      -31.742  73.870  29.586  0.00  0.00    +0.041 A 
ATOM     20  C   LIG    1      -31.823  75.252  29.329  0.00  0.00    +0.052 A 
ATOM     21 CL   LIG    1      -30.573  76.184  30.074  0.00  0.00    -0.083 Cl
ATOM     22  C   LIG    1      -32.886  75.794  28.578  0.00  0.00    +0.022 A 
ATOM     23  C   LIG    1      -33.893  74.869  28.182  0.00  0.00    +0.026 A 
BRANCH  22  24
ATOM     24  C   LIG    1      -33.048  77.229  28.184  0.00  0.00    +0.107 A 
ATOM     25  C   LIG    1      -32.441  77.859  27.090  0.00  0.00    +0.149 A 
ATOM     26  F   LIG    1      -31.623  77.211  26.252  0.00  0.00    -0.203 F 
ATOM     27  C   LIG    1      -32.736  79.189  26.789  0.00  0.00    +0.042 A 
ATOM     28  C   LIG    1      -33.662  79.876  27.559  0.00  0.00    +0.023 A 
ATOM     29  C   LIG    1      -34.244  79.198  28.614  0.00  0.00    +0.111 A 
ATOM     30  N   LIG    1      -33.956  77.912  28.944  0.00  0.00    -0.252 NA
ENDBRANCH  22  24
ENDBRANCH  14  16
ENDBRANCH   4  12
BRANCH   1  31
ATOM     31  C   LIG    1      -38.212  69.788  23.927  0.00  0.00    +0.236 C 
ATOM     32  N   LIG    1      -38.267  68.671  23.300  0.00  0.00    -0.243 NA
BRANCH  31  33
ATOM     33  O   LIG    1      -39.057  70.823  23.745  0.00  0.00    -0.491 OA
ATOM     34  H   LIG    1      -38.812  71.551  24.343  0.00  0.00    +0.294 HD
ENDBRANCH  31  33
BRANCH  32  35
ATOM     35  C   LIG    1      -39.290  68.553  22.252  0.00  0.00    +0.202 C 
BRANCH  35  36
ATOM     36  C   LIG    1      -38.658  68.209  20.935  0.00  0.00    +0.084 A 
ATOM     37  N   LIG    1      -37.688  68.984  20.422  0.00  0.00    -0.177 NA
ATOM     38  N   LIG    1      -37.364  68.383  19.267  0.00  0.00    -0.284 N 
ATOM     39  H   LIG    1      -36.632  68.799  18.700  0.00  0.00    +0.188 HD
ATOM     40  C   LIG    1      -38.090  67.259  19.014  0.00  0.00    +0.105 A 
ATOM     41  C   LIG    1      -38.949  67.119  20.076  0.00  0.00    +0.046 A 
ENDBRANCH  35  36
ENDBRANCH  32  35
ENDBRANCH   1  31
TORSDOF 8
ENDMDL
MODEL 9
REMARK VINA RESULT:      -6.3     18.909     20.558
REMARK  Name = pdb/CHEMBL3962599.pdb
REMARK                            x       y       z     vdW  Elec       q    Type
REMARK                         _______ _______ _______ _____ _____    ______ ____
ROOT
ATOM      1  C   LIG    1      -26.829  75.961  32.034  0.00  0.00    +0.149 A 
ATOM      2  N   LIG    1      -25.760  75.737  31.252  0.00  0.00    -0.160 NA
ATOM      3  N   LIG    1      -24.774  76.526  31.779  0.00  0.00    -0.218 N 
ATOM      4  C   LIG    1      -25.281  77.380  32.771  0.00  0.00    +0.129 A 
ATOM      5  C   LIG    1      -26.589  76.997  32.954  0.00  0.00    +0.078 A 
ENDROOT
BRANCH   3   6
ATOM      6  C   LIG    1      -23.446  76.449  31.253  0.00  0.00    +0.067 A 
ATOM      7  C   LIG    1      -22.442  75.768  31.962  0.00  0.00    +0.028 A 
ATOM      8  C   LIG    1      -21.150  75.664  31.428  0.00  0.00    +0.002 A 
ATOM      9  C   LIG    1      -20.847  76.252  30.201  0.00  0.00    +0.000 A 
ATOM     10  C   LIG    1      -21.827  76.958  29.512  0.00  0.00    +0.002 A 
ATOM     11  C   LIG    1      -23.112  77.070  30.044  0.00  0.00    +0.028 A 
ENDBRANCH   3   6
BRANCH   4  12
ATOM     12  N   LIG    1      -24.644  78.451  33.457  0.00  0.00    -0.266 N 
ATOM     13  H   LIG    1      -24.946  79.380  33.241  0.00  0.00    +0.157 HD
ATOM     14  C   LIG    1      -23.700  78.271  34.519  0.00  0.00    +0.251 C 
ATOM     15  O   LIG    1      -23.429  77.163  34.969  0.00  0.00    -0.270 OA
BRANCH  14  16
ATOM     16  C   LIG    1      -23.051  79.478  35.059  0.00  0.00    +0.056 A 
ATOM     17  C   LIG    1      -21.729  79.825  34.781  0.00  0.00    +0.054 A 
ATOM     18 CL   LIG    1      -20.719  78.941  33.696  0.00  0.00    -0.083 Cl
ATOM     19  C   LIG    1      -21.178  80.959  35.370  0.00  0.00    +0.041 A 
ATOM     20  C   LIG    1      -21.942  81.802  36.198  0.00  0.00    +0.052 A 
ATOM     21 CL   LIG    1      -21.042  83.090  36.918  0.00  0.00    -0.083 Cl
ATOM     22  C   LIG    1      -23.306  81.543  36.447  0.00  0.00    +0.022 A 
ATOM     23  C   LIG    1      -23.816  80.343  35.876  0.00  0.00    +0.026 A 
BRANCH  22  24
ATOM     24  C   LIG    1      -24.235  82.396  37.252  0.00  0.00    +0.107 A 
ATOM     25  C   LIG    1      -24.050  82.792  38.582  0.00  0.00    +0.149 A 
ATOM     26  F   LIG    1      -22.974  82.434  39.294  0.00  0.00    -0.203 F 
ATOM     27  C   LIG    1      -24.960  83.653  39.195  0.00  0.00    +0.042 A 
ATOM     28  C   LIG    1      -26.034  84.144  38.469  0.00  0.00    +0.023 A 
ATOM     29  C   LIG    1      -26.156  83.734  37.154  0.00  0.00    +0.111 A 
ATOM     30  N   LIG    1      -25.299  82.878  36.541  0.00  0.00    -0.252 NA
ENDBRANCH  22  24
ENDBRANCH  14  16
ENDBRANCH   4  12
BRANCH   1  31
ATOM     31  C   LIG    1      -28.081  75.235  31.864  0.00  0.00    +0.236 C 
ATOM     32  N   LIG    1      -29.146  75.864  31.526  0.00  0.00    -0.243 NA
BRANCH  31  33
ATOM     33  O   LIG    1      -27.998  73.904  32.067  0.00  0.00    -0.491 OA
ATOM     34  H   LIG    1      -27.858  73.455  31.214  0.00  0.00    +0.294 HD
ENDBRANCH  31  33
BRANCH  32  35
ATOM     35  C   LIG    1      -30.379  75.070  31.429  0.00  0.00    +0.202 C 
BRANCH  35  36
ATOM     36  C   LIG    1      -31.417  75.805  30.632  0.00  0.00    +0.084 A 
ATOM     37  N   LIG    1      -32.538  76.252  31.222  0.00  0.00    -0.177 NA
ATOM     38  N   LIG    1      -33.215  76.850  30.230  0.00  0.00    -0.284 N 
ATOM     39  H   LIG    1      -34.111  77.275  30.449  0.00  0.00    +0.188 HD
ATOM     40  C   LIG    1      -32.579  76.800  29.026  0.00  0.00    +0.105 A 
ATOM     41  C   LIG    1      -31.408  76.118  29.250  0.00  0.00    +0.046 A 
ENDBRANCH  35  36
ENDBRANCH  32  35
ENDBRANCH   1  31
TORSDOF 8
ENDMDL
