MODEL 1
REMARK VINA RESULT:      -6.3      0.000      0.000
REMARK  Name = pdb/CHEMBL3582432.pdb
REMARK                            x       y       z     vdW  Elec       q    Type
REMARK                         _______ _______ _______ _____ _____    ______ ____
ROOT
ATOM      1  C   LIG    1      -37.441  76.110  25.539  0.00  0.00    +0.140 A 
ATOM      2  N   LIG    1      -37.981  77.281  25.335  0.00  0.00    -0.150 NA
ATOM      3  N   LIG    1      -39.186  77.259  24.686  0.00  0.00    -0.211 N 
ATOM      4  C   LIG    1      -39.960  78.359  24.349  0.00  0.00    +0.093 A 
ATOM      5  C   LIG    1      -41.058  77.805  23.704  0.00  0.00    +0.141 A 
ATOM      6  N   LIG    1      -40.991  76.440  23.638  0.00  0.00    -0.234 NA
ATOM      7  C   LIG    1      -39.862  76.136  24.236  0.00  0.00    +0.155 A 
ATOM      8  C   LIG    1      -39.267  74.883  24.475  0.00  0.00    +0.051 A 
ATOM      9  C   LIG    1      -38.092  74.829  25.109  0.00  0.00    +0.049 A 
ENDROOT
BRANCH   4  10
ATOM     10  C   LIG    1      -39.655  79.768  24.609  0.00  0.00    +0.002 A 
ATOM     11  C   LIG    1      -39.462  80.272  25.901  0.00  0.00    +0.012 A 
ATOM     12  C   LIG    1      -39.061  81.601  26.103  0.00  0.00    +0.024 A 
ATOM     13  C   LIG    1      -38.815  82.443  25.015  0.00  0.00    +0.033 A 
ATOM     14  C   LIG    1      -39.067  81.965  23.730  0.00  0.00    +0.024 A 
ATOM     15  C   LIG    1      -39.478  80.644  23.531  0.00  0.00    +0.012 A 
BRANCH  13  16
ATOM     16  N   LIG    1      -38.287  83.727  25.273  0.00  0.00    -0.285 N 
ATOM     17  H   LIG    1      -38.962  84.451  25.480  0.00  0.00    +0.155 HD
ATOM     18  C   LIG    1      -36.953  84.020  25.512  0.00  0.00    +0.220 C 
ATOM     19  O   LIG    1      -36.037  83.197  25.534  0.00  0.00    -0.275 OA
BRANCH  18  20
ATOM     20  C   LIG    1      -36.699  85.491  25.860  0.00  0.00    +0.080 C 
ATOM     21  C   LIG    1      -35.413  85.690  26.673  0.00  0.00    +0.041 C 
ATOM     22  C   LIG    1      -35.601  85.288  28.130  0.00  0.00    +0.160 C 
ATOM     23  O   LIG    1      -36.697  85.993  28.704  0.00  0.00    -0.380 OA
ATOM     24  C   LIG    1      -37.932  85.670  28.066  0.00  0.00    +0.160 C 
ATOM     25  C   LIG    1      -37.898  86.102  26.605  0.00  0.00    +0.041 C 
ENDBRANCH  18  20
ENDBRANCH  13  16
ENDBRANCH   4  10
BRANCH   1  26
ATOM     26  N   LIG    1      -36.215  76.022  26.155  0.00  0.00    -0.324 N 
ATOM     27  H   LIG    1      -35.444  75.595  25.658  0.00  0.00    +0.148 HD
BRANCH  26  28
ATOM     28  C   LIG    1      -35.971  76.319  27.549  0.00  0.00    +0.138 C 
BRANCH  28  32
ATOM     29  F   LIG    1      -31.902  79.027  27.660  0.00  0.00    -0.205 F 
ATOM     30  C   LIG    1      -33.236  78.958  27.766  0.00  0.00    +0.124 A 
ATOM     31  C   LIG    1      -33.872  77.732  27.600  0.00  0.00    +0.043 A 
ATOM     32  C   LIG    1      -35.267  77.644  27.706  0.00  0.00    -0.028 A 
ATOM     33  C   LIG    1      -35.996  78.813  27.983  0.00  0.00    +0.005 A 
ATOM     34  C   LIG    1      -35.347  80.039  28.148  0.00  0.00    +0.003 A 
ATOM     35  C   LIG    1      -33.960  80.113  28.042  0.00  0.00    +0.038 A 
ENDBRANCH  28  32
ENDBRANCH  26  28
ENDBRANCH   1  26
TORSDOF 6
ENDMDL
MODEL 2
REMARK VINA RESULT:      -6.3     14.137     17.083
REMARK  Name = pdb/CHEMBL3582432.pdb
REMARK                            x       y       z     vdW  Elec       q    Type
REMARK                         _______ _______ _______ _____ _____    ______ ____
ROOT
ATOM      1  C   LIG    1      -21.081  77.091  31.296  0.00  0.00    +0.140 A 
ATOM      2  N   LIG    1      -22.021  77.516  32.096  0.00  0.00    -0.150 NA
ATOM      3  N   LIG    1      -23.286  77.483  31.574  0.00  0.00    -0.211 N 
ATOM      4  C   LIG    1      -24.451  77.879  32.213  0.00  0.00    +0.093 A 
ATOM      5  C   LIG    1      -25.439  77.660  31.263  0.00  0.00    +0.141 A 
ATOM      6  N   LIG    1      -24.938  77.154  30.095  0.00  0.00    -0.234 NA
ATOM      7  C   LIG    1      -23.646  77.053  30.307  0.00  0.00    +0.155 A 
ATOM      8  C   LIG    1      -22.619  76.589  29.464  0.00  0.00    +0.051 A 
ATOM      9  C   LIG    1      -21.359  76.588  29.911  0.00  0.00    +0.049 A 
ENDROOT
BRANCH   4  10
ATOM     10  C   LIG    1      -24.576  78.417  33.570  0.00  0.00    +0.002 A 
ATOM     11  C   LIG    1      -23.796  79.483  34.034  0.00  0.00    +0.012 A 
ATOM     12  C   LIG    1      -24.023  80.044  35.301  0.00  0.00    +0.024 A 
ATOM     13  C   LIG    1      -25.056  79.569  36.113  0.00  0.00    +0.033 A 
ATOM     14  C   LIG    1      -25.793  78.468  35.683  0.00  0.00    +0.024 A 
ATOM     15  C   LIG    1      -25.558  77.902  34.425  0.00  0.00    +0.012 A 
BRANCH  13  16
ATOM     16  N   LIG    1      -25.323  80.256  37.319  0.00  0.00    -0.285 N 
ATOM     17  H   LIG    1      -24.562  80.296  37.984  0.00  0.00    +0.155 HD
ATOM     18  C   LIG    1      -26.417  81.072  37.558  0.00  0.00    +0.220 C 
ATOM     19  O   LIG    1      -27.314  81.316  36.749  0.00  0.00    -0.275 OA
BRANCH  18  20
ATOM     20  C   LIG    1      -26.383  81.761  38.927  0.00  0.00    +0.080 C 
ATOM     21  C   LIG    1      -27.246  83.028  38.970  0.00  0.00    +0.041 C 
ATOM     22  C   LIG    1      -26.565  84.197  38.269  0.00  0.00    +0.160 C 
ATOM     23  O   LIG    1      -25.273  84.425  38.822  0.00  0.00    -0.380 OA
ATOM     24  C   LIG    1      -24.403  83.312  38.622  0.00  0.00    +0.160 C 
ATOM     25  C   LIG    1      -24.941  82.086  39.350  0.00  0.00    +0.041 C 
ENDBRANCH  18  20
ENDBRANCH  13  16
ENDBRANCH   4  10
BRANCH   1  26
ATOM     26  N   LIG    1      -19.770  77.111  31.711  0.00  0.00    -0.324 N 
ATOM     27  H   LIG    1      -19.340  76.252  32.026  0.00  0.00    +0.148 HD
BRANCH  26  28
ATOM     28  C   LIG    1      -18.991  78.311  31.919  0.00  0.00    +0.138 C 
BRANCH  28  32
ATOM     29  F   LIG    1      -20.808  80.293  36.002  0.00  0.00    -0.205 F 
ATOM     30  C   LIG    1      -19.809  79.643  35.390  0.00  0.00    +0.124 A 
ATOM     31  C   LIG    1      -19.926  79.326  34.040  0.00  0.00    +0.043 A 
ATOM     32  C   LIG    1      -18.889  78.645  33.386  0.00  0.00    -0.028 A 
ATOM     33  C   LIG    1      -17.743  78.297  34.121  0.00  0.00    +0.005 A 
ATOM     34  C   LIG    1      -17.636  78.621  35.477  0.00  0.00    +0.003 A 
ATOM     35  C   LIG    1      -18.673  79.299  36.115  0.00  0.00    +0.038 A 
ENDBRANCH  28  32
ENDBRANCH  26  28
ENDBRANCH   1  26
TORSDOF 6
ENDMDL
MODEL 3
REMARK VINA RESULT:      -6.3     12.490     16.811
REMARK  Name = pdb/CHEMBL3582432.pdb
REMARK                            x       y       z     vdW  Elec       q    Type
REMARK                         _______ _______ _______ _____ _____    ______ ____
ROOT
ATOM      1  C   LIG    1      -20.201  78.820  33.745  0.00  0.00    +0.140 A 
ATOM      2  N   LIG    1      -21.131  78.285  33.001  0.00  0.00    -0.150 NA
ATOM      3  N   LIG    1      -20.689  77.717  31.838  0.00  0.00    -0.211 N 
ATOM      4  C   LIG    1      -21.469  77.089  30.879  0.00  0.00    +0.093 A 
ATOM      5  C   LIG    1      -20.553  76.704  29.908  0.00  0.00    +0.141 A 
ATOM      6  N   LIG    1      -19.272  77.060  30.229  0.00  0.00    -0.234 NA
ATOM      7  C   LIG    1      -19.377  77.662  31.391  0.00  0.00    +0.155 A 
ATOM      8  C   LIG    1      -18.389  78.235  32.214  0.00  0.00    +0.051 A 
ATOM      9  C   LIG    1      -18.750  78.804  33.367  0.00  0.00    +0.049 A 
ENDROOT
BRANCH   4  10
ATOM     10  C   LIG    1      -22.922  76.905  30.903  0.00  0.00    +0.002 A 
ATOM     11  C   LIG    1      -23.528  75.743  31.396  0.00  0.00    +0.012 A 
ATOM     12  C   LIG    1      -24.924  75.651  31.508  0.00  0.00    +0.024 A 
ATOM     13  C   LIG    1      -25.738  76.730  31.157  0.00  0.00    +0.033 A 
ATOM     14  C   LIG    1      -25.145  77.864  30.606  0.00  0.00    +0.024 A 
ATOM     15  C   LIG    1      -23.754  77.951  30.485  0.00  0.00    +0.012 A 
BRANCH  13  16
ATOM     16  N   LIG    1      -27.124  76.629  31.413  0.00  0.00    -0.285 N 
ATOM     17  H   LIG    1      -27.658  76.081  30.752  0.00  0.00    +0.155 HD
ATOM     18  C   LIG    1      -27.756  76.991  32.592  0.00  0.00    +0.220 C 
ATOM     19  O   LIG    1      -27.196  77.452  33.588  0.00  0.00    -0.275 OA
BRANCH  18  20
ATOM     20  C   LIG    1      -29.255  76.671  32.609  0.00  0.00    +0.080 C 
ATOM     21  C   LIG    1      -29.780  76.385  34.022  0.00  0.00    +0.041 C 
ATOM     22  C   LIG    1      -29.389  74.990  34.496  0.00  0.00    +0.160 C 
ATOM     23  O   LIG    1      -29.830  74.007  33.565  0.00  0.00    -0.380 OA
ATOM     24  C   LIG    1      -29.202  74.157  32.293  0.00  0.00    +0.160 C 
ATOM     25  C   LIG    1      -29.584  75.497  31.673  0.00  0.00    +0.041 C 
ENDBRANCH  18  20
ENDBRANCH  13  16
ENDBRANCH   4  10
BRANCH   1  26
ATOM     26  N   LIG    1      -20.543  79.446  34.921  0.00  0.00    -0.324 N 
ATOM     27  H   LIG    1      -20.780  78.883  35.727  0.00  0.00    +0.148 HD
BRANCH  26  28
ATOM     28  C   LIG    1      -20.781  80.865  35.059  0.00  0.00    +0.138 C 
BRANCH  28  32
ATOM     29  F   LIG    1      -25.478  79.635  35.620  0.00  0.00    -0.205 F 
ATOM     30  C   LIG    1      -24.486  80.506  35.851  0.00  0.00    +0.124 A 
ATOM     31  C   LIG    1      -23.212  80.234  35.363  0.00  0.00    +0.043 A 
ATOM     32  C   LIG    1      -22.163  81.134  35.598  0.00  0.00    -0.028 A 
ATOM     33  C   LIG    1      -22.431  82.304  36.329  0.00  0.00    +0.005 A 
ATOM     34  C   LIG    1      -23.716  82.567  36.814  0.00  0.00    +0.003 A 
ATOM     35  C   LIG    1      -24.749  81.664  36.573  0.00  0.00    +0.038 A 
ENDBRANCH  28  32
ENDBRANCH  26  28
ENDBRANCH   1  26
TORSDOF 6
ENDMDL
MODEL 4
REMARK VINA RESULT:      -6.3     14.905     17.924
REMARK  Name = pdb/CHEMBL3582432.pdb
REMARK                            x       y       z     vdW  Elec       q    Type
REMARK                         _______ _______ _______ _____ _____    ______ ____
ROOT
ATOM      1  C   LIG    1      -19.748  77.789  30.964  0.00  0.00    +0.140 A 
ATOM      2  N   LIG    1      -20.249  78.405  31.999  0.00  0.00    -0.150 NA
ATOM      3  N   LIG    1      -19.441  78.435  33.103  0.00  0.00    -0.211 N 
ATOM      4  C   LIG    1      -19.736  79.020  34.325  0.00  0.00    +0.093 A 
ATOM      5  C   LIG    1      -18.610  78.765  35.095  0.00  0.00    +0.141 A 
ATOM      6  N   LIG    1      -17.656  78.065  34.409  0.00  0.00    -0.234 NA
ATOM      7  C   LIG    1      -18.175  77.882  33.216  0.00  0.00    +0.155 A 
ATOM      8  C   LIG    1      -17.649  77.231  32.084  0.00  0.00    +0.051 A 
ATOM      9  C   LIG    1      -18.382  77.169  30.969  0.00  0.00    +0.049 A 
ENDROOT
BRANCH   4  10
ATOM     10  C   LIG    1      -20.968  79.723  34.694  0.00  0.00    +0.002 A 
ATOM     11  C   LIG    1      -22.239  79.251  34.347  0.00  0.00    +0.012 A 
ATOM     12  C   LIG    1      -23.398  79.890  34.815  0.00  0.00    +0.024 A 
ATOM     13  C   LIG    1      -23.305  80.996  35.664  0.00  0.00    +0.033 A 
ATOM     14  C   LIG    1      -22.044  81.508  35.960  0.00  0.00    +0.024 A 
ATOM     15  C   LIG    1      -20.891  80.877  35.484  0.00  0.00    +0.012 A 
BRANCH  13  16
ATOM     16  N   LIG    1      -24.500  81.518  36.208  0.00  0.00    -0.285 N 
ATOM     17  H   LIG    1      -24.905  82.304  35.718  0.00  0.00    +0.155 HD
ATOM     18  C   LIG    1      -25.280  80.907  37.178  0.00  0.00    +0.220 C 
ATOM     19  O   LIG    1      -25.041  79.818  37.702  0.00  0.00    -0.275 OA
BRANCH  18  20
ATOM     20  C   LIG    1      -26.572  81.668  37.497  0.00  0.00    +0.080 C 
ATOM     21  C   LIG    1      -26.412  83.187  37.354  0.00  0.00    +0.041 C 
ATOM     22  C   LIG    1      -25.664  83.787  38.539  0.00  0.00    +0.160 C 
ATOM     23  O   LIG    1      -26.308  83.442  39.761  0.00  0.00    -0.380 OA
ATOM     24  C   LIG    1      -26.298  82.033  39.989  0.00  0.00    +0.160 C 
ATOM     25  C   LIG    1      -27.091  81.318  38.901  0.00  0.00    +0.041 C 
ENDBRANCH  18  20
ENDBRANCH  13  16
ENDBRANCH   4  10
BRANCH   1  26
ATOM     26  N   LIG    1      -20.491  77.674  29.812  0.00  0.00    -0.324 N 
ATOM     27  H   LIG    1      -20.671  78.502  29.258  0.00  0.00    +0.148 HD
BRANCH  26  28
ATOM     28  C   LIG    1      -21.211  76.487  29.411  0.00  0.00    +0.138 C 
BRANCH  28  32
ATOM     29  F   LIG    1      -25.466  78.728  30.288  0.00  0.00    -0.205 F 
ATOM     30  C   LIG    1      -24.707  77.629  30.392  0.00  0.00    +0.124 A 
ATOM     31  C   LIG    1      -23.420  77.634  29.862  0.00  0.00    +0.043 A 
ATOM     32  C   LIG    1      -22.615  76.491  29.962  0.00  0.00    -0.028 A 
ATOM     33  C   LIG    1      -23.135  75.355  30.604  0.00  0.00    +0.005 A 
ATOM     34  C   LIG    1      -24.429  75.361  31.133  0.00  0.00    +0.003 A 
ATOM     35  C   LIG    1      -25.219  76.504  31.028  0.00  0.00    +0.038 A 
ENDBRANCH  28  32
ENDBRANCH  26  28
ENDBRANCH   1  26
TORSDOF 6
ENDMDL
MODEL 5
REMARK VINA RESULT:      -6.2      5.052      9.679
REMARK  Name = pdb/CHEMBL3582432.pdb
REMARK                            x       y       z     vdW  Elec       q    Type
REMARK                         _______ _______ _______ _____ _____    ______ ____
ROOT
ATOM      1  C   LIG    1      -38.021  77.703  27.129  0.00  0.00    +0.140 A 
ATOM      2  N   LIG    1      -38.289  76.646  26.411  0.00  0.00    -0.150 NA
ATOM      3  N   LIG    1      -39.188  76.846  25.399  0.00  0.00    -0.211 N 
ATOM      4  C   LIG    1      -39.642  75.893  24.500  0.00  0.00    +0.093 A 
ATOM      5  C   LIG    1      -40.535  76.592  23.699  0.00  0.00    +0.141 A 
ATOM      6  N   LIG    1      -40.642  77.907  24.061  0.00  0.00    -0.234 NA
ATOM      7  C   LIG    1      -39.823  78.037  25.080  0.00  0.00    +0.155 A 
ATOM      8  C   LIG    1      -39.511  79.166  25.860  0.00  0.00    +0.051 A 
ATOM      9  C   LIG    1      -38.636  79.044  26.862  0.00  0.00    +0.049 A 
ENDROOT
BRANCH   4  10
ATOM     10  C   LIG    1      -39.262  74.479  24.444  0.00  0.00    +0.002 A 
ATOM     11  C   LIG    1      -38.044  74.004  24.945  0.00  0.00    +0.012 A 
ATOM     12  C   LIG    1      -37.765  72.629  24.976  0.00  0.00    +0.024 A 
ATOM     13  C   LIG    1      -38.712  71.702  24.534  0.00  0.00    +0.033 A 
ATOM     14  C   LIG    1      -39.898  72.172  23.976  0.00  0.00    +0.024 A 
ATOM     15  C   LIG    1      -40.171  73.543  23.935  0.00  0.00    +0.012 A 
BRANCH  13  16
ATOM     16  N   LIG    1      -38.430  70.328  24.710  0.00  0.00    -0.285 N 
ATOM     17  H   LIG    1      -39.010  69.839  25.379  0.00  0.00    +0.155 HD
ATOM     18  C   LIG    1      -37.622  69.557  23.889  0.00  0.00    +0.220 C 
ATOM     19  O   LIG    1      -37.036  69.963  22.884  0.00  0.00    -0.275 OA
BRANCH  18  20
ATOM     20  C   LIG    1      -37.587  68.075  24.278  0.00  0.00    +0.080 C 
ATOM     21  C   LIG    1      -37.376  67.865  25.782  0.00  0.00    +0.041 C 
ATOM     22  C   LIG    1      -35.924  68.094  26.184  0.00  0.00    +0.160 C 
ATOM     23  O   LIG    1      -35.058  67.266  25.415  0.00  0.00    -0.380 OA
ATOM     24  C   LIG    1      -35.114  67.583  24.025  0.00  0.00    +0.160 C 
ATOM     25  C   LIG    1      -36.513  67.317  23.480  0.00  0.00    +0.041 C 
ENDBRANCH  18  20
ENDBRANCH  13  16
ENDBRANCH   4  10
BRANCH   1  26
ATOM     26  N   LIG    1      -37.153  77.604  28.191  0.00  0.00    -0.324 N 
ATOM     27  H   LIG    1      -37.279  78.214  28.988  0.00  0.00    +0.148 HD
BRANCH  26  28
ATOM     28  C   LIG    1      -35.938  76.821  28.192  0.00  0.00    +0.138 C 
BRANCH  28  32
ATOM     29  F   LIG    1      -31.549  77.250  26.083  0.00  0.00    -0.205 F 
ATOM     30  C   LIG    1      -32.580  77.831  26.712  0.00  0.00    +0.124 A 
ATOM     31  C   LIG    1      -33.671  77.056  27.095  0.00  0.00    +0.043 A 
ATOM     32  C   LIG    1      -34.757  77.649  27.753  0.00  0.00    -0.028 A 
ATOM     33  C   LIG    1      -34.715  79.029  28.012  0.00  0.00    +0.005 A 
ATOM     34  C   LIG    1      -33.614  79.798  27.624  0.00  0.00    +0.003 A 
ATOM     35  C   LIG    1      -32.540  79.196  26.972  0.00  0.00    +0.038 A 
ENDBRANCH  28  32
ENDBRANCH  26  28
ENDBRANCH   1  26
TORSDOF 6
ENDMDL
MODEL 6
REMARK VINA RESULT:      -6.1     18.239     19.786
REMARK  Name = pdb/CHEMBL3582432.pdb
REMARK                            x       y       z     vdW  Elec       q    Type
REMARK                         _______ _______ _______ _____ _____    ______ ____
ROOT
ATOM      1  C   LIG    1      -20.905  77.679  15.131  0.00  0.00    +0.140 A 
ATOM      2  N   LIG    1      -21.513  78.834  15.136  0.00  0.00    -0.150 NA
ATOM      3  N   LIG    1      -22.880  78.768  15.174  0.00  0.00    -0.211 N 
ATOM      4  C   LIG    1      -23.756  79.843  15.184  0.00  0.00    +0.093 A 
ATOM      5  C   LIG    1      -25.010  79.247  15.213  0.00  0.00    +0.141 A 
ATOM      6  N   LIG    1      -24.938  77.882  15.224  0.00  0.00    -0.234 NA
ATOM      7  C   LIG    1      -23.652  77.618  15.204  0.00  0.00    +0.155 A 
ATOM      8  C   LIG    1      -22.975  76.384  15.209  0.00  0.00    +0.051 A 
ATOM      9  C   LIG    1      -21.640  76.373  15.178  0.00  0.00    +0.049 A 
ENDROOT
BRANCH   4  10
ATOM     10  C   LIG    1      -23.409  81.266  15.153  0.00  0.00    +0.002 A 
ATOM     11  C   LIG    1      -22.890  81.941  16.264  0.00  0.00    +0.012 A 
ATOM     12  C   LIG    1      -22.464  83.275  16.163  0.00  0.00    +0.024 A 
ATOM     13  C   LIG    1      -22.522  83.948  14.940  0.00  0.00    +0.033 A 
ATOM     14  C   LIG    1      -23.097  83.303  13.848  0.00  0.00    +0.024 A 
ATOM     15  C   LIG    1      -23.531  81.977  13.952  0.00  0.00    +0.012 A 
BRANCH  13  16
ATOM     16  N   LIG    1      -21.960  85.242  14.866  0.00  0.00    -0.285 N 
ATOM     17  H   LIG    1      -22.307  85.916  15.536  0.00  0.00    +0.155 HD
ATOM     18  C   LIG    1      -20.826  85.591  14.148  0.00  0.00    +0.220 C 
ATOM     19  O   LIG    1      -20.147  84.818  13.472  0.00  0.00    -0.275 OA
BRANCH  18  20
ATOM     20  C   LIG    1      -20.400  87.051  14.342  0.00  0.00    +0.080 C 
ATOM     21  C   LIG    1      -21.593  87.985  14.581  0.00  0.00    +0.041 C 
ATOM     22  C   LIG    1      -22.340  88.285  13.287  0.00  0.00    +0.160 C 
ATOM     23  O   LIG    1      -21.451  88.812  12.308  0.00  0.00    -0.380 OA
ATOM     24  C   LIG    1      -20.440  87.872  11.945  0.00  0.00    +0.160 C 
ATOM     25  C   LIG    1      -19.565  87.549  13.151  0.00  0.00    +0.041 C 
ENDBRANCH  18  20
ENDBRANCH  13  16
ENDBRANCH   4  10
BRANCH   1  26
ATOM     26  N   LIG    1      -19.532  77.631  15.062  0.00  0.00    -0.324 N 
ATOM     27  H   LIG    1      -19.094  77.228  14.244  0.00  0.00    +0.148 HD
BRANCH  26  28
ATOM     28  C   LIG    1      -18.641  77.939  16.159  0.00  0.00    +0.138 C 
BRANCH  28  32
ATOM     29  F   LIG    1      -17.950  73.102  16.295  0.00  0.00    -0.205 F 
ATOM     30  C   LIG    1      -17.883  74.287  16.917  0.00  0.00    +0.124 A 
ATOM     31  C   LIG    1      -18.271  75.438  16.237  0.00  0.00    +0.043 A 
ATOM     32  C   LIG    1      -18.205  76.685  16.873  0.00  0.00    -0.028 A 
ATOM     33  C   LIG    1      -17.743  76.741  18.199  0.00  0.00    +0.005 A 
ATOM     34  C   LIG    1      -17.356  75.579  18.872  0.00  0.00    +0.003 A 
ATOM     35  C   LIG    1      -17.428  74.345  18.229  0.00  0.00    +0.038 A 
ENDBRANCH  28  32
ENDBRANCH  26  28
ENDBRANCH   1  26
TORSDOF 6
ENDMDL
MODEL 7
REMARK VINA RESULT:      -6.0      4.814      7.964
REMARK  Name = pdb/CHEMBL3582432.pdb
REMARK                            x       y       z     vdW  Elec       q    Type
REMARK                         _______ _______ _______ _____ _____    ______ ____
ROOT
ATOM      1  C   LIG    1      -41.481  72.236  23.231  0.00  0.00    +0.140 A 
ATOM      2  N   LIG    1      -40.780  73.165  23.822  0.00  0.00    -0.150 NA
ATOM      3  N   LIG    1      -41.267  74.436  23.682  0.00  0.00    -0.211 N 
ATOM      4  C   LIG    1      -40.713  75.594  24.206  0.00  0.00    +0.093 A 
ATOM      5  C   LIG    1      -41.569  76.597  23.772  0.00  0.00    +0.141 A 
ATOM      6  N   LIG    1      -42.604  76.111  23.023  0.00  0.00    -0.234 NA
ATOM      7  C   LIG    1      -42.405  74.814  22.985  0.00  0.00    +0.155 A 
ATOM      8  C   LIG    1      -43.152  73.794  22.365  0.00  0.00    +0.051 A 
ATOM      9  C   LIG    1      -42.737  72.529  22.465  0.00  0.00    +0.049 A 
ENDROOT
BRANCH   4  10
ATOM     10  C   LIG    1      -39.494  75.704  25.013  0.00  0.00    +0.002 A 
ATOM     11  C   LIG    1      -38.250  76.029  24.459  0.00  0.00    +0.012 A 
ATOM     12  C   LIG    1      -37.130  76.236  25.279  0.00  0.00    +0.024 A 
ATOM     13  C   LIG    1      -37.240  76.152  26.669  0.00  0.00    +0.033 A 
ATOM     14  C   LIG    1      -38.460  75.765  27.220  0.00  0.00    +0.024 A 
ATOM     15  C   LIG    1      -39.573  75.548  26.402  0.00  0.00    +0.012 A 
BRANCH  13  16
ATOM     16  N   LIG    1      -36.114  76.498  27.448  0.00  0.00    -0.285 N 
ATOM     17  H   LIG    1      -35.429  75.768  27.586  0.00  0.00    +0.155 HD
ATOM     18  C   LIG    1      -35.751  77.784  27.817  0.00  0.00    +0.220 C 
ATOM     19  O   LIG    1      -36.362  78.810  27.515  0.00  0.00    -0.275 OA
BRANCH  18  20
ATOM     20  C   LIG    1      -34.423  77.854  28.579  0.00  0.00    +0.080 C 
ATOM     21  C   LIG    1      -33.810  79.260  28.566  0.00  0.00    +0.041 C 
ATOM     22  C   LIG    1      -33.157  79.576  27.225  0.00  0.00    +0.160 C 
ATOM     23  O   LIG    1      -32.192  78.581  26.895  0.00  0.00    -0.380 OA
ATOM     24  C   LIG    1      -32.789  77.296  26.725  0.00  0.00    +0.160 C 
ATOM     25  C   LIG    1      -33.414  76.829  28.034  0.00  0.00    +0.041 C 
ENDBRANCH  18  20
ENDBRANCH  13  16
ENDBRANCH   4  10
BRANCH   1  26
ATOM     26  N   LIG    1      -41.062  70.927  23.284  0.00  0.00    -0.324 N 
ATOM     27  H   LIG    1      -40.743  70.547  24.165  0.00  0.00    +0.148 HD
BRANCH  26  28
ATOM     28  C   LIG    1      -40.854  70.082  22.129  0.00  0.00    +0.138 C 
BRANCH  28  32
ATOM     29  F   LIG    1      -36.503  69.357  24.238  0.00  0.00    -0.205 F 
ATOM     30  C   LIG    1      -37.312  69.172  23.185  0.00  0.00    +0.124 A 
ATOM     31  C   LIG    1      -38.601  69.693  23.215  0.00  0.00    +0.043 A 
ATOM     32  C   LIG    1      -39.460  69.507  22.122  0.00  0.00    -0.028 A 
ATOM     33  C   LIG    1      -38.988  68.789  21.010  0.00  0.00    +0.005 A 
ATOM     34  C   LIG    1      -37.690  68.270  20.991  0.00  0.00    +0.003 A 
ATOM     35  C   LIG    1      -36.846  68.464  22.083  0.00  0.00    +0.038 A 
ENDBRANCH  28  32
ENDBRANCH  26  28
ENDBRANCH   1  26
TORSDOF 6
ENDMDL
MODEL 8
REMARK VINA RESULT:      -6.0      5.398      7.789
REMARK  Name = pdb/CHEMBL3582432.pdb
REMARK                            x       y       z     vdW  Elec       q    Type
REMARK                         _______ _______ _______ _____ _____    ______ ____
ROOT
ATOM      1  C   LIG    1      -42.119  73.063  22.778  0.00  0.00    +0.140 A 
ATOM      2  N   LIG    1      -41.321  73.876  23.414  0.00  0.00    -0.150 NA
ATOM      3  N   LIG    1      -41.741  75.178  23.467  0.00  0.00    -0.211 N 
ATOM      4  C   LIG    1      -41.080  76.232  24.077  0.00  0.00    +0.093 A 
ATOM      5  C   LIG    1      -41.906  77.323  23.838  0.00  0.00    +0.141 A 
ATOM      6  N   LIG    1      -43.023  76.985  23.125  0.00  0.00    -0.234 NA
ATOM      7  C   LIG    1      -42.904  75.694  22.917  0.00  0.00    +0.155 A 
ATOM      8  C   LIG    1      -43.756  74.797  22.245  0.00  0.00    +0.051 A 
ATOM      9  C   LIG    1      -43.410  73.510  22.159  0.00  0.00    +0.049 A 
ENDROOT
BRANCH   4  10
ATOM     10  C   LIG    1      -39.799  76.181  24.786  0.00  0.00    +0.002 A 
ATOM     11  C   LIG    1      -39.675  75.671  26.084  0.00  0.00    +0.012 A 
ATOM     12  C   LIG    1      -38.415  75.534  26.687  0.00  0.00    +0.024 A 
ATOM     13  C   LIG    1      -37.253  75.876  25.990  0.00  0.00    +0.033 A 
ATOM     14  C   LIG    1      -37.375  76.443  24.724  0.00  0.00    +0.024 A 
ATOM     15  C   LIG    1      -38.632  76.590  24.129  0.00  0.00    +0.012 A 
BRANCH  13  16
ATOM     16  N   LIG    1      -36.007  75.594  26.595  0.00  0.00    -0.285 N 
ATOM     17  H   LIG    1      -35.627  74.674  26.419  0.00  0.00    +0.155 HD
ATOM     18  C   LIG    1      -35.165  76.525  27.182  0.00  0.00    +0.220 C 
ATOM     19  O   LIG    1      -35.384  77.736  27.258  0.00  0.00    -0.275 OA
BRANCH  18  20
ATOM     20  C   LIG    1      -33.836  75.934  27.666  0.00  0.00    +0.080 C 
ATOM     21  C   LIG    1      -33.986  74.503  28.195  0.00  0.00    +0.041 C 
ATOM     22  C   LIG    1      -34.602  74.481  29.589  0.00  0.00    +0.160 C 
ATOM     23  O   LIG    1      -33.844  75.291  30.481  0.00  0.00    -0.380 OA
ATOM     24  C   LIG    1      -33.853  76.664  30.092  0.00  0.00    +0.160 C 
ATOM     25  C   LIG    1      -33.184  76.830  28.732  0.00  0.00    +0.041 C 
ENDBRANCH  18  20
ENDBRANCH  13  16
ENDBRANCH   4  10
BRANCH   1  26
ATOM     26  N   LIG    1      -41.776  71.738  22.639  0.00  0.00    -0.324 N 
ATOM     27  H   LIG    1      -41.899  71.289  21.741  0.00  0.00    +0.148 HD
BRANCH  26  28
ATOM     28  C   LIG    1      -41.425  70.860  23.733  0.00  0.00    +0.138 C 
BRANCH  28  32
ATOM     29  F   LIG    1      -37.313  72.539  25.775  0.00  0.00    -0.205 F 
ATOM     30  C   LIG    1      -37.910  71.668  24.949  0.00  0.00    +0.124 A 
ATOM     31  C   LIG    1      -39.292  71.715  24.791  0.00  0.00    +0.043 A 
ATOM     32  C   LIG    1      -39.931  70.810  23.931  0.00  0.00    -0.028 A 
ATOM     33  C   LIG    1      -39.148  69.868  23.243  0.00  0.00    +0.005 A 
ATOM     34  C   LIG    1      -37.761  69.831  23.409  0.00  0.00    +0.003 A 
ATOM     35  C   LIG    1      -37.138  70.737  24.265  0.00  0.00    +0.038 A 
ENDBRANCH  28  32
ENDBRANCH  26  28
ENDBRANCH   1  26
TORSDOF 6
ENDMDL
MODEL 9
REMARK VINA RESULT:      -6.0     17.006     19.148
REMARK  Name = pdb/CHEMBL3582432.pdb
REMARK                            x       y       z     vdW  Elec       q    Type
REMARK                         _______ _______ _______ _____ _____    ______ ____
ROOT
ATOM      1  C   LIG    1      -20.174  77.048  15.437  0.00  0.00    +0.140 A 
ATOM      2  N   LIG    1      -21.272  77.715  15.208  0.00  0.00    -0.150 NA
ATOM      3  N   LIG    1      -21.216  79.047  15.515  0.00  0.00    -0.211 N 
ATOM      4  C   LIG    1      -22.241  79.970  15.369  0.00  0.00    +0.093 A 
ATOM      5  C   LIG    1      -21.684  81.157  15.826  0.00  0.00    +0.141 A 
ATOM      6  N   LIG    1      -20.388  81.003  16.234  0.00  0.00    -0.234 NA
ATOM      7  C   LIG    1      -20.128  79.731  16.034  0.00  0.00    +0.155 A 
ATOM      8  C   LIG    1      -18.951  78.995  16.264  0.00  0.00    +0.051 A 
ATOM      9  C   LIG    1      -18.933  77.689  15.982  0.00  0.00    +0.049 A 
ENDROOT
BRANCH   4  10
ATOM     10  C   LIG    1      -23.593  79.718  14.863  0.00  0.00    +0.002 A 
ATOM     11  C   LIG    1      -23.942  79.900  13.519  0.00  0.00    +0.012 A 
ATOM     12  C   LIG    1      -25.215  79.540  13.051  0.00  0.00    +0.024 A 
ATOM     13  C   LIG    1      -26.152  78.962  13.911  0.00  0.00    +0.033 A 
ATOM     14  C   LIG    1      -25.832  78.838  15.262  0.00  0.00    +0.024 A 
ATOM     15  C   LIG    1      -24.567  79.208  15.730  0.00  0.00    +0.012 A 
BRANCH  13  16
ATOM     16  N   LIG    1      -27.367  78.500  13.358  0.00  0.00    -0.285 N 
ATOM     17  H   LIG    1      -28.082  79.199  13.212  0.00  0.00    +0.155 HD
ATOM     18  C   LIG    1      -27.569  77.257  12.779  0.00  0.00    +0.220 C 
ATOM     19  O   LIG    1      -26.714  76.377  12.664  0.00  0.00    -0.275 OA
BRANCH  18  20
ATOM     20  C   LIG    1      -28.967  77.079  12.176  0.00  0.00    +0.080 C 
ATOM     21  C   LIG    1      -28.994  76.042  11.046  0.00  0.00    +0.041 C 
ATOM     22  C   LIG    1      -28.413  76.604   9.754  0.00  0.00    +0.160 C 
ATOM     23  O   LIG    1      -29.090  77.800   9.382  0.00  0.00    -0.380 OA
ATOM     24  C   LIG    1      -28.915  78.834  10.349  0.00  0.00    +0.160 C 
ATOM     25  C   LIG    1      -29.533  78.420  11.680  0.00  0.00    +0.041 C 
ENDBRANCH  18  20
ENDBRANCH  13  16
ENDBRANCH   4  10
BRANCH   1  26
ATOM     26  N   LIG    1      -20.133  75.696  15.193  0.00  0.00    -0.324 N 
ATOM     27  H   LIG    1      -20.643  75.322  14.403  0.00  0.00    +0.148 HD
BRANCH  26  28
ATOM     28  C   LIG    1      -19.568  74.713  16.091  0.00  0.00    +0.138 C 
BRANCH  28  32
ATOM     29  F   LIG    1      -20.967  71.752  19.719  0.00  0.00    -0.205 F 
ATOM     30  C   LIG    1      -21.304  72.584  18.725  0.00  0.00    +0.124 A 
ATOM     31  C   LIG    1      -20.303  73.190  17.972  0.00  0.00    +0.043 A 
ATOM     32  C   LIG    1      -20.640  74.064  16.929  0.00  0.00    -0.028 A 
ATOM     33  C   LIG    1      -21.999  74.307  16.667  0.00  0.00    +0.005 A 
ATOM     34  C   LIG    1      -22.997  73.692  17.429  0.00  0.00    +0.003 A 
ATOM     35  C   LIG    1      -22.648  72.824  18.462  0.00  0.00    +0.038 A 
ENDBRANCH  28  32
ENDBRANCH  26  28
ENDBRANCH   1  26
TORSDOF 6
ENDMDL
