MODEL 1
REMARK VINA RESULT:      -6.7      0.000      0.000
REMARK  Name = pdb/CHEMBL3676093.pdb
REMARK                            x       y       z     vdW  Elec       q    Type
REMARK                         _______ _______ _______ _____ _____    ______ ____
ROOT
ATOM      1  C   LIG    1      -31.404  75.646  31.044  0.00  0.00    +0.126 A 
ATOM      2  N   LIG    1      -30.089  75.773  31.093  0.00  0.00    -0.212 NA
ATOM      3  C   LIG    1      -29.529  76.353  32.213  0.00  0.00    +0.170 A 
ATOM      4  C   LIG    1      -28.216  76.588  32.609  0.00  0.00    +0.101 A 
ATOM      5  C   LIG    1      -28.336  77.234  33.861  0.00  0.00    +0.150 A 
ATOM      6  N   LIG    1      -29.595  77.397  34.253  0.00  0.00    -0.173 NA
ATOM      7  N   LIG    1      -30.323  76.837  33.262  0.00  0.00    -0.221 N 
ATOM      8  C   LIG    1      -31.695  76.699  33.230  0.00  0.00    +0.118 A 
ATOM      9  C   LIG    1      -32.283  76.108  32.189  0.00  0.00    +0.063 A 
ENDROOT
BRANCH   1  11
ATOM     10  C   LIG    1      -33.338  75.501  29.403  0.00  0.00    +0.110 C 
ATOM     11  N   LIG    1      -32.027  75.069  29.937  0.00  0.00    -0.308 N 
ATOM     12  C   LIG    1      -31.689  73.740  29.420  0.00  0.00    +0.107 C 
ATOM     13  C   LIG    1      -33.006  73.156  28.944  0.00  0.00    +0.021 C 
ATOM     14  C   LIG    1      -33.741  74.375  28.424  0.00  0.00    +0.029 C 
BRANCH  10  19
ATOM     15  C   LIG    1      -34.564  80.343  29.380  0.00  0.00    +0.152 C 
ATOM     16  N   LIG    1      -33.907  79.215  28.741  0.00  0.00    -0.315 N 
ATOM     17  C   LIG    1      -34.014  77.954  29.340  0.00  0.00    +0.256 A 
ATOM     18  O   LIG    1      -34.678  77.736  30.351  0.00  0.00    -0.267 OA
ATOM     19  C   LIG    1      -33.268  76.825  28.679  0.00  0.00    +0.040 A 
ATOM     20  C   LIG    1      -32.624  77.077  27.523  0.00  0.00    +0.050 A 
ATOM     21  C   LIG    1      -32.640  78.384  26.928  0.00  0.00    +0.140 A 
ATOM     22  F   LIG    1      -32.027  78.561  25.741  0.00  0.00    -0.204 F 
ATOM     23  C   LIG    1      -33.251  79.402  27.538  0.00  0.00    +0.127 A 
ENDBRANCH  10  19
ENDBRANCH   1  11
BRANCH   4  24
ATOM     24  C   LIG    1      -26.954  76.276  31.955  0.00  0.00    +0.253 C 
ATOM     25  N   LIG    1      -26.044  77.309  31.924  0.00  0.00    -0.280 N 
ATOM     26  H   LIG    1      -26.331  78.165  32.400  0.00  0.00    +0.155 HD
ATOM     27  O   LIG    1      -26.753  75.139  31.520  0.00  0.00    -0.270 OA
BRANCH  25  28
ATOM     28  C   LIG    1      -24.739  77.277  31.385  0.00  0.00    +0.052 A 
ATOM     29  C   LIG    1      -23.657  77.123  32.248  0.00  0.00    +0.134 A 
ATOM     30  N   LIG    1      -22.354  77.101  31.865  0.00  0.00    -0.261 NA
ATOM     31  C   LIG    1      -22.111  77.240  30.547  0.00  0.00    +0.111 A 
ATOM     32  C   LIG    1      -23.109  77.395  29.601  0.00  0.00    +0.021 A 
ATOM     33  C   LIG    1      -24.441  77.409  30.027  0.00  0.00    +0.026 A 
ENDBRANCH  25  28
ENDBRANCH   4  24
TORSDOF 4
ENDMDL
MODEL 2
REMARK VINA RESULT:      -6.3      6.358      9.848
REMARK  Name = pdb/CHEMBL3676093.pdb
REMARK                            x       y       z     vdW  Elec       q    Type
REMARK                         _______ _______ _______ _____ _____    ______ ____
ROOT
ATOM      1  C   LIG    1      -23.234  77.147  31.549  0.00  0.00    +0.126 A 
ATOM      2  N   LIG    1      -22.235  77.690  32.224  0.00  0.00    -0.212 NA
ATOM      3  C   LIG    1      -20.957  77.559  31.718  0.00  0.00    +0.170 A 
ATOM      4  C   LIG    1      -19.716  78.036  32.130  0.00  0.00    +0.101 A 
ATOM      5  C   LIG    1      -18.808  77.525  31.174  0.00  0.00    +0.150 A 
ATOM      6  N   LIG    1      -19.391  76.797  30.227  0.00  0.00    -0.173 NA
ATOM      7  N   LIG    1      -20.704  76.839  30.543  0.00  0.00    -0.221 N 
ATOM      8  C   LIG    1      -21.738  76.280  29.821  0.00  0.00    +0.118 A 
ATOM      9  C   LIG    1      -22.996  76.413  30.245  0.00  0.00    +0.063 A 
ENDROOT
BRANCH   1  11
ATOM     10  C   LIG    1      -24.993  76.782  33.344  0.00  0.00    +0.110 C 
ATOM     11  N   LIG    1      -24.546  77.246  32.012  0.00  0.00    -0.308 N 
ATOM     12  C   LIG    1      -25.703  77.428  31.132  0.00  0.00    +0.107 C 
ATOM     13  C   LIG    1      -26.819  76.627  31.776  0.00  0.00    +0.021 C 
ATOM     14  C   LIG    1      -26.536  76.794  33.254  0.00  0.00    +0.029 C 
BRANCH  10  19
ATOM     15  C   LIG    1      -22.275  77.235  37.510  0.00  0.00    +0.152 C 
ATOM     16  N   LIG    1      -23.154  77.832  36.517  0.00  0.00    -0.315 N 
ATOM     17  C   LIG    1      -23.671  77.012  35.508  0.00  0.00    +0.256 A 
ATOM     18  O   LIG    1      -23.466  75.802  35.441  0.00  0.00    -0.267 OA
ATOM     19  C   LIG    1      -24.526  77.683  34.464  0.00  0.00    +0.040 A 
ATOM     20  C   LIG    1      -24.807  78.992  34.615  0.00  0.00    +0.050 A 
ATOM     21  C   LIG    1      -24.306  79.739  35.735  0.00  0.00    +0.140 A 
ATOM     22  F   LIG    1      -24.669  81.030  35.862  0.00  0.00    -0.204 F 
ATOM     23  C   LIG    1      -23.501  79.165  36.631  0.00  0.00    +0.127 A 
ENDBRANCH  10  19
ENDBRANCH   1  11
BRANCH   4  24
ATOM     24  C   LIG    1      -19.344  78.872  33.262  0.00  0.00    +0.253 C 
ATOM     25  N   LIG    1      -20.398  79.303  34.037  0.00  0.00    -0.280 N 
ATOM     26  H   LIG    1      -21.318  78.955  33.764  0.00  0.00    +0.155 HD
ATOM     27  O   LIG    1      -18.154  79.107  33.486  0.00  0.00    -0.270 OA
BRANCH  25  28
ATOM     28  C   LIG    1      -20.327  80.094  35.205  0.00  0.00    +0.052 A 
ATOM     29  C   LIG    1      -19.637  79.603  36.311  0.00  0.00    +0.134 A 
ATOM     30  N   LIG    1      -19.514  80.249  37.499  0.00  0.00    -0.261 NA
ATOM     31  C   LIG    1      -20.110  81.453  37.596  0.00  0.00    +0.111 A 
ATOM     32  C   LIG    1      -20.817  82.038  36.560  0.00  0.00    +0.021 A 
ATOM     33  C   LIG    1      -20.921  81.349  35.346  0.00  0.00    +0.026 A 
ENDBRANCH  25  28
ENDBRANCH   4  24
TORSDOF 4
ENDMDL
MODEL 3
REMARK VINA RESULT:      -6.2      6.676     10.621
REMARK  Name = pdb/CHEMBL3676093.pdb
REMARK                            x       y       z     vdW  Elec       q    Type
REMARK                         _______ _______ _______ _____ _____    ______ ____
ROOT
ATOM      1  C   LIG    1      -24.086  80.214  36.047  0.00  0.00    +0.126 A 
ATOM      2  N   LIG    1      -24.224  79.370  35.039  0.00  0.00    -0.212 NA
ATOM      3  C   LIG    1      -25.388  78.633  34.958  0.00  0.00    +0.170 A 
ATOM      4  C   LIG    1      -25.873  77.717  34.028  0.00  0.00    +0.101 A 
ATOM      5  C   LIG    1      -27.126  77.317  34.549  0.00  0.00    +0.150 A 
ATOM      6  N   LIG    1      -27.436  77.915  35.695  0.00  0.00    -0.173 NA
ATOM      7  N   LIG    1      -26.391  78.736  35.932  0.00  0.00    -0.221 N 
ATOM      8  C   LIG    1      -26.266  79.623  36.981  0.00  0.00    +0.118 A 
ATOM      9  C   LIG    1      -25.179  80.389  37.083  0.00  0.00    +0.063 A 
ENDROOT
BRANCH   1  11
ATOM     10  C   LIG    1      -21.646  80.469  36.705  0.00  0.00    +0.110 C 
ATOM     11  N   LIG    1      -22.931  80.984  36.182  0.00  0.00    -0.308 N 
ATOM     12  C   LIG    1      -22.934  82.449  36.219  0.00  0.00    +0.107 C 
ATOM     13  C   LIG    1      -21.839  82.821  37.202  0.00  0.00    +0.021 C 
ATOM     14  C   LIG    1      -20.806  81.738  36.972  0.00  0.00    +0.029 C 
BRANCH  10  19
ATOM     15  C   LIG    1      -19.880  75.900  35.723  0.00  0.00    +0.152 C 
ATOM     16  N   LIG    1      -20.092  77.277  35.307  0.00  0.00    -0.315 N 
ATOM     17  C   LIG    1      -20.677  78.166  36.216  0.00  0.00    +0.256 A 
ATOM     18  O   LIG    1      -20.976  77.861  37.369  0.00  0.00    -0.267 OA
ATOM     19  C   LIG    1      -20.935  79.566  35.724  0.00  0.00    +0.040 A 
ATOM     20  C   LIG    1      -20.513  79.894  34.487  0.00  0.00    +0.050 A 
ATOM     21  C   LIG    1      -19.838  78.942  33.651  0.00  0.00    +0.140 A 
ATOM     22  F   LIG    1      -19.388  79.347  32.447  0.00  0.00    -0.204 F 
ATOM     23  C   LIG    1      -19.658  77.684  34.059  0.00  0.00    +0.127 A 
ENDBRANCH  10  19
ENDBRANCH   1  11
BRANCH   4  24
ATOM     24  C   LIG    1      -25.299  77.228  32.783  0.00  0.00    +0.253 C 
ATOM     25  N   LIG    1      -23.963  77.512  32.608  0.00  0.00    -0.280 N 
ATOM     26  H   LIG    1      -23.508  77.992  33.386  0.00  0.00    +0.155 HD
ATOM     27  O   LIG    1      -25.995  76.575  32.002  0.00  0.00    -0.270 OA
BRANCH  25  28
ATOM     28  C   LIG    1      -23.149  77.135  31.517  0.00  0.00    +0.052 A 
ATOM     29  C   LIG    1      -23.529  77.511  30.231  0.00  0.00    +0.134 A 
ATOM     30  N   LIG    1      -22.853  77.193  29.097  0.00  0.00    -0.261 NA
ATOM     31  C   LIG    1      -21.733  76.460  29.248  0.00  0.00    +0.111 A 
ATOM     32  C   LIG    1      -21.260  76.036  30.478  0.00  0.00    +0.021 A 
ATOM     33  C   LIG    1      -21.978  76.383  31.628  0.00  0.00    +0.026 A 
ENDBRANCH  25  28
ENDBRANCH   4  24
TORSDOF 4
ENDMDL
MODEL 4
REMARK VINA RESULT:      -6.2      5.765     10.805
REMARK  Name = pdb/CHEMBL3676093.pdb
REMARK                            x       y       z     vdW  Elec       q    Type
REMARK                         _______ _______ _______ _____ _____    ______ ____
ROOT
ATOM      1  C   LIG    1      -20.122  78.641  33.727  0.00  0.00    +0.126 A 
ATOM      2  N   LIG    1      -21.051  78.252  32.870  0.00  0.00    -0.212 NA
ATOM      3  C   LIG    1      -20.644  77.728  31.659  0.00  0.00    +0.170 A 
ATOM      4  C   LIG    1      -21.332  77.188  30.577  0.00  0.00    +0.101 A 
ATOM      5  C   LIG    1      -20.319  76.853  29.648  0.00  0.00    +0.150 A 
ATOM      6  N   LIG    1      -19.093  77.133  30.080  0.00  0.00    -0.173 NA
ATOM      7  N   LIG    1      -19.288  77.642  31.315  0.00  0.00    -0.221 N 
ATOM      8  C   LIG    1      -18.309  78.032  32.206  0.00  0.00    +0.118 A 
ATOM      9  C   LIG    1      -18.647  78.506  33.406  0.00  0.00    +0.063 A 
ENDROOT
BRANCH   1  11
ATOM     10  C   LIG    1      -21.852  79.547  35.350  0.00  0.00    +0.110 C 
ATOM     11  N   LIG    1      -20.472  79.179  34.966  0.00  0.00    -0.308 N 
ATOM     12  C   LIG    1      -19.513  79.819  35.870  0.00  0.00    +0.107 C 
ATOM     13  C   LIG    1      -20.282  80.956  36.519  0.00  0.00    +0.021 C 
ATOM     14  C   LIG    1      -21.680  80.386  36.637  0.00  0.00    +0.029 C 
BRANCH  10  19
ATOM     15  C   LIG    1      -26.390  77.488  35.002  0.00  0.00    +0.152 C 
ATOM     16  N   LIG    1      -24.998  77.389  35.408  0.00  0.00    -0.315 N 
ATOM     17  C   LIG    1      -24.175  78.509  35.246  0.00  0.00    +0.256 A 
ATOM     18  O   LIG    1      -24.575  79.593  34.826  0.00  0.00    -0.267 OA
ATOM     19  C   LIG    1      -22.725  78.344  35.621  0.00  0.00    +0.040 A 
ATOM     20  C   LIG    1      -22.337  77.173  36.163  0.00  0.00    +0.050 A 
ATOM     21  C   LIG    1      -23.270  76.103  36.378  0.00  0.00    +0.140 A 
ATOM     22  F   LIG    1      -22.834  74.978  36.977  0.00  0.00    -0.204 F 
ATOM     23  C   LIG    1      -24.543  76.222  35.994  0.00  0.00    +0.127 A 
ENDBRANCH  10  19
ENDBRANCH   1  11
BRANCH   4  24
ATOM     24  C   LIG    1      -22.756  76.976  30.362  0.00  0.00    +0.253 C 
ATOM     25  N   LIG    1      -23.472  76.650  31.492  0.00  0.00    -0.280 N 
ATOM     26  H   LIG    1      -22.940  76.637  32.363  0.00  0.00    +0.155 HD
ATOM     27  O   LIG    1      -23.236  77.134  29.237  0.00  0.00    -0.270 OA
BRANCH  25  28
ATOM     28  C   LIG    1      -24.863  76.421  31.581  0.00  0.00    +0.052 A 
ATOM     29  C   LIG    1      -25.735  77.488  31.378  0.00  0.00    +0.134 A 
ATOM     30  N   LIG    1      -27.089  77.410  31.460  0.00  0.00    -0.261 NA
ATOM     31  C   LIG    1      -27.607  76.203  31.758  0.00  0.00    +0.111 A 
ATOM     32  C   LIG    1      -26.835  75.076  31.974  0.00  0.00    +0.021 A 
ATOM     33  C   LIG    1      -25.443  75.188  31.879  0.00  0.00    +0.026 A 
ENDBRANCH  25  28
ENDBRANCH   4  24
TORSDOF 4
ENDMDL
MODEL 5
REMARK VINA RESULT:      -6.0      6.938      9.470
REMARK  Name = pdb/CHEMBL3676093.pdb
REMARK                            x       y       z     vdW  Elec       q    Type
REMARK                         _______ _______ _______ _____ _____    ______ ____
ROOT
ATOM      1  C   LIG    1      -37.353  76.332  26.683  0.00  0.00    +0.126 A 
ATOM      2  N   LIG    1      -36.786  77.518  26.821  0.00  0.00    -0.212 NA
ATOM      3  C   LIG    1      -35.942  77.718  27.895  0.00  0.00    +0.170 A 
ATOM      4  C   LIG    1      -35.160  78.794  28.304  0.00  0.00    +0.101 A 
ATOM      5  C   LIG    1      -34.548  78.350  29.499  0.00  0.00    +0.150 A 
ATOM      6  N   LIG    1      -34.884  77.108  29.835  0.00  0.00    -0.173 NA
ATOM      7  N   LIG    1      -35.713  76.713  28.844  0.00  0.00    -0.221 N 
ATOM      8  C   LIG    1      -36.286  75.466  28.704  0.00  0.00    +0.118 A 
ATOM      9  C   LIG    1      -37.077  75.208  27.661  0.00  0.00    +0.063 A 
ENDROOT
BRANCH   1  11
ATOM     10  C   LIG    1      -39.586  76.621  25.507  0.00  0.00    +0.110 C 
ATOM     11  N   LIG    1      -38.216  76.071  25.618  0.00  0.00    -0.308 N 
ATOM     12  C   LIG    1      -38.058  74.936  24.706  0.00  0.00    +0.107 C 
ATOM     13  C   LIG    1      -39.472  74.492  24.380  0.00  0.00    +0.021 C 
ATOM     14  C   LIG    1      -40.236  75.800  24.371  0.00  0.00    +0.029 C 
BRANCH  10  19
ATOM     15  C   LIG    1      -39.955  81.316  27.173  0.00  0.00    +0.152 C 
ATOM     16  N   LIG    1      -39.784  80.390  26.065  0.00  0.00    -0.315 N 
ATOM     17  C   LIG    1      -39.843  79.017  26.329  0.00  0.00    +0.256 A 
ATOM     18  O   LIG    1      -40.084  78.548  27.439  0.00  0.00    -0.267 OA
ATOM     19  C   LIG    1      -39.600  78.093  25.165  0.00  0.00    +0.040 A 
ATOM     20  C   LIG    1      -39.429  78.637  23.944  0.00  0.00    +0.050 A 
ATOM     21  C   LIG    1      -39.473  80.059  23.747  0.00  0.00    +0.140 A 
ATOM     22  F   LIG    1      -39.353  80.540  22.494  0.00  0.00    -0.204 F 
ATOM     23  C   LIG    1      -39.630  80.885  24.783  0.00  0.00    +0.127 A 
ENDBRANCH  10  19
ENDBRANCH   1  11
BRANCH   4  24
ATOM     24  C   LIG    1      -34.955  80.105  27.707  0.00  0.00    +0.253 C 
ATOM     25  N   LIG    1      -35.911  81.044  28.025  0.00  0.00    -0.280 N 
ATOM     26  H   LIG    1      -36.632  80.737  28.679  0.00  0.00    +0.155 HD
ATOM     27  O   LIG    1      -33.958  80.314  27.012  0.00  0.00    -0.270 OA
BRANCH  25  28
ATOM     28  C   LIG    1      -35.946  82.395  27.614  0.00  0.00    +0.052 A 
ATOM     29  C   LIG    1      -35.589  83.386  28.525  0.00  0.00    +0.134 A 
ATOM     30  N   LIG    1      -35.603  84.719  28.268  0.00  0.00    -0.261 NA
ATOM     31  C   LIG    1      -35.992  85.091  27.033  0.00  0.00    +0.111 A 
ATOM     32  C   LIG    1      -36.364  84.192  26.049  0.00  0.00    +0.021 A 
ATOM     33  C   LIG    1      -36.335  82.825  26.344  0.00  0.00    +0.026 A 
ENDBRANCH  25  28
ENDBRANCH   4  24
TORSDOF 4
ENDMDL
MODEL 6
REMARK VINA RESULT:      -6.0      6.758     10.976
REMARK  Name = pdb/CHEMBL3676093.pdb
REMARK                            x       y       z     vdW  Elec       q    Type
REMARK                         _______ _______ _______ _____ _____    ______ ____
ROOT
ATOM      1  C   LIG    1      -20.778  77.845  32.697  0.00  0.00    +0.126 A 
ATOM      2  N   LIG    1      -22.097  77.765  32.733  0.00  0.00    -0.212 NA
ATOM      3  C   LIG    1      -22.775  77.590  31.543  0.00  0.00    +0.170 A 
ATOM      4  C   LIG    1      -24.120  77.419  31.230  0.00  0.00    +0.101 A 
ATOM      5  C   LIG    1      -24.141  77.312  29.820  0.00  0.00    +0.150 A 
ATOM      6  N   LIG    1      -22.936  77.393  29.265  0.00  0.00    -0.173 NA
ATOM      7  N   LIG    1      -22.100  77.537  30.316  0.00  0.00    -0.221 N 
ATOM      8  C   LIG    1      -20.723  77.605  30.265  0.00  0.00    +0.118 A 
ATOM      9  C   LIG    1      -20.018  77.732  31.390  0.00  0.00    +0.063 A 
ENDROOT
BRANCH   1  11
ATOM     10  C   LIG    1      -20.049  79.263  34.673  0.00  0.00    +0.110 C 
ATOM     11  N   LIG    1      -20.039  78.023  33.867  0.00  0.00    -0.308 N 
ATOM     12  C   LIG    1      -18.879  77.203  34.224  0.00  0.00    +0.107 C 
ATOM     13  C   LIG    1      -17.920  78.157  34.913  0.00  0.00    +0.021 C 
ATOM     14  C   LIG    1      -18.855  79.099  35.641  0.00  0.00    +0.029 C 
BRANCH  10  19
ATOM     15  C   LIG    1      -23.481  82.444  36.423  0.00  0.00    +0.152 C 
ATOM     16  N   LIG    1      -22.994  81.081  36.279  0.00  0.00    -0.315 N 
ATOM     17  C   LIG    1      -21.770  80.876  35.634  0.00  0.00    +0.256 A 
ATOM     18  O   LIG    1      -21.054  81.788  35.227  0.00  0.00    -0.267 OA
ATOM     19  C   LIG    1      -21.333  79.446  35.450  0.00  0.00    +0.040 A 
ATOM     20  C   LIG    1      -22.094  78.473  35.987  0.00  0.00    +0.050 A 
ATOM     21  C   LIG    1      -23.294  78.779  36.715  0.00  0.00    +0.140 A 
ATOM     22  F   LIG    1      -23.982  77.767  37.278  0.00  0.00    -0.204 F 
ATOM     23  C   LIG    1      -23.717  80.040  36.831  0.00  0.00    +0.127 A 
ENDBRANCH  10  19
ENDBRANCH   1  11
BRANCH   4  24
ATOM     24  C   LIG    1      -25.296  77.350  32.084  0.00  0.00    +0.253 C 
ATOM     25  N   LIG    1      -25.036  77.097  33.412  0.00  0.00    -0.280 N 
ATOM     26  H   LIG    1      -24.049  77.031  33.664  0.00  0.00    +0.155 HD
ATOM     27  O   LIG    1      -26.414  77.556  31.605  0.00  0.00    -0.270 OA
BRANCH  25  28
ATOM     28  C   LIG    1      -25.978  77.009  34.461  0.00  0.00    +0.052 A 
ATOM     29  C   LIG    1      -26.429  75.752  34.858  0.00  0.00    +0.134 A 
ATOM     30  N   LIG    1      -27.348  75.528  35.832  0.00  0.00    -0.261 NA
ATOM     31  C   LIG    1      -27.848  76.616  36.451  0.00  0.00    +0.111 A 
ATOM     32  C   LIG    1      -27.469  77.910  36.141  0.00  0.00    +0.021 A 
ATOM     33  C   LIG    1      -26.516  78.107  35.134  0.00  0.00    +0.026 A 
ENDBRANCH  25  28
ENDBRANCH   4  24
TORSDOF 4
ENDMDL
MODEL 7
REMARK VINA RESULT:      -6.0      6.810     10.447
REMARK  Name = pdb/CHEMBL3676093.pdb
REMARK                            x       y       z     vdW  Elec       q    Type
REMARK                         _______ _______ _______ _____ _____    ______ ____
ROOT
ATOM      1  C   LIG    1      -37.367  71.150  25.177  0.00  0.00    +0.126 A 
ATOM      2  N   LIG    1      -37.154  72.438  25.385  0.00  0.00    -0.212 NA
ATOM      3  C   LIG    1      -38.116  73.335  24.968  0.00  0.00    +0.170 A 
ATOM      4  C   LIG    1      -38.238  74.718  25.072  0.00  0.00    +0.101 A 
ATOM      5  C   LIG    1      -39.458  75.013  24.421  0.00  0.00    +0.150 A 
ATOM      6  N   LIG    1      -40.079  73.937  23.949  0.00  0.00    -0.173 NA
ATOM      7  N   LIG    1      -39.275  72.912  24.304  0.00  0.00    -0.221 N 
ATOM      8  C   LIG    1      -39.517  71.570  24.093  0.00  0.00    +0.118 A 
ATOM      9  C   LIG    1      -38.638  70.659  24.513  0.00  0.00    +0.063 A 
ENDROOT
BRANCH   1  11
ATOM     10  C   LIG    1      -35.216  70.504  26.363  0.00  0.00    +0.110 C 
ATOM     11  N   LIG    1      -36.429  70.196  25.575  0.00  0.00    -0.308 N 
ATOM     12  C   LIG    1      -36.295  68.880  24.944  0.00  0.00    +0.107 C 
ATOM     13  C   LIG    1      -34.807  68.585  24.961  0.00  0.00    +0.021 C 
ATOM     14  C   LIG    1      -34.357  69.223  26.259  0.00  0.00    +0.029 C 
BRANCH  10  19
ATOM     15  C   LIG    1      -34.577  73.622  30.213  0.00  0.00    +0.152 C 
ATOM     16  N   LIG    1      -35.164  72.409  29.669  0.00  0.00    -0.315 N 
ATOM     17  C   LIG    1      -34.843  72.044  28.356  0.00  0.00    +0.256 A 
ATOM     18  O   LIG    1      -34.050  72.665  27.652  0.00  0.00    -0.267 OA
ATOM     19  C   LIG    1      -35.521  70.815  27.810  0.00  0.00    +0.040 A 
ATOM     20  C   LIG    1      -36.314  70.105  28.636  0.00  0.00    +0.050 A 
ATOM     21  C   LIG    1      -36.518  70.502  30.001  0.00  0.00    +0.140 A 
ATOM     22  F   LIG    1      -37.276  69.720  30.794  0.00  0.00    -0.204 F 
ATOM     23  C   LIG    1      -35.967  71.622  30.474  0.00  0.00    +0.127 A 
ENDBRANCH  10  19
ENDBRANCH   1  11
BRANCH   4  24
ATOM     24  C   LIG    1      -37.367  75.707  25.689  0.00  0.00    +0.253 C 
ATOM     25  N   LIG    1      -36.653  75.256  26.776  0.00  0.00    -0.280 N 
ATOM     26  H   LIG    1      -36.774  74.268  27.005  0.00  0.00    +0.155 HD
ATOM     27  O   LIG    1      -37.283  76.838  25.203  0.00  0.00    -0.270 OA
BRANCH  25  28
ATOM     28  C   LIG    1      -35.717  75.986  27.542  0.00  0.00    +0.052 A 
ATOM     29  C   LIG    1      -36.156  76.658  28.680  0.00  0.00    +0.134 A 
ATOM     30  N   LIG    1      -35.369  77.415  29.488  0.00  0.00    -0.261 NA
ATOM     31  C   LIG    1      -34.069  77.508  29.147  0.00  0.00    +0.111 A 
ATOM     32  C   LIG    1      -33.524  76.879  28.041  0.00  0.00    +0.021 A 
ATOM     33  C   LIG    1      -34.362  76.104  27.231  0.00  0.00    +0.026 A 
ENDBRANCH  25  28
ENDBRANCH   4  24
TORSDOF 4
ENDMDL
MODEL 8
REMARK VINA RESULT:      -6.0      7.541     11.391
REMARK  Name = pdb/CHEMBL3676093.pdb
REMARK                            x       y       z     vdW  Elec       q    Type
REMARK                         _______ _______ _______ _____ _____    ______ ____
ROOT
ATOM      1  C   LIG    1      -38.077  72.212  24.937  0.00  0.00    +0.126 A 
ATOM      2  N   LIG    1      -37.542  73.322  25.415  0.00  0.00    -0.212 NA
ATOM      3  C   LIG    1      -38.199  74.515  25.188  0.00  0.00    +0.170 A 
ATOM      4  C   LIG    1      -37.953  75.828  25.580  0.00  0.00    +0.101 A 
ATOM      5  C   LIG    1      -39.003  76.572  24.995  0.00  0.00    +0.150 A 
ATOM      6  N   LIG    1      -39.856  75.826  24.300  0.00  0.00    -0.173 NA
ATOM      7  N   LIG    1      -39.382  74.570  24.438  0.00  0.00    -0.221 N 
ATOM      8  C   LIG    1      -39.958  73.417  23.946  0.00  0.00    +0.118 A 
ATOM      9  C   LIG    1      -39.386  72.234  24.173  0.00  0.00    +0.063 A 
ENDROOT
BRANCH   1  11
ATOM     10  C   LIG    1      -38.151  69.675  25.024  0.00  0.00    +0.110 C 
ATOM     11  N   LIG    1      -37.458  70.977  25.134  0.00  0.00    -0.308 N 
ATOM     12  C   LIG    1      -36.193  70.812  25.855  0.00  0.00    +0.107 C 
ATOM     13  C   LIG    1      -36.332  69.497  26.598  0.00  0.00    +0.021 C 
ATOM     14  C   LIG    1      -37.161  68.662  25.644  0.00  0.00    +0.029 C 
BRANCH  10  19
ATOM     15  C   LIG    1      -41.571  68.069  21.757  0.00  0.00    +0.152 C 
ATOM     16  N   LIG    1      -40.212  68.504  22.035  0.00  0.00    -0.315 N 
ATOM     17  C   LIG    1      -39.862  68.789  23.359  0.00  0.00    +0.256 A 
ATOM     18  O   LIG    1      -40.625  68.643  24.311  0.00  0.00    -0.267 OA
ATOM     19  C   LIG    1      -38.462  69.295  23.595  0.00  0.00    +0.040 A 
ATOM     20  C   LIG    1      -37.622  69.358  22.544  0.00  0.00    +0.050 A 
ATOM     21  C   LIG    1      -38.038  68.958  21.229  0.00  0.00    +0.140 A 
ATOM     22  F   LIG    1      -37.136  68.989  20.230  0.00  0.00    -0.204 F 
ATOM     23  C   LIG    1      -39.293  68.564  21.003  0.00  0.00    +0.127 A 
ENDBRANCH  10  19
ENDBRANCH   1  11
BRANCH   4  24
ATOM     24  C   LIG    1      -36.893  76.394  26.400  0.00  0.00    +0.253 C 
ATOM     25  N   LIG    1      -35.950  75.491  26.837  0.00  0.00    -0.280 N 
ATOM     26  H   LIG    1      -36.068  74.533  26.504  0.00  0.00    +0.155 HD
ATOM     27  O   LIG    1      -36.868  77.608  26.617  0.00  0.00    -0.270 OA
BRANCH  25  28
ATOM     28  C   LIG    1      -34.805  75.767  27.616  0.00  0.00    +0.052 A 
ATOM     29  C   LIG    1      -34.745  75.285  28.922  0.00  0.00    +0.134 A 
ATOM     30  N   LIG    1      -33.717  75.498  29.783  0.00  0.00    -0.261 NA
ATOM     31  C   LIG    1      -32.687  76.232  29.321  0.00  0.00    +0.111 A 
ATOM     32  C   LIG    1      -32.638  76.756  28.041  0.00  0.00    +0.021 A 
ATOM     33  C   LIG    1      -33.712  76.515  27.177  0.00  0.00    +0.026 A 
ENDBRANCH  25  28
ENDBRANCH   4  24
TORSDOF 4
ENDMDL
MODEL 9
REMARK VINA RESULT:      -5.9      7.333     11.711
REMARK  Name = pdb/CHEMBL3676093.pdb
REMARK                            x       y       z     vdW  Elec       q    Type
REMARK                         _______ _______ _______ _____ _____    ______ ____
ROOT
ATOM      1  C   LIG    1      -20.563  77.155  31.219  0.00  0.00    +0.126 A 
ATOM      2  N   LIG    1      -21.534  77.664  31.958  0.00  0.00    -0.212 NA
ATOM      3  C   LIG    1      -22.829  77.573  31.488  0.00  0.00    +0.170 A 
ATOM      4  C   LIG    1      -24.062  77.944  32.017  0.00  0.00    +0.101 A 
ATOM      5  C   LIG    1      -24.996  77.585  31.016  0.00  0.00    +0.150 A 
ATOM      6  N   LIG    1      -24.436  77.027  29.947  0.00  0.00    -0.173 NA
ATOM      7  N   LIG    1      -23.120  76.995  30.245  0.00  0.00    -0.221 N 
ATOM      8  C   LIG    1      -22.117  76.448  29.470  0.00  0.00    +0.118 A 
ATOM      9  C   LIG    1      -20.854  76.472  29.897  0.00  0.00    +0.063 A 
ENDROOT
BRANCH   1  11
ATOM     10  C   LIG    1      -18.762  78.051  32.769  0.00  0.00    +0.110 C 
ATOM     11  N   LIG    1      -19.235  77.219  31.641  0.00  0.00    -0.308 N 
ATOM     12  C   LIG    1      -18.100  76.816  30.806  0.00  0.00    +0.107 C 
ATOM     13  C   LIG    1      -16.990  77.790  31.154  0.00  0.00    +0.021 C 
ATOM     14  C   LIG    1      -17.223  78.045  32.629  0.00  0.00    +0.029 C 
BRANCH  10  19
ATOM     15  C   LIG    1      -20.871  78.936  37.210  0.00  0.00    +0.152 C 
ATOM     16  N   LIG    1      -20.230  78.010  36.290  0.00  0.00    -0.315 N 
ATOM     17  C   LIG    1      -19.769  78.502  35.064  0.00  0.00    +0.256 A 
ATOM     18  O   LIG    1      -19.828  79.685  34.739  0.00  0.00    -0.267 OA
ATOM     19  C   LIG    1      -19.168  77.497  34.115  0.00  0.00    +0.040 A 
ATOM     20  C   LIG    1      -19.034  76.224  34.536  0.00  0.00    +0.050 A 
ATOM     21  C   LIG    1      -19.454  75.823  35.850  0.00  0.00    +0.140 A 
ATOM     22  F   LIG    1      -19.241  74.550  36.234  0.00  0.00    -0.204 F 
ATOM     23  C   LIG    1      -20.040  76.695  36.673  0.00  0.00    +0.127 A 
ENDBRANCH  10  19
ENDBRANCH   1  11
BRANCH   4  24
ATOM     24  C   LIG    1      -24.407  78.559  33.290  0.00  0.00    +0.253 C 
ATOM     25  N   LIG    1      -23.461  79.423  33.793  0.00  0.00    -0.280 N 
ATOM     26  H   LIG    1      -22.643  79.576  33.201  0.00  0.00    +0.155 HD
ATOM     27  O   LIG    1      -25.500  78.320  33.810  0.00  0.00    -0.270 OA
BRANCH  25  28
ATOM     28  C   LIG    1      -23.545  80.176  34.985  0.00  0.00    +0.052 A 
ATOM     29  C   LIG    1      -22.802  81.349  35.095  0.00  0.00    +0.134 A 
ATOM     30  N   LIG    1      -22.773  82.150  36.191  0.00  0.00    -0.261 NA
ATOM     31  C   LIG    1      -23.527  81.766  37.239  0.00  0.00    +0.111 A 
ATOM     32  C   LIG    1      -24.307  80.623  37.238  0.00  0.00    +0.021 A 
ATOM     33  C   LIG    1      -24.318  79.820  36.091  0.00  0.00    +0.026 A 
ENDBRANCH  25  28
ENDBRANCH   4  24
TORSDOF 4
ENDMDL
