MODEL 1
REMARK VINA RESULT:      -6.9      0.000      0.000
REMARK  Name = pdb/CHEMBL3976441.pdb
REMARK                            x       y       z     vdW  Elec       q    Type
REMARK                         _______ _______ _______ _____ _____    ______ ____
ROOT
ATOM      1  C   LIG    1      -34.052  66.330  20.166  0.00  0.00    +0.323 A 
ATOM      2  N   LIG    1      -35.320  66.422  19.757  0.00  0.00    -0.201 NA
ATOM      3  C   LIG    1      -36.207  66.857  20.693  0.00  0.00    +0.145 A 
ATOM      4  C   LIG    1      -35.904  67.153  22.014  0.00  0.00    +0.105 A 
ATOM      5  C   LIG    1      -34.564  67.064  22.285  0.00  0.00    +0.145 A 
ATOM      6  N   LIG    1      -33.637  66.657  21.400  0.00  0.00    -0.201 NA
ENDROOT
BRANCH   4   7
ATOM      7  N   LIG    1      -36.797  67.527  23.036  0.00  0.00    -0.196 NA
ATOM      8  C   LIG    1      -37.262  68.729  23.087  0.00  0.00    +0.285 C 
BRANCH   8   9
ATOM      9  N   LIG    1      -38.175  69.186  23.983  0.00  0.00    -0.267 N 
ATOM     10  H   LIG    1      -38.612  68.488  24.588  0.00  0.00    +0.157 HD
BRANCH   9  11
ATOM     11  C   LIG    1      -38.706  70.485  24.088  0.00  0.00    +0.060 A 
ATOM     12  C   LIG    1      -39.939  70.851  23.503  0.00  0.00    +0.087 A 
ATOM     13  C   LIG    1      -40.370  72.190  23.582  0.00  0.00    +0.042 A 
ATOM     14  C   LIG    1      -39.601  73.175  24.225  0.00  0.00    +0.057 A 
ATOM     15  C   LIG    1      -38.385  72.809  24.802  0.00  0.00    +0.014 A 
ATOM     16  C   LIG    1      -37.950  71.486  24.734  0.00  0.00    +0.026 A 
BRANCH  12  17
ATOM     17  N   LIG    1      -40.759  69.899  22.821  0.00  0.00    -0.238 N 
ATOM     18  N   LIG    1      -41.262  68.804  23.460  0.00  0.00    -0.175 NA
ATOM     19  C   LIG    1      -41.957  68.152  22.525  0.00  0.00    +0.135 A 
ATOM     20  C   LIG    1      -41.936  68.806  21.287  0.00  0.00    +0.041 A 
ATOM     21  C   LIG    1      -41.162  69.921  21.500  0.00  0.00    +0.114 A 
ENDBRANCH  12  17
BRANCH  14  22
ATOM     22  C   LIG    1      -40.104  74.597  24.287  0.00  0.00    +0.417 C 
ATOM     23  F   LIG    1      -39.088  75.501  24.232  0.00  0.00    -0.166 F 
ATOM     24  F   LIG    1      -40.771  74.853  25.446  0.00  0.00    -0.166 F 
ATOM     25  F   LIG    1      -40.958  74.923  23.280  0.00  0.00    -0.166 F 
ENDBRANCH  14  22
ENDBRANCH   9  11
ENDBRANCH   8   9
BRANCH   8  26
ATOM     26  O   LIG    1      -36.920  69.656  22.172  0.00  0.00    -0.481 OA
ATOM     27  H   LIG    1      -35.954  69.673  22.070  0.00  0.00    +0.295 HD
ENDBRANCH   8  26
ENDBRANCH   4   7
BRANCH   1  28
ATOM     28  O   LIG    1      -33.153  65.785  19.244  0.00  0.00    -0.424 OA
BRANCH  28  32
ATOM     29  C   LIG    1      -29.577  67.939  18.608  0.00  0.00    -0.014 A 
ATOM     30  C   LIG    1      -30.835  68.419  18.198  0.00  0.00    +0.012 A 
ATOM     31  C   LIG    1      -32.010  67.676  18.411  0.00  0.00    +0.047 A 
ATOM     32  C   LIG    1      -31.953  66.413  19.000  0.00  0.00    +0.132 A 
ATOM     33  C   LIG    1      -30.699  65.879  19.268  0.00  0.00    +0.047 A 
ATOM     34  C   LIG    1      -29.548  66.648  19.147  0.00  0.00    +0.012 A 
BRANCH  29  36
ATOM     35  C   LIG    1      -27.920  69.768  19.285  0.00  0.00    +0.124 A 
ATOM     36  C   LIG    1      -28.315  68.703  18.455  0.00  0.00    +0.023 A 
ATOM     37  C   LIG    1      -27.408  68.356  17.428  0.00  0.00    +0.033 A 
ATOM     38  C   LIG    1      -26.216  69.045  17.262  0.00  0.00    +0.060 A 
ATOM     39 CL   LIG    1      -25.108  68.601  16.027  0.00  0.00    -0.082 Cl
ATOM     40  C   LIG    1      -25.953  70.091  18.120  0.00  0.00    +0.133 A 
ATOM     41  N   LIG    1      -26.780  70.465  19.120  0.00  0.00    -0.239 NA
BRANCH  35  42
ATOM     42  N   LIG    1      -28.656  70.200  20.384  0.00  0.00    -0.343 N 
ATOM     43  H   LIG    1      -28.037  70.579  21.092  0.00  0.00    +0.144 HD
ATOM     44  H   LIG    1      -29.291  70.908  20.023  0.00  0.00    +0.144 HD
ENDBRANCH  35  42
ENDBRANCH  29  36
ENDBRANCH  28  32
ENDBRANCH   1  28
TORSDOF 10
ENDMDL
MODEL 2
REMARK VINA RESULT:      -6.8      1.919      2.615
REMARK  Name = pdb/CHEMBL3976441.pdb
REMARK                            x       y       z     vdW  Elec       q    Type
REMARK                         _______ _______ _______ _____ _____    ______ ____
ROOT
ATOM      1  C   LIG    1      -36.798  67.038  19.727  0.00  0.00    +0.323 A 
ATOM      2  N   LIG    1      -37.071  66.294  20.802  0.00  0.00    -0.201 NA
ATOM      3  C   LIG    1      -37.789  66.916  21.778  0.00  0.00    +0.145 A 
ATOM      4  C   LIG    1      -38.199  68.241  21.755  0.00  0.00    +0.105 A 
ATOM      5  C   LIG    1      -37.898  68.872  20.576  0.00  0.00    +0.145 A 
ATOM      6  N   LIG    1      -37.206  68.307  19.570  0.00  0.00    -0.201 NA
ENDROOT
BRANCH   4   7
ATOM      7  N   LIG    1      -38.871  68.948  22.770  0.00  0.00    -0.196 NA
ATOM      8  C   LIG    1      -38.216  69.715  23.573  0.00  0.00    +0.285 C 
BRANCH   8   9
ATOM      9  N   LIG    1      -38.761  70.493  24.544  0.00  0.00    -0.267 N 
ATOM     10  H   LIG    1      -38.994  70.030  25.425  0.00  0.00    +0.157 HD
BRANCH   9  11
ATOM     11  C   LIG    1      -39.184  71.832  24.442  0.00  0.00    +0.060 A 
ATOM     12  C   LIG    1      -40.423  72.196  23.870  0.00  0.00    +0.087 A 
ATOM     13  C   LIG    1      -40.744  73.561  23.730  0.00  0.00    +0.042 A 
ATOM     14  C   LIG    1      -39.859  74.572  24.141  0.00  0.00    +0.057 A 
ATOM     15  C   LIG    1      -38.637  74.208  24.706  0.00  0.00    +0.014 A 
ATOM     16  C   LIG    1      -38.310  72.860  24.854  0.00  0.00    +0.026 A 
BRANCH  12  17
ATOM     17  N   LIG    1      -41.360  71.215  23.418  0.00  0.00    -0.238 N 
ATOM     18  N   LIG    1      -41.891  70.291  24.269  0.00  0.00    -0.175 NA
ATOM     19  C   LIG    1      -42.699  69.551  23.508  0.00  0.00    +0.135 A 
ATOM     20  C   LIG    1      -42.725  69.981  22.176  0.00  0.00    +0.041 A 
ATOM     21  C   LIG    1      -41.858  71.046  22.141  0.00  0.00    +0.114 A 
ENDBRANCH  12  17
BRANCH  14  22
ATOM     22  C   LIG    1      -40.246  76.022  23.973  0.00  0.00    +0.417 C 
ATOM     23  F   LIG    1      -41.132  76.200  22.955  0.00  0.00    -0.166 F 
ATOM     24  F   LIG    1      -39.173  76.806  23.679  0.00  0.00    -0.166 F 
ATOM     25  F   LIG    1      -40.822  76.569  25.078  0.00  0.00    -0.166 F 
ENDBRANCH  14  22
ENDBRANCH   9  11
ENDBRANCH   8   9
BRANCH   8  26
ATOM     26  O   LIG    1      -36.883  69.871  23.467  0.00  0.00    -0.481 OA
ATOM     27  H   LIG    1      -36.471  69.764  24.340  0.00  0.00    +0.295 HD
ENDBRANCH   8  26
ENDBRANCH   4   7
BRANCH   1  28
ATOM     28  O   LIG    1      -35.974  66.442  18.769  0.00  0.00    -0.424 OA
BRANCH  28  32
ATOM     29  C   LIG    1      -31.934  67.651  18.541  0.00  0.00    -0.014 A 
ATOM     30  C   LIG    1      -32.835  67.810  17.473  0.00  0.00    +0.012 A 
ATOM     31  C   LIG    1      -34.173  67.387  17.569  0.00  0.00    +0.047 A 
ATOM     32  C   LIG    1      -34.634  66.754  18.723  0.00  0.00    +0.132 A 
ATOM     33  C   LIG    1      -33.708  66.465  19.717  0.00  0.00    +0.047 A 
ATOM     34  C   LIG    1      -32.413  66.965  19.664  0.00  0.00    +0.012 A 
BRANCH  29  36
ATOM     35  C   LIG    1      -29.404  67.286  18.432  0.00  0.00    +0.124 A 
ATOM     36  C   LIG    1      -30.529  68.125  18.512  0.00  0.00    +0.023 A 
ATOM     37  C   LIG    1      -30.259  69.513  18.546  0.00  0.00    +0.033 A 
ATOM     38  C   LIG    1      -28.957  69.990  18.512  0.00  0.00    +0.060 A 
ATOM     39 CL   LIG    1      -28.639  71.678  18.528  0.00  0.00    -0.082 Cl
ATOM     40  C   LIG    1      -27.935  69.067  18.463  0.00  0.00    +0.133 A 
ATOM     41  N   LIG    1      -28.133  67.732  18.426  0.00  0.00    -0.239 NA
BRANCH  35  42
ATOM     42  N   LIG    1      -29.484  65.901  18.323  0.00  0.00    -0.343 N 
ATOM     43  H   LIG    1      -30.054  65.645  17.523  0.00  0.00    +0.144 HD
ATOM     44  H   LIG    1      -28.524  65.582  18.215  0.00  0.00    +0.144 HD
ENDBRANCH  35  42
ENDBRANCH  29  36
ENDBRANCH  28  32
ENDBRANCH   1  28
TORSDOF 10
ENDMDL
MODEL 3
REMARK VINA RESULT:      -6.7      1.839      3.332
REMARK  Name = pdb/CHEMBL3976441.pdb
REMARK                            x       y       z     vdW  Elec       q    Type
REMARK                         _______ _______ _______ _____ _____    ______ ____
ROOT
ATOM      1  C   LIG    1      -36.282  66.647  19.528  0.00  0.00    +0.323 A 
ATOM      2  N   LIG    1      -36.279  65.958  20.672  0.00  0.00    -0.201 NA
ATOM      3  C   LIG    1      -37.069  66.460  21.661  0.00  0.00    +0.145 A 
ATOM      4  C   LIG    1      -37.812  67.629  21.581  0.00  0.00    +0.105 A 
ATOM      5  C   LIG    1      -37.764  68.208  20.340  0.00  0.00    +0.145 A 
ATOM      6  N   LIG    1      -37.017  67.750  19.319  0.00  0.00    -0.201 NA
ENDROOT
BRANCH   4   7
ATOM      7  N   LIG    1      -38.577  68.230  22.599  0.00  0.00    -0.196 NA
ATOM      8  C   LIG    1      -38.092  69.206  23.288  0.00  0.00    +0.285 C 
BRANCH   8   9
ATOM      9  N   LIG    1      -38.756  69.904  24.247  0.00  0.00    -0.267 N 
ATOM     10  H   LIG    1      -39.263  69.355  24.945  0.00  0.00    +0.157 HD
BRANCH   9  11
ATOM     11  C   LIG    1      -38.960  71.294  24.318  0.00  0.00    +0.060 A 
ATOM     12  C   LIG    1      -38.156  72.140  25.115  0.00  0.00    +0.087 A 
ATOM     13  C   LIG    1      -38.468  73.512  25.199  0.00  0.00    +0.042 A 
ATOM     14  C   LIG    1      -39.565  74.060  24.513  0.00  0.00    +0.057 A 
ATOM     15  C   LIG    1      -40.355  73.222  23.727  0.00  0.00    +0.014 A 
ATOM     16  C   LIG    1      -40.053  71.864  23.633  0.00  0.00    +0.026 A 
BRANCH  12  17
ATOM     17  N   LIG    1      -37.036  71.639  25.849  0.00  0.00    -0.238 N 
ATOM     18  N   LIG    1      -35.914  71.189  25.219  0.00  0.00    -0.175 NA
ATOM     19  C   LIG    1      -35.102  70.798  26.204  0.00  0.00    +0.135 A 
ATOM     20  C   LIG    1      -35.661  70.999  27.472  0.00  0.00    +0.041 A 
ATOM     21  C   LIG    1      -36.901  71.535  27.220  0.00  0.00    +0.114 A 
ENDBRANCH  12  17
BRANCH  14  22
ATOM     22  C   LIG    1      -39.861  75.536  24.631  0.00  0.00    +0.417 C 
ATOM     23  F   LIG    1      -40.640  75.985  23.609  0.00  0.00    -0.166 F 
ATOM     24  F   LIG    1      -38.728  76.289  24.596  0.00  0.00    -0.166 F 
ATOM     25  F   LIG    1      -40.507  75.878  25.778  0.00  0.00    -0.166 F 
ENDBRANCH  14  22
ENDBRANCH   9  11
ENDBRANCH   8   9
BRANCH   8  26
ATOM     26  O   LIG    1      -36.855  69.685  23.058  0.00  0.00    -0.481 OA
ATOM     27  H   LIG    1      -36.773  69.942  22.125  0.00  0.00    +0.295 HD
ENDBRANCH   8  26
ENDBRANCH   4   7
BRANCH   1  28
ATOM     28  O   LIG    1      -35.395  66.197  18.546  0.00  0.00    -0.424 OA
BRANCH  28  32
ATOM     29  C   LIG    1      -31.596  68.023  18.294  0.00  0.00    -0.014 A 
ATOM     30  C   LIG    1      -32.574  68.167  17.294  0.00  0.00    +0.012 A 
ATOM     31  C   LIG    1      -33.828  67.537  17.395  0.00  0.00    +0.047 A 
ATOM     32  C   LIG    1      -34.121  66.712  18.481  0.00  0.00    +0.132 A 
ATOM     33  C   LIG    1      -33.103  66.454  19.391  0.00  0.00    +0.047 A 
ATOM     34  C   LIG    1      -31.900  67.148  19.343  0.00  0.00    +0.012 A 
BRANCH  29  36
ATOM     35  C   LIG    1      -30.101  70.099  18.315  0.00  0.00    +0.124 A 
ATOM     36  C   LIG    1      -30.280  68.706  18.263  0.00  0.00    +0.023 A 
ATOM     37  C   LIG    1      -29.095  67.936  18.194  0.00  0.00    +0.033 A 
ATOM     38  C   LIG    1      -27.848  68.543  18.170  0.00  0.00    +0.060 A 
ATOM     39 CL   LIG    1      -26.413  67.599  18.112  0.00  0.00    -0.082 Cl
ATOM     40  C   LIG    1      -27.801  69.919  18.196  0.00  0.00    +0.133 A 
ATOM     41  N   LIG    1      -28.898  70.705  18.264  0.00  0.00    -0.239 NA
BRANCH  35  42
ATOM     42  N   LIG    1      -31.149  71.005  18.451  0.00  0.00    -0.343 N 
ATOM     43  H   LIG    1      -32.032  70.510  18.514  0.00  0.00    +0.144 HD
ATOM     44  H   LIG    1      -30.948  71.523  19.303  0.00  0.00    +0.144 HD
ENDBRANCH  35  42
ENDBRANCH  29  36
ENDBRANCH  28  32
ENDBRANCH   1  28
TORSDOF 10
ENDMDL
MODEL 4
REMARK VINA RESULT:      -6.6     19.024     21.299
REMARK  Name = pdb/CHEMBL3976441.pdb
REMARK                            x       y       z     vdW  Elec       q    Type
REMARK                         _______ _______ _______ _____ _____    ______ ____
ROOT
ATOM      1  C   LIG    1      -26.183  81.498  37.123  0.00  0.00    +0.323 A 
ATOM      2  N   LIG    1      -25.553  82.632  36.804  0.00  0.00    -0.201 NA
ATOM      3  C   LIG    1      -26.349  83.729  36.677  0.00  0.00    +0.145 A 
ATOM      4  C   LIG    1      -27.731  83.739  36.801  0.00  0.00    +0.105 A 
ATOM      5  C   LIG    1      -28.241  82.525  37.177  0.00  0.00    +0.145 A 
ATOM      6  N   LIG    1      -27.506  81.410  37.334  0.00  0.00    -0.201 NA
ENDROOT
BRANCH   4   7
ATOM      7  N   LIG    1      -28.602  84.827  36.600  0.00  0.00    -0.196 NA
ATOM      8  C   LIG    1      -28.907  85.206  35.405  0.00  0.00    +0.285 C 
BRANCH   8   9
ATOM      9  N   LIG    1      -29.783  86.195  35.089  0.00  0.00    -0.267 N 
ATOM     10  H   LIG    1      -30.757  85.918  34.952  0.00  0.00    +0.157 HD
BRANCH   9  11
ATOM     11  C   LIG    1      -29.494  87.537  34.780  0.00  0.00    +0.060 A 
ATOM     12  C   LIG    1      -29.745  88.095  33.506  0.00  0.00    +0.087 A 
ATOM     13  C   LIG    1      -29.357  89.424  33.246  0.00  0.00    +0.042 A 
ATOM     14  C   LIG    1      -28.721  90.210  34.221  0.00  0.00    +0.057 A 
ATOM     15  C   LIG    1      -28.476  89.656  35.478  0.00  0.00    +0.014 A 
ATOM     16  C   LIG    1      -28.859  88.343  35.748  0.00  0.00    +0.026 A 
BRANCH  12  17
ATOM     17  N   LIG    1      -30.375  87.342  32.467  0.00  0.00    -0.238 N 
ATOM     18  N   LIG    1      -31.422  86.507  32.725  0.00  0.00    -0.175 NA
ATOM     19  C   LIG    1      -31.737  85.977  31.541  0.00  0.00    +0.135 A 
ATOM     20  C   LIG    1      -30.930  86.461  30.505  0.00  0.00    +0.041 A 
ATOM     21  C   LIG    1      -30.063  87.331  31.121  0.00  0.00    +0.114 A 
ENDBRANCH  12  17
BRANCH  14  22
ATOM     22  C   LIG    1      -28.325  91.631  33.899  0.00  0.00    +0.417 C 
ATOM     23  F   LIG    1      -26.998  91.852  34.108  0.00  0.00    -0.166 F 
ATOM     24  F   LIG    1      -28.982  92.534  34.677  0.00  0.00    -0.166 F 
ATOM     25  F   LIG    1      -28.571  91.992  32.610  0.00  0.00    -0.166 F 
ENDBRANCH  14  22
ENDBRANCH   9  11
ENDBRANCH   8   9
BRANCH   8  26
ATOM     26  O   LIG    1      -28.415  84.578  34.320  0.00  0.00    -0.481 OA
ATOM     27  H   LIG    1      -27.448  84.521  34.387  0.00  0.00    +0.295 HD
ENDBRANCH   8  26
ENDBRANCH   4   7
BRANCH   1  28
ATOM     28  O   LIG    1      -25.388  80.349  37.153  0.00  0.00    -0.424 OA
BRANCH  28  32
ATOM     29  C   LIG    1      -24.489  78.505  33.462  0.00  0.00    -0.014 A 
ATOM     30  C   LIG    1      -25.523  78.055  34.303  0.00  0.00    +0.012 A 
ATOM     31  C   LIG    1      -25.795  78.679  35.534  0.00  0.00    +0.047 A 
ATOM     32  C   LIG    1      -25.009  79.744  35.976  0.00  0.00    +0.132 A 
ATOM     33  C   LIG    1      -23.899  80.089  35.216  0.00  0.00    +0.047 A 
ATOM     34  C   LIG    1      -23.687  79.539  33.958  0.00  0.00    +0.012 A 
BRANCH  29  36
ATOM     35  C   LIG    1      -25.169  77.482  31.217  0.00  0.00    +0.124 A 
ATOM     36  C   LIG    1      -24.194  77.917  32.133  0.00  0.00    +0.023 A 
ATOM     37  C   LIG    1      -22.852  77.783  31.710  0.00  0.00    +0.033 A 
ATOM     38  C   LIG    1      -22.542  77.244  30.470  0.00  0.00    +0.060 A 
ATOM     39 CL   LIG    1      -20.909  77.109  29.954  0.00  0.00    -0.082 Cl
ATOM     40  C   LIG    1      -23.584  76.826  29.672  0.00  0.00    +0.133 A 
ATOM     41  N   LIG    1      -24.884  76.931  30.021  0.00  0.00    -0.239 NA
BRANCH  35  42
ATOM     42  N   LIG    1      -26.538  77.600  31.439  0.00  0.00    -0.343 N 
ATOM     43  H   LIG    1      -26.970  76.682  31.453  0.00  0.00    +0.144 HD
ATOM     44  H   LIG    1      -26.627  78.069  32.337  0.00  0.00    +0.144 HD
ENDBRANCH  35  42
ENDBRANCH  29  36
ENDBRANCH  28  32
ENDBRANCH   1  28
TORSDOF 10
ENDMDL
MODEL 5
REMARK VINA RESULT:      -6.6     17.959     20.264
REMARK  Name = pdb/CHEMBL3976441.pdb
REMARK                            x       y       z     vdW  Elec       q    Type
REMARK                         _______ _______ _______ _____ _____    ______ ____
ROOT
ATOM      1  C   LIG    1      -25.938  81.237  37.189  0.00  0.00    +0.323 A 
ATOM      2  N   LIG    1      -25.192  82.327  36.984  0.00  0.00    -0.201 NA
ATOM      3  C   LIG    1      -25.877  83.502  36.923  0.00  0.00    +0.145 A 
ATOM      4  C   LIG    1      -27.255  83.636  37.006  0.00  0.00    +0.105 A 
ATOM      5  C   LIG    1      -27.891  82.450  37.265  0.00  0.00    +0.145 A 
ATOM      6  N   LIG    1      -27.270  81.260  37.352  0.00  0.00    -0.201 NA
ENDROOT
BRANCH   4   7
ATOM      7  N   LIG    1      -28.013  84.814  36.869  0.00  0.00    -0.196 NA
ATOM      8  C   LIG    1      -28.492  85.152  35.720  0.00  0.00    +0.285 C 
BRANCH   8   9
ATOM      9  N   LIG    1      -29.287  86.227  35.480  0.00  0.00    -0.267 N 
ATOM     10  H   LIG    1      -29.687  86.692  36.297  0.00  0.00    +0.157 HD
BRANCH   9  11
ATOM     11  C   LIG    1      -29.752  86.696  34.237  0.00  0.00    +0.060 A 
ATOM     12  C   LIG    1      -30.928  86.203  33.629  0.00  0.00    +0.087 A 
ATOM     13  C   LIG    1      -31.289  86.664  32.347  0.00  0.00    +0.042 A 
ATOM     14  C   LIG    1      -30.504  87.600  31.654  0.00  0.00    +0.057 A 
ATOM     15  C   LIG    1      -29.343  88.085  32.258  0.00  0.00    +0.014 A 
ATOM     16  C   LIG    1      -28.979  87.640  33.528  0.00  0.00    +0.026 A 
BRANCH  12  17
ATOM     17  N   LIG    1      -31.760  85.238  34.277  0.00  0.00    -0.238 N 
ATOM     18  N   LIG    1      -31.451  83.910  34.271  0.00  0.00    -0.175 NA
ATOM     19  C   LIG    1      -32.439  83.325  34.951  0.00  0.00    +0.135 A 
ATOM     20  C   LIG    1      -33.385  84.244  35.420  0.00  0.00    +0.041 A 
ATOM     21  C   LIG    1      -32.931  85.462  34.975  0.00  0.00    +0.114 A 
ENDBRANCH  12  17
BRANCH  14  22
ATOM     22  C   LIG    1      -30.930  88.067  30.283  0.00  0.00    +0.417 C 
ATOM     23  F   LIG    1      -29.897  88.059  29.396  0.00  0.00    -0.166 F 
ATOM     24  F   LIG    1      -31.397  89.346  30.301  0.00  0.00    -0.166 F 
ATOM     25  F   LIG    1      -31.915  87.313  29.727  0.00  0.00    -0.166 F 
ENDBRANCH  14  22
ENDBRANCH   9  11
ENDBRANCH   8   9
BRANCH   8  26
ATOM     26  O   LIG    1      -28.294  84.394  34.625  0.00  0.00    -0.481 OA
ATOM     27  H   LIG    1      -29.123  83.953  34.379  0.00  0.00    +0.295 HD
ENDBRANCH   8  26
ENDBRANCH   4   7
BRANCH   1  28
ATOM     28  O   LIG    1      -25.256  80.018  37.148  0.00  0.00    -0.424 OA
BRANCH  28  32
ATOM     29  C   LIG    1      -24.363  78.362  33.368  0.00  0.00    -0.014 A 
ATOM     30  C   LIG    1      -25.313  77.797  34.238  0.00  0.00    +0.012 A 
ATOM     31  C   LIG    1      -25.583  78.361  35.498  0.00  0.00    +0.047 A 
ATOM     32  C   LIG    1      -24.878  79.481  35.939  0.00  0.00    +0.132 A 
ATOM     33  C   LIG    1      -23.839  79.947  35.142  0.00  0.00    +0.047 A 
ATOM     34  C   LIG    1      -23.636  79.452  33.860  0.00  0.00    +0.012 A 
BRANCH  29  36
ATOM     35  C   LIG    1      -25.059  77.469  31.073  0.00  0.00    +0.124 A 
ATOM     36  C   LIG    1      -24.078  77.839  32.009  0.00  0.00    +0.023 A 
ATOM     37  C   LIG    1      -22.737  77.705  31.579  0.00  0.00    +0.033 A 
ATOM     38  C   LIG    1      -22.436  77.227  30.313  0.00  0.00    +0.060 A 
ATOM     39 CL   LIG    1      -20.805  77.091  29.790  0.00  0.00    -0.082 Cl
ATOM     40  C   LIG    1      -23.484  76.868  29.495  0.00  0.00    +0.133 A 
ATOM     41  N   LIG    1      -24.783  76.976  29.850  0.00  0.00    -0.239 NA
BRANCH  35  42
ATOM     42  N   LIG    1      -26.426  77.597  31.301  0.00  0.00    -0.343 N 
ATOM     43  H   LIG    1      -26.825  76.698  31.549  0.00  0.00    +0.144 HD
ATOM     44  H   LIG    1      -26.512  78.268  32.061  0.00  0.00    +0.144 HD
ENDBRANCH  35  42
ENDBRANCH  29  36
ENDBRANCH  28  32
ENDBRANCH   1  28
TORSDOF 10
ENDMDL
MODEL 6
REMARK VINA RESULT:      -6.4     14.863     17.630
REMARK  Name = pdb/CHEMBL3976441.pdb
REMARK                            x       y       z     vdW  Elec       q    Type
REMARK                         _______ _______ _______ _____ _____    ______ ____
ROOT
ATOM      1  C   LIG    1      -25.490  71.862  30.742  0.00  0.00    +0.323 A 
ATOM      2  N   LIG    1      -24.216  72.262  30.719  0.00  0.00    -0.201 NA
ATOM      3  C   LIG    1      -23.966  73.460  31.313  0.00  0.00    +0.145 A 
ATOM      4  C   LIG    1      -24.921  74.293  31.878  0.00  0.00    +0.105 A 
ATOM      5  C   LIG    1      -26.176  73.741  31.879  0.00  0.00    +0.145 A 
ATOM      6  N   LIG    1      -26.482  72.556  31.323  0.00  0.00    -0.201 NA
ENDROOT
BRANCH   4   7
ATOM      7  N   LIG    1      -24.725  75.573  32.431  0.00  0.00    -0.196 NA
ATOM      8  C   LIG    1      -24.715  76.616  31.673  0.00  0.00    +0.285 C 
BRANCH   8   9
ATOM      9  N   LIG    1      -24.600  77.901  32.097  0.00  0.00    -0.267 N 
ATOM     10  H   LIG    1      -25.253  78.577  31.694  0.00  0.00    +0.157 HD
BRANCH   9  11
ATOM     11  C   LIG    1      -23.597  78.454  32.915  0.00  0.00    +0.060 A 
ATOM     12  C   LIG    1      -22.224  78.171  32.731  0.00  0.00    +0.087 A 
ATOM     13  C   LIG    1      -21.283  78.698  33.638  0.00  0.00    +0.042 A 
ATOM     14  C   LIG    1      -21.676  79.495  34.727  0.00  0.00    +0.057 A 
ATOM     15  C   LIG    1      -23.032  79.772  34.904  0.00  0.00    +0.014 A 
ATOM     16  C   LIG    1      -23.972  79.260  34.010  0.00  0.00    +0.026 A 
BRANCH  12  17
ATOM     17  N   LIG    1      -21.764  77.354  31.652  0.00  0.00    -0.238 N 
ATOM     18  N   LIG    1      -21.967  77.709  30.351  0.00  0.00    -0.175 NA
ATOM     19  C   LIG    1      -21.421  76.721  29.638  0.00  0.00    +0.135 A 
ATOM     20  C   LIG    1      -20.846  75.732  30.444  0.00  0.00    +0.041 A 
ATOM     21  C   LIG    1      -21.080  76.156  31.730  0.00  0.00    +0.114 A 
ENDBRANCH  12  17
BRANCH  14  22
ATOM     22  C   LIG    1      -20.633  80.040  35.672  0.00  0.00    +0.417 C 
ATOM     23  F   LIG    1      -20.851  79.645  36.956  0.00  0.00    -0.166 F 
ATOM     24  F   LIG    1      -20.624  81.401  35.694  0.00  0.00    -0.166 F 
ATOM     25  F   LIG    1      -19.363  79.659  35.368  0.00  0.00    -0.166 F 
ENDBRANCH  14  22
ENDBRANCH   9  11
ENDBRANCH   8   9
BRANCH   8  26
ATOM     26  O   LIG    1      -24.898  76.520  30.342  0.00  0.00    -0.481 OA
ATOM     27  H   LIG    1      -24.656  75.629  30.042  0.00  0.00    +0.295 HD
ENDBRANCH   8  26
ENDBRANCH   4   7
BRANCH   1  28
ATOM     28  O   LIG    1      -25.772  70.685  30.044  0.00  0.00    -0.424 OA
BRANCH  28  32
ATOM     29  C   LIG    1      -22.494  68.466  28.574  0.00  0.00    -0.014 A 
ATOM     30  C   LIG    1      -23.213  69.374  27.777  0.00  0.00    +0.012 A 
ATOM     31  C   LIG    1      -24.310  70.092  28.287  0.00  0.00    +0.047 A 
ATOM     32  C   LIG    1      -24.743  69.888  29.597  0.00  0.00    +0.132 A 
ATOM     33  C   LIG    1      -24.126  68.884  30.334  0.00  0.00    +0.047 A 
ATOM     34  C   LIG    1      -22.985  68.244  29.866  0.00  0.00    +0.012 A 
BRANCH  29  36
ATOM     35  C   LIG    1      -21.322  66.710  27.127  0.00  0.00    +0.124 A 
ATOM     36  C   LIG    1      -21.299  67.723  28.103  0.00  0.00    +0.023 A 
ATOM     37  C   LIG    1      -20.027  68.037  28.633  0.00  0.00    +0.033 A 
ATOM     38  C   LIG    1      -18.889  67.366  28.208  0.00  0.00    +0.060 A 
ATOM     39 CL   LIG    1      -17.343  67.772  28.840  0.00  0.00    -0.082 Cl
ATOM     40  C   LIG    1      -19.042  66.372  27.268  0.00  0.00    +0.133 A 
ATOM     41  N   LIG    1      -20.231  66.031  26.725  0.00  0.00    -0.239 NA
BRANCH  35  42
ATOM     42  N   LIG    1      -22.474  66.319  26.452  0.00  0.00    -0.343 N 
ATOM     43  H   LIG    1      -22.862  67.103  25.939  0.00  0.00    +0.144 HD
ATOM     44  H   LIG    1      -22.180  65.571  25.827  0.00  0.00    +0.144 HD
ENDBRANCH  35  42
ENDBRANCH  29  36
ENDBRANCH  28  32
ENDBRANCH   1  28
TORSDOF 10
ENDMDL
MODEL 7
REMARK VINA RESULT:      -6.3     22.525     25.391
REMARK  Name = pdb/CHEMBL3976441.pdb
REMARK                            x       y       z     vdW  Elec       q    Type
REMARK                         _______ _______ _______ _____ _____    ______ ____
ROOT
ATOM      1  C   LIG    1      -32.858  89.007  29.304  0.00  0.00    +0.323 A 
ATOM      2  N   LIG    1      -32.104  90.067  29.607  0.00  0.00    -0.201 NA
ATOM      3  C   LIG    1      -32.324  91.178  28.851  0.00  0.00    +0.145 A 
ATOM      4  C   LIG    1      -33.213  91.266  27.790  0.00  0.00    +0.105 A 
ATOM      5  C   LIG    1      -33.956  90.127  27.621  0.00  0.00    +0.145 A 
ATOM      6  N   LIG    1      -33.797  89.004  28.345  0.00  0.00    -0.201 NA
ENDROOT
BRANCH   4   7
ATOM      7  N   LIG    1      -33.418  92.362  26.931  0.00  0.00    -0.196 NA
ATOM      8  C   LIG    1      -32.794  92.434  25.805  0.00  0.00    +0.285 C 
BRANCH   8   9
ATOM      9  N   LIG    1      -32.958  93.406  24.870  0.00  0.00    -0.267 N 
ATOM     10  H   LIG    1      -33.909  93.553  24.525  0.00  0.00    +0.157 HD
BRANCH   9  11
ATOM     11  C   LIG    1      -31.960  94.141  24.204  0.00  0.00    +0.060 A 
ATOM     12  C   LIG    1      -31.322  95.259  24.787  0.00  0.00    +0.087 A 
ATOM     13  C   LIG    1      -30.389  95.995  24.030  0.00  0.00    +0.042 A 
ATOM     14  C   LIG    1      -30.078  95.647  22.704  0.00  0.00    +0.057 A 
ATOM     15  C   LIG    1      -30.710  94.542  22.133  0.00  0.00    +0.014 A 
ATOM     16  C   LIG    1      -31.632  93.804  22.874  0.00  0.00    +0.026 A 
BRANCH  12  17
ATOM     17  N   LIG    1      -31.607  95.673  26.126  0.00  0.00    -0.238 N 
ATOM     18  N   LIG    1      -32.879  95.946  26.533  0.00  0.00    -0.175 NA
ATOM     19  C   LIG    1      -32.759  96.303  27.814  0.00  0.00    +0.135 A 
ATOM     20  C   LIG    1      -31.434  96.252  28.263  0.00  0.00    +0.041 A 
ATOM     21  C   LIG    1      -30.714  95.849  27.165  0.00  0.00    +0.114 A 
ENDBRANCH  12  17
BRANCH  14  22
ATOM     22  C   LIG    1      -29.070  96.463  21.931  0.00  0.00    +0.417 C 
ATOM     23  F   LIG    1      -29.529  96.807  20.697  0.00  0.00    -0.166 F 
ATOM     24  F   LIG    1      -27.912  95.779  21.723  0.00  0.00    -0.166 F 
ATOM     25  F   LIG    1      -28.718  97.625  22.544  0.00  0.00    -0.166 F 
ENDBRANCH  14  22
ENDBRANCH   9  11
ENDBRANCH   8   9
BRANCH   8  26
ATOM     26  O   LIG    1      -31.939  91.471  25.412  0.00  0.00    -0.481 OA
ATOM     27  H   LIG    1      -31.457  91.128  26.182  0.00  0.00    +0.295 HD
ENDBRANCH   8  26
ENDBRANCH   4   7
BRANCH   1  28
ATOM     28  O   LIG    1      -32.566  87.834  30.005  0.00  0.00    -0.424 OA
BRANCH  28  32
ATOM     29  C   LIG    1      -29.571  88.076  32.972  0.00  0.00    -0.014 A 
ATOM     30  C   LIG    1      -29.276  87.871  31.612  0.00  0.00    +0.012 A 
ATOM     31  C   LIG    1      -30.293  87.781  30.644  0.00  0.00    +0.047 A 
ATOM     32  C   LIG    1      -31.635  87.851  31.019  0.00  0.00    +0.132 A 
ATOM     33  C   LIG    1      -31.927  87.904  32.376  0.00  0.00    +0.047 A 
ATOM     34  C   LIG    1      -30.926  88.089  33.322  0.00  0.00    +0.012 A 
BRANCH  29  36
ATOM     35  C   LIG    1      -27.822  87.168  34.603  0.00  0.00    +0.124 A 
ATOM     36  C   LIG    1      -28.537  88.231  34.024  0.00  0.00    +0.023 A 
ATOM     37  C   LIG    1      -28.204  89.522  34.493  0.00  0.00    +0.033 A 
ATOM     38  C   LIG    1      -27.237  89.702  35.471  0.00  0.00    +0.060 A 
ATOM     39 CL   LIG    1      -26.821  91.277  36.017  0.00  0.00    -0.082 Cl
ATOM     40  C   LIG    1      -26.625  88.580  35.984  0.00  0.00    +0.133 A 
ATOM     41  N   LIG    1      -26.900  87.323  35.573  0.00  0.00    -0.239 NA
BRANCH  35  42
ATOM     42  N   LIG    1      -27.971  85.839  34.216  0.00  0.00    -0.343 N 
ATOM     43  H   LIG    1      -27.133  85.314  34.440  0.00  0.00    +0.144 HD
ATOM     44  H   LIG    1      -28.778  85.496  34.734  0.00  0.00    +0.144 HD
ENDBRANCH  35  42
ENDBRANCH  29  36
ENDBRANCH  28  32
ENDBRANCH   1  28
TORSDOF 10
ENDMDL
MODEL 8
REMARK VINA RESULT:      -6.2     19.203     21.645
REMARK  Name = pdb/CHEMBL3976441.pdb
REMARK                            x       y       z     vdW  Elec       q    Type
REMARK                         _______ _______ _______ _____ _____    ______ ____
ROOT
ATOM      1  C   LIG    1      -25.903  80.786  37.510  0.00  0.00    +0.323 A 
ATOM      2  N   LIG    1      -25.275  81.857  38.003  0.00  0.00    -0.201 NA
ATOM      3  C   LIG    1      -26.003  83.007  38.022  0.00  0.00    +0.145 A 
ATOM      4  C   LIG    1      -27.293  83.150  37.533  0.00  0.00    +0.105 A 
ATOM      5  C   LIG    1      -27.835  81.967  37.104  0.00  0.00    +0.145 A 
ATOM      6  N   LIG    1      -27.173  80.797  37.076  0.00  0.00    -0.201 NA
ENDROOT
BRANCH   4   7
ATOM      7  N   LIG    1      -28.055  84.331  37.457  0.00  0.00    -0.196 NA
ATOM      8  C   LIG    1      -27.714  85.277  36.649  0.00  0.00    +0.285 C 
BRANCH   8   9
ATOM      9  N   LIG    1      -28.404  86.429  36.443  0.00  0.00    -0.267 N 
ATOM     10  H   LIG    1      -28.662  86.963  37.276  0.00  0.00    +0.157 HD
BRANCH   9  11
ATOM     11  C   LIG    1      -28.939  86.910  35.234  0.00  0.00    +0.060 A 
ATOM     12  C   LIG    1      -28.551  88.146  34.669  0.00  0.00    +0.087 A 
ATOM     13  C   LIG    1      -29.188  88.600  33.497  0.00  0.00    +0.042 A 
ATOM     14  C   LIG    1      -30.206  87.856  32.877  0.00  0.00    +0.057 A 
ATOM     15  C   LIG    1      -30.585  86.637  33.438  0.00  0.00    +0.014 A 
ATOM     16  C   LIG    1      -29.959  86.175  34.595  0.00  0.00    +0.026 A 
BRANCH  12  17
ATOM     17  N   LIG    1      -27.533  88.956  35.262  0.00  0.00    -0.238 N 
ATOM     18  N   LIG    1      -26.386  88.410  35.758  0.00  0.00    -0.175 NA
ATOM     19  C   LIG    1      -25.691  89.447  36.231  0.00  0.00    +0.135 A 
ATOM     20  C   LIG    1      -26.349  90.667  36.039  0.00  0.00    +0.041 A 
ATOM     21  C   LIG    1      -27.528  90.328  35.420  0.00  0.00    +0.114 A 
ENDBRANCH  12  17
BRANCH  14  22
ATOM     22  C   LIG    1      -30.860  88.381  31.621  0.00  0.00    +0.417 C 
ATOM     23  F   LIG    1      -32.063  87.791  31.386  0.00  0.00    -0.166 F 
ATOM     24  F   LIG    1      -30.103  88.144  30.514  0.00  0.00    -0.166 F 
ATOM     25  F   LIG    1      -31.091  89.721  31.641  0.00  0.00    -0.166 F 
ENDBRANCH  14  22
ENDBRANCH   9  11
ENDBRANCH   8   9
BRANCH   8  26
ATOM     26  O   LIG    1      -26.633  85.166  35.854  0.00  0.00    -0.481 OA
ATOM     27  H   LIG    1      -26.253  86.046  35.696  0.00  0.00    +0.295 HD
ENDBRANCH   8  26
ENDBRANCH   4   7
BRANCH   1  28
ATOM     28  O   LIG    1      -25.130  79.628  37.391  0.00  0.00    -0.424 OA
BRANCH  28  32
ATOM     29  C   LIG    1      -24.158  78.202  33.537  0.00  0.00    -0.014 A 
ATOM     30  C   LIG    1      -24.798  77.403  34.503  0.00  0.00    +0.012 A 
ATOM     31  C   LIG    1      -25.099  77.898  35.784  0.00  0.00    +0.047 A 
ATOM     32  C   LIG    1      -24.729  79.193  36.149  0.00  0.00    +0.132 A 
ATOM     33  C   LIG    1      -23.968  79.927  35.248  0.00  0.00    +0.047 A 
ATOM     34  C   LIG    1      -23.754  79.476  33.951  0.00  0.00    +0.012 A 
BRANCH  29  36
ATOM     35  C   LIG    1      -24.840  77.400  31.205  0.00  0.00    +0.124 A 
ATOM     36  C   LIG    1      -23.865  77.747  32.156  0.00  0.00    +0.023 A 
ATOM     37  C   LIG    1      -22.522  77.661  31.719  0.00  0.00    +0.033 A 
ATOM     38  C   LIG    1      -22.214  77.247  30.432  0.00  0.00    +0.060 A 
ATOM     39 CL   LIG    1      -20.581  77.169  29.902  0.00  0.00    -0.082 Cl
ATOM     40  C   LIG    1      -23.256  76.904  29.600  0.00  0.00    +0.133 A 
ATOM     41  N   LIG    1      -24.556  76.969  29.961  0.00  0.00    -0.239 NA
BRANCH  35  42
ATOM     42  N   LIG    1      -26.209  77.489  31.440  0.00  0.00    -0.343 N 
ATOM     43  H   LIG    1      -26.716  77.459  30.562  0.00  0.00    +0.144 HD
ATOM     44  H   LIG    1      -26.435  76.692  32.030  0.00  0.00    +0.144 HD
ENDBRANCH  35  42
ENDBRANCH  29  36
ENDBRANCH  28  32
ENDBRANCH   1  28
TORSDOF 10
ENDMDL
MODEL 9
REMARK VINA RESULT:      -6.2      7.767     12.000
REMARK  Name = pdb/CHEMBL3976441.pdb
REMARK                            x       y       z     vdW  Elec       q    Type
REMARK                         _______ _______ _______ _____ _____    ______ ____
ROOT
ATOM      1  C   LIG    1      -39.650  75.422  24.901  0.00  0.00    +0.323 A 
ATOM      2  N   LIG    1      -40.532  75.696  23.937  0.00  0.00    -0.201 NA
ATOM      3  C   LIG    1      -40.464  76.954  23.421  0.00  0.00    +0.145 A 
ATOM      4  C   LIG    1      -39.604  77.955  23.850  0.00  0.00    +0.105 A 
ATOM      5  C   LIG    1      -38.722  77.525  24.806  0.00  0.00    +0.145 A 
ATOM      6  N   LIG    1      -38.728  76.292  25.343  0.00  0.00    -0.201 NA
ENDROOT
BRANCH   4   7
ATOM      7  N   LIG    1      -39.551  79.289  23.405  0.00  0.00    -0.196 NA
ATOM      8  C   LIG    1      -40.311  80.185  23.938  0.00  0.00    +0.285 C 
BRANCH   8   9
ATOM      9  N   LIG    1      -40.302  81.510  23.639  0.00  0.00    -0.267 N 
ATOM     10  H   LIG    1      -40.987  81.828  22.949  0.00  0.00    +0.157 HD
BRANCH   9  11
ATOM     11  C   LIG    1      -39.371  82.482  24.048  0.00  0.00    +0.060 A 
ATOM     12  C   LIG    1      -39.158  83.681  23.331  0.00  0.00    +0.087 A 
ATOM     13  C   LIG    1      -38.153  84.571  23.756  0.00  0.00    +0.042 A 
ATOM     14  C   LIG    1      -37.349  84.294  24.875  0.00  0.00    +0.057 A 
ATOM     15  C   LIG    1      -37.562  83.109  25.580  0.00  0.00    +0.014 A 
ATOM     16  C   LIG    1      -38.557  82.223  25.171  0.00  0.00    +0.026 A 
BRANCH  12  17
ATOM     17  N   LIG    1      -39.933  84.012  22.175  0.00  0.00    -0.238 N 
ATOM     18  N   LIG    1      -41.289  84.143  22.239  0.00  0.00    -0.175 NA
ATOM     19  C   LIG    1      -41.662  84.441  20.992  0.00  0.00    +0.135 A 
ATOM     20  C   LIG    1      -40.577  84.527  20.113  0.00  0.00    +0.041 A 
ATOM     21  C   LIG    1      -39.480  84.247  20.892  0.00  0.00    +0.114 A 
ENDBRANCH  12  17
BRANCH  14  22
ATOM     22  C   LIG    1      -36.284  85.278  25.296  0.00  0.00    +0.417 C 
ATOM     23  F   LIG    1      -36.349  86.437  24.585  0.00  0.00    -0.166 F 
ATOM     24  F   LIG    1      -35.029  84.788  25.100  0.00  0.00    -0.166 F 
ATOM     25  F   LIG    1      -36.350  85.633  26.607  0.00  0.00    -0.166 F 
ENDBRANCH  14  22
ENDBRANCH   9  11
ENDBRANCH   8   9
BRANCH   8  26
ATOM     26  O   LIG    1      -41.166  79.881  24.933  0.00  0.00    -0.481 OA
ATOM     27  H   LIG    1      -40.708  79.938  25.787  0.00  0.00    +0.295 HD
ENDBRANCH   8  26
ENDBRANCH   4   7
BRANCH   1  28
ATOM     28  O   LIG    1      -39.781  74.170  25.507  0.00  0.00    -0.424 OA
BRANCH  28  32
ATOM     29  C   LIG    1      -38.110  70.672  23.832  0.00  0.00    -0.014 A 
ATOM     30  C   LIG    1      -37.331  71.654  24.470  0.00  0.00    +0.012 A 
ATOM     31  C   LIG    1      -37.910  72.817  25.009  0.00  0.00    +0.047 A 
ATOM     32  C   LIG    1      -39.281  73.049  24.885  0.00  0.00    +0.132 A 
ATOM     33  C   LIG    1      -40.023  72.153  24.127  0.00  0.00    +0.047 A 
ATOM     34  C   LIG    1      -39.471  70.959  23.677  0.00  0.00    +0.012 A 
BRANCH  29  36
ATOM     35  C   LIG    1      -37.146  68.315  24.079  0.00  0.00    +0.124 A 
ATOM     36  C   LIG    1      -37.558  69.405  23.293  0.00  0.00    +0.023 A 
ATOM     37  C   LIG    1      -37.438  69.234  21.895  0.00  0.00    +0.033 A 
ATOM     38  C   LIG    1      -36.934  68.059  21.358  0.00  0.00    +0.060 A 
ATOM     39 CL   LIG    1      -36.815  67.850  19.657  0.00  0.00    -0.082 Cl
ATOM     40  C   LIG    1      -36.535  67.072  22.232  0.00  0.00    +0.133 A 
ATOM     41  N   LIG    1      -36.628  67.178  23.575  0.00  0.00    -0.239 NA
BRANCH  35  42
ATOM     42  N   LIG    1      -37.255  68.283  25.466  0.00  0.00    -0.343 N 
ATOM     43  H   LIG    1      -37.876  67.532  25.751  0.00  0.00    +0.144 HD
ATOM     44  H   LIG    1      -36.308  68.135  25.808  0.00  0.00    +0.144 HD
ENDBRANCH  35  42
ENDBRANCH  29  36
ENDBRANCH  28  32
ENDBRANCH   1  28
TORSDOF 10
ENDMDL
