MODEL 1
REMARK VINA RESULT:      -6.1      0.000      0.000
REMARK  Name = pdb/CHEMBL3666440.pdb
REMARK                            x       y       z     vdW  Elec       q    Type
REMARK                         _______ _______ _______ _____ _____    ______ ____
ROOT
ATOM      1  C   LIG    1      -20.750  76.934  30.702  0.00  0.00    +0.042 A 
ATOM      2  C   LIG    1      -20.955  77.837  31.771  0.00  0.00    +0.038 A 
ATOM      3  C   LIG    1      -19.859  78.345  32.489  0.00  0.00    +0.053 A 
ATOM      4  C   LIG    1      -18.590  77.974  32.047  0.00  0.00    +0.134 A 
ATOM      5  N   LIG    1      -18.352  77.137  31.016  0.00  0.00    -0.261 NA
ATOM      6  C   LIG    1      -19.432  76.644  30.376  0.00  0.00    +0.122 A 
ENDROOT
BRANCH   3   7
ATOM      7  N   LIG    1      -20.055  79.193  33.606  0.00  0.00    -0.279 N 
ATOM      8  H   LIG    1      -20.292  80.171  33.461  0.00  0.00    +0.155 HD
ATOM      9  C   LIG    1      -20.064  78.772  34.929  0.00  0.00    +0.267 C 
ATOM     10  O   LIG    1      -19.941  77.603  35.309  0.00  0.00    -0.268 OA
BRANCH   9  11
ATOM     11  C   LIG    1      -20.265  79.844  35.904  0.00  0.00    +0.133 A 
ATOM     12  N   LIG    1      -21.391  80.663  35.880  0.00  0.00    -0.239 NA
ATOM     13  C   LIG    1      -21.284  81.579  36.823  0.00  0.00    +0.082 A 
ATOM     14  S   LIG    1      -19.897  81.482  37.822  0.00  0.00    -0.079 S 
ATOM     15  C   LIG    1      -19.353  80.148  36.901  0.00  0.00    +0.080 A 
BRANCH  13  16
ATOM     16  C   LIG    1      -22.299  82.709  36.974  0.00  0.00    +0.045 C 
ATOM     17  C   LIG    1      -23.150  82.656  38.274  0.00  0.00    +0.010 C 
ATOM     18  C   LIG    1      -24.383  82.992  37.419  0.00  0.00    +0.001 C 
ATOM     19  C   LIG    1      -23.630  82.392  36.224  0.00  0.00    +0.010 C 
ENDBRANCH  13  16
ENDBRANCH   9  11
ENDBRANCH   3   7
BRANCH   1  20
ATOM     20  C   LIG    1      -21.907  76.374  29.931  0.00  0.00    +0.197 C 
ATOM     21  O   LIG    1      -21.867  76.452  28.705  0.00  0.00    -0.287 OA
BRANCH  20  29
ATOM     22  N   LIG    1      -24.339  74.120  31.566  0.00  0.00    -0.329 N 
ATOM     23  C   LIG    1      -25.101  75.257  31.473  0.00  0.00    +0.145 A 
ATOM     24  N   LIG    1      -26.380  75.388  31.871  0.00  0.00    -0.218 NA
ATOM     25  C   LIG    1      -26.837  76.640  31.698  0.00  0.00    +0.223 A 
ATOM     26  N   LIG    1      -26.177  77.701  31.196  0.00  0.00    -0.243 NA
ATOM     27  C   LIG    1      -24.897  77.516  30.799  0.00  0.00    +0.124 A 
ATOM     28  C   LIG    1      -24.305  76.257  30.921  0.00  0.00    +0.048 A 
ATOM     29  C   LIG    1      -23.027  75.685  30.597  0.00  0.00    +0.051 A 
ATOM     30  C   LIG    1      -23.069  74.395  31.105  0.00  0.00    +0.100 A 
BRANCH  22  32
ATOM     31  C   LIG    1      -25.750  72.093  31.362  0.00  0.00    +0.030 C 
ATOM     32  C   LIG    1      -24.708  72.846  32.184  0.00  0.00    +0.083 C 
ATOM     33  C   LIG    1      -23.517  71.959  32.553  0.00  0.00    +0.030 C 
ENDBRANCH  22  32
ENDBRANCH  20  29
ENDBRANCH   1  20
TORSDOF 6
ENDMDL
MODEL 2
REMARK VINA RESULT:      -6.1      6.777     10.580
REMARK  Name = pdb/CHEMBL3666440.pdb
REMARK                            x       y       z     vdW  Elec       q    Type
REMARK                         _______ _______ _______ _____ _____    ______ ____
ROOT
ATOM      1  C   LIG    1      -32.080  74.385  30.593  0.00  0.00    +0.042 A 
ATOM      2  C   LIG    1      -30.700  74.692  30.604  0.00  0.00    +0.038 A 
ATOM      3  C   LIG    1      -30.033  74.912  31.821  0.00  0.00    +0.053 A 
ATOM      4  C   LIG    1      -30.779  74.740  32.987  0.00  0.00    +0.134 A 
ATOM      5  N   LIG    1      -32.089  74.422  33.019  0.00  0.00    -0.261 NA
ATOM      6  C   LIG    1      -32.700  74.253  31.828  0.00  0.00    +0.122 A 
ENDROOT
BRANCH   3   7
ATOM      7  N   LIG    1      -28.669  75.291  31.843  0.00  0.00    -0.279 N 
ATOM      8  H   LIG    1      -27.951  74.598  31.645  0.00  0.00    +0.155 HD
ATOM      9  C   LIG    1      -28.209  76.591  32.002  0.00  0.00    +0.267 C 
ATOM     10  O   LIG    1      -28.922  77.593  32.111  0.00  0.00    -0.268 OA
BRANCH   9  11
ATOM     11  C   LIG    1      -26.752  76.721  32.011  0.00  0.00    +0.133 A 
ATOM     12  N   LIG    1      -25.969  76.337  30.925  0.00  0.00    -0.239 NA
ATOM     13  C   LIG    1      -24.697  76.500  31.226  0.00  0.00    +0.082 A 
ATOM     14  S   LIG    1      -24.359  77.173  32.764  0.00  0.00    -0.079 S 
ATOM     15  C   LIG    1      -26.037  77.205  33.094  0.00  0.00    +0.080 A 
BRANCH  13  16
ATOM     16  C   LIG    1      -23.578  76.049  30.289  0.00  0.00    +0.045 C 
ATOM     17  C   LIG    1      -22.241  75.685  30.993  0.00  0.00    +0.010 C 
ATOM     18  C   LIG    1      -21.508  76.464  29.889  0.00  0.00    +0.001 C 
ATOM     19  C   LIG    1      -22.803  77.263  29.690  0.00  0.00    +0.010 C 
ENDBRANCH  13  16
ENDBRANCH   9  11
ENDBRANCH   3   7
BRANCH   1  20
ATOM     20  C   LIG    1      -32.811  74.156  29.303  0.00  0.00    +0.197 C 
ATOM     21  O   LIG    1      -32.712  73.048  28.780  0.00  0.00    -0.287 OA
BRANCH  20  29
ATOM     22  N   LIG    1      -35.440  76.274  27.797  0.00  0.00    -0.329 N 
ATOM     23  C   LIG    1      -34.381  77.144  27.743  0.00  0.00    +0.145 A 
ATOM     24  N   LIG    1      -34.403  78.387  27.230  0.00  0.00    -0.218 NA
ATOM     25  C   LIG    1      -33.221  79.014  27.371  0.00  0.00    +0.223 A 
ATOM     26  N   LIG    1      -32.096  78.540  27.937  0.00  0.00    -0.243 NA
ATOM     27  C   LIG    1      -32.120  77.279  28.428  0.00  0.00    +0.124 A 
ATOM     28  C   LIG    1      -33.289  76.519  28.339  0.00  0.00    +0.048 A 
ATOM     29  C   LIG    1      -33.679  75.187  28.706  0.00  0.00    +0.051 A 
ATOM     30  C   LIG    1      -35.039  75.122  28.441  0.00  0.00    +0.100 A 
BRANCH  22  32
ATOM     31  C   LIG    1      -37.072  76.171  25.935  0.00  0.00    +0.030 C 
ATOM     32  C   LIG    1      -36.825  76.528  27.398  0.00  0.00    +0.083 C 
ATOM     33  C   LIG    1      -37.869  75.904  28.326  0.00  0.00    +0.030 C 
ENDBRANCH  22  32
ENDBRANCH  20  29
ENDBRANCH   1  20
TORSDOF 6
ENDMDL
MODEL 3
REMARK VINA RESULT:      -6.0     17.253     20.799
REMARK  Name = pdb/CHEMBL3666440.pdb
REMARK                            x       y       z     vdW  Elec       q    Type
REMARK                         _______ _______ _______ _____ _____    ______ ____
ROOT
ATOM      1  C   LIG    1      -22.567  82.411  14.803  0.00  0.00    +0.042 A 
ATOM      2  C   LIG    1      -22.683  81.024  14.556  0.00  0.00    +0.038 A 
ATOM      3  C   LIG    1      -22.589  80.106  15.616  0.00  0.00    +0.053 A 
ATOM      4  C   LIG    1      -22.453  80.637  16.899  0.00  0.00    +0.134 A 
ATOM      5  N   LIG    1      -22.365  81.954  17.177  0.00  0.00    -0.261 NA
ATOM      6  C   LIG    1      -22.425  82.799  16.128  0.00  0.00    +0.122 A 
ENDROOT
BRANCH   3   7
ATOM      7  N   LIG    1      -22.632  78.712  15.374  0.00  0.00    -0.279 N 
ATOM      8  H   LIG    1      -21.816  78.140  15.574  0.00  0.00    +0.155 HD
ATOM      9  C   LIG    1      -23.764  78.009  14.981  0.00  0.00    +0.267 C 
ATOM     10  O   LIG    1      -24.889  78.495  14.825  0.00  0.00    -0.268 OA
BRANCH   9  11
ATOM     11  C   LIG    1      -23.546  76.577  14.774  0.00  0.00    +0.133 A 
ATOM     12  N   LIG    1      -23.121  75.739  15.801  0.00  0.00    -0.239 NA
ATOM     13  C   LIG    1      -22.944  74.522  15.325  0.00  0.00    +0.082 A 
ATOM     14  S   LIG    1      -23.332  74.289  13.673  0.00  0.00    -0.079 S 
ATOM     15  C   LIG    1      -23.717  75.950  13.551  0.00  0.00    +0.080 A 
BRANCH  13  16
ATOM     16  C   LIG    1      -22.358  73.397  16.174  0.00  0.00    +0.045 C 
ATOM     17  C   LIG    1      -22.993  73.241  17.584  0.00  0.00    +0.010 C 
ATOM     18  C   LIG    1      -21.572  73.072  18.148  0.00  0.00    +0.001 C 
ATOM     19  C   LIG    1      -21.071  73.854  16.927  0.00  0.00    +0.010 C 
ENDBRANCH  13  16
ENDBRANCH   9  11
ENDBRANCH   3   7
BRANCH   1  20
ATOM     20  C   LIG    1      -22.655  83.405  13.683  0.00  0.00    +0.197 C 
ATOM     21  O   LIG    1      -23.443  83.167  12.770  0.00  0.00    -0.287 OA
BRANCH  20  29
ATOM     22  N   LIG    1      -21.310  86.848  13.745  0.00  0.00    -0.329 N 
ATOM     23  C   LIG    1      -20.147  86.147  13.550  0.00  0.00    +0.145 A 
ATOM     24  N   LIG    1      -18.919  86.676  13.403  0.00  0.00    -0.218 NA
ATOM     25  C   LIG    1      -17.971  85.729  13.283  0.00  0.00    +0.223 A 
ATOM     26  N   LIG    1      -18.131  84.392  13.294  0.00  0.00    -0.243 NA
ATOM     27  C   LIG    1      -19.387  83.910  13.432  0.00  0.00    +0.124 A 
ATOM     28  C   LIG    1      -20.463  84.791  13.561  0.00  0.00    +0.048 A 
ATOM     29  C   LIG    1      -21.887  84.663  13.696  0.00  0.00    +0.051 A 
ATOM     30  C   LIG    1      -22.348  85.954  13.904  0.00  0.00    +0.100 A 
BRANCH  22  32
ATOM     31  C   LIG    1      -21.512  89.028  12.583  0.00  0.00    +0.030 C 
ATOM     32  C   LIG    1      -21.463  88.293  13.920  0.00  0.00    +0.083 C 
ATOM     33  C   LIG    1      -22.617  88.695  14.839  0.00  0.00    +0.030 C 
ENDBRANCH  22  32
ENDBRANCH  20  29
ENDBRANCH   1  20
TORSDOF 6
ENDMDL
MODEL 4
REMARK VINA RESULT:      -5.9     13.567     17.659
REMARK  Name = pdb/CHEMBL3666440.pdb
REMARK                            x       y       z     vdW  Elec       q    Type
REMARK                         _______ _______ _______ _____ _____    ______ ____
ROOT
ATOM      1  C   LIG    1      -39.372  72.698  24.274  0.00  0.00    +0.042 A 
ATOM      2  C   LIG    1      -38.263  73.034  25.084  0.00  0.00    +0.038 A 
ATOM      3  C   LIG    1      -38.011  74.376  25.418  0.00  0.00    +0.053 A 
ATOM      4  C   LIG    1      -38.938  75.319  24.977  0.00  0.00    +0.134 A 
ATOM      5  N   LIG    1      -40.022  75.035  24.226  0.00  0.00    -0.261 NA
ATOM      6  C   LIG    1      -40.208  73.740  23.898  0.00  0.00    +0.122 A 
ENDROOT
BRANCH   3   7
ATOM      7  N   LIG    1      -36.864  74.733  26.167  0.00  0.00    -0.279 N 
ATOM      8  H   LIG    1      -36.028  75.055  25.687  0.00  0.00    +0.155 HD
ATOM      9  C   LIG    1      -36.810  74.795  27.554  0.00  0.00    +0.267 C 
ATOM     10  O   LIG    1      -37.758  74.584  28.316  0.00  0.00    -0.268 OA
BRANCH   9  11
ATOM     11  C   LIG    1      -35.502  75.170  28.092  0.00  0.00    +0.133 A 
ATOM     12  N   LIG    1      -34.878  76.367  27.752  0.00  0.00    -0.239 NA
ATOM     13  C   LIG    1      -33.692  76.418  28.324  0.00  0.00    +0.082 A 
ATOM     14  S   LIG    1      -33.280  75.102  29.338  0.00  0.00    -0.079 S 
ATOM     15  C   LIG    1      -34.773  74.365  28.952  0.00  0.00    +0.080 A 
BRANCH  13  16
ATOM     16  C   LIG    1      -32.705  77.550  28.044  0.00  0.00    +0.045 C 
ATOM     17  C   LIG    1      -33.355  78.942  27.810  0.00  0.00    +0.010 C 
ATOM     18  C   LIG    1      -32.389  79.137  26.629  0.00  0.00    +0.001 C 
ATOM     19  C   LIG    1      -32.306  77.607  26.537  0.00  0.00    +0.010 C 
ENDBRANCH  13  16
ENDBRANCH   9  11
ENDBRANCH   3   7
BRANCH   1  20
ATOM     20  C   LIG    1      -39.652  71.273  23.899  0.00  0.00    +0.197 C 
ATOM     21  O   LIG    1      -40.799  70.987  23.562  0.00  0.00    -0.287 OA
BRANCH  20  29
ATOM     22  N   LIG    1      -36.831  68.936  24.395  0.00  0.00    -0.329 N 
ATOM     23  C   LIG    1      -37.153  68.641  23.094  0.00  0.00    +0.145 A 
ATOM     24  N   LIG    1      -36.522  67.752  22.305  0.00  0.00    -0.218 NA
ATOM     25  C   LIG    1      -37.105  67.645  21.098  0.00  0.00    +0.223 A 
ATOM     26  N   LIG    1      -38.185  68.305  20.639  0.00  0.00    -0.243 NA
ATOM     27  C   LIG    1      -38.776  69.197  21.466  0.00  0.00    +0.124 A 
ATOM     28  C   LIG    1      -38.264  69.405  22.748  0.00  0.00    +0.048 A 
ATOM     29  C   LIG    1      -38.588  70.254  23.861  0.00  0.00    +0.051 A 
ATOM     30  C   LIG    1      -37.738  69.855  24.881  0.00  0.00    +0.100 A 
BRANCH  22  32
ATOM     31  C   LIG    1      -34.641  69.243  25.514  0.00  0.00    +0.030 C 
ATOM     32  C   LIG    1      -35.809  68.302  25.227  0.00  0.00    +0.083 C 
ATOM     33  C   LIG    1      -36.351  67.655  26.503  0.00  0.00    +0.030 C 
ENDBRANCH  22  32
ENDBRANCH  20  29
ENDBRANCH   1  20
TORSDOF 6
ENDMDL
MODEL 5
REMARK VINA RESULT:      -5.9     12.253     16.568
REMARK  Name = pdb/CHEMBL3666440.pdb
REMARK                            x       y       z     vdW  Elec       q    Type
REMARK                         _______ _______ _______ _____ _____    ______ ____
ROOT
ATOM      1  C   LIG    1      -32.699  73.518  29.087  0.00  0.00    +0.042 A 
ATOM      2  C   LIG    1      -33.850  73.380  28.278  0.00  0.00    +0.038 A 
ATOM      3  C   LIG    1      -34.393  72.108  28.029  0.00  0.00    +0.053 A 
ATOM      4  C   LIG    1      -33.787  71.028  28.671  0.00  0.00    +0.134 A 
ATOM      5  N   LIG    1      -32.705  71.122  29.470  0.00  0.00    -0.261 NA
ATOM      6  C   LIG    1      -32.194  72.357  29.656  0.00  0.00    +0.122 A 
ENDROOT
BRANCH   3   7
ATOM      7  N   LIG    1      -35.502  71.950  27.163  0.00  0.00    -0.279 N 
ATOM      8  H   LIG    1      -36.365  72.451  27.354  0.00  0.00    +0.155 HD
ATOM      9  C   LIG    1      -35.483  71.237  25.972  0.00  0.00    +0.267 C 
ATOM     10  O   LIG    1      -34.493  70.677  25.490  0.00  0.00    -0.268 OA
BRANCH   9  11
ATOM     11  C   LIG    1      -36.764  71.203  25.266  0.00  0.00    +0.133 A 
ATOM     12  N   LIG    1      -37.705  72.221  25.394  0.00  0.00    -0.239 NA
ATOM     13  C   LIG    1      -38.784  71.905  24.706  0.00  0.00    +0.082 A 
ATOM     14  S   LIG    1      -38.722  70.439  23.825  0.00  0.00    -0.079 S 
ATOM     15  C   LIG    1      -37.153  70.159  24.443  0.00  0.00    +0.080 A 
BRANCH  13  16
ATOM     16  C   LIG    1      -40.050  72.759  24.747  0.00  0.00    +0.045 C 
ATOM     17  C   LIG    1      -40.965  72.635  23.497  0.00  0.00    +0.010 C 
ATOM     18  C   LIG    1      -41.120  74.164  23.523  0.00  0.00    +0.001 C 
ATOM     19  C   LIG    1      -39.778  74.217  24.265  0.00  0.00    +0.010 C 
ENDBRANCH  13  16
ENDBRANCH   9  11
ENDBRANCH   3   7
BRANCH   1  20
ATOM     20  C   LIG    1      -32.100  74.866  29.357  0.00  0.00    +0.197 C 
ATOM     21  O   LIG    1      -30.880  74.932  29.494  0.00  0.00    -0.287 OA
BRANCH  20  29
ATOM     22  N   LIG    1      -34.466  77.648  29.929  0.00  0.00    -0.329 N 
ATOM     23  C   LIG    1      -33.834  78.108  28.802  0.00  0.00    +0.145 A 
ATOM     24  N   LIG    1      -34.107  79.255  28.153  0.00  0.00    -0.218 NA
ATOM     25  C   LIG    1      -33.279  79.457  27.113  0.00  0.00    +0.223 A 
ATOM     26  N   LIG    1      -32.272  78.668  26.691  0.00  0.00    -0.243 NA
ATOM     27  C   LIG    1      -32.045  77.520  27.370  0.00  0.00    +0.124 A 
ATOM     28  C   LIG    1      -32.841  77.191  28.469  0.00  0.00    +0.048 A 
ATOM     29  C   LIG    1      -32.920  76.090  29.389  0.00  0.00    +0.051 A 
ATOM     30  C   LIG    1      -33.871  76.469  30.325  0.00  0.00    +0.100 A 
BRANCH  22  32
ATOM     31  C   LIG    1      -36.558  77.354  31.225  0.00  0.00    +0.030 C 
ATOM     32  C   LIG    1      -35.499  78.327  30.713  0.00  0.00    +0.083 C 
ATOM     33  C   LIG    1      -34.954  79.222  31.828  0.00  0.00    +0.030 C 
ENDBRANCH  22  32
ENDBRANCH  20  29
ENDBRANCH   1  20
TORSDOF 6
ENDMDL
MODEL 6
REMARK VINA RESULT:      -5.9      4.897     10.374
REMARK  Name = pdb/CHEMBL3666440.pdb
REMARK                            x       y       z     vdW  Elec       q    Type
REMARK                         _______ _______ _______ _____ _____    ______ ____
ROOT
ATOM      1  C   LIG    1      -25.534  74.605  31.716  0.00  0.00    +0.042 A 
ATOM      2  C   LIG    1      -24.887  73.592  30.971  0.00  0.00    +0.038 A 
ATOM      3  C   LIG    1      -25.109  72.238  31.275  0.00  0.00    +0.053 A 
ATOM      4  C   LIG    1      -26.037  71.962  32.278  0.00  0.00    +0.134 A 
ATOM      5  N   LIG    1      -26.693  72.898  32.993  0.00  0.00    -0.261 NA
ATOM      6  C   LIG    1      -26.426  74.186  32.694  0.00  0.00    +0.122 A 
ENDROOT
BRANCH   3   7
ATOM      7  N   LIG    1      -24.413  71.217  30.584  0.00  0.00    -0.279 N 
ATOM      8  H   LIG    1      -23.436  71.037  30.801  0.00  0.00    +0.155 HD
ATOM      9  C   LIG    1      -24.992  70.330  29.686  0.00  0.00    +0.267 C 
ATOM     10  O   LIG    1      -26.191  70.288  29.396  0.00  0.00    -0.268 OA
BRANCH   9  11
ATOM     11  C   LIG    1      -24.056  69.378  29.086  0.00  0.00    +0.133 A 
ATOM     12  N   LIG    1      -22.755  69.737  28.743  0.00  0.00    -0.239 NA
ATOM     13  C   LIG    1      -22.159  68.713  28.166  0.00  0.00    +0.082 A 
ATOM     14  S   LIG    1      -23.067  67.265  28.061  0.00  0.00    -0.079 S 
ATOM     15  C   LIG    1      -24.389  68.067  28.790  0.00  0.00    +0.080 A 
BRANCH  13  16
ATOM     16  C   LIG    1      -20.762  68.826  27.559  0.00  0.00    +0.045 C 
ATOM     17  C   LIG    1      -19.954  67.499  27.523  0.00  0.00    +0.010 C 
ATOM     18  C   LIG    1      -18.730  68.292  28.010  0.00  0.00    +0.001 C 
ATOM     19  C   LIG    1      -19.714  69.306  28.609  0.00  0.00    +0.010 C 
ENDBRANCH  13  16
ENDBRANCH   9  11
ENDBRANCH   3   7
BRANCH   1  20
ATOM     20  C   LIG    1      -25.303  76.055  31.413  0.00  0.00    +0.197 C 
ATOM     21  O   LIG    1      -26.248  76.702  30.966  0.00  0.00    -0.287 OA
BRANCH  20  29
ATOM     22  N   LIG    1      -22.372  77.919  32.679  0.00  0.00    -0.329 N 
ATOM     23  C   LIG    1      -21.894  77.540  31.450  0.00  0.00    +0.145 A 
ATOM     24  N   LIG    1      -20.688  77.849  30.940  0.00  0.00    -0.218 NA
ATOM     25  C   LIG    1      -20.489  77.285  29.735  0.00  0.00    +0.223 A 
ATOM     26  N   LIG    1      -21.332  76.497  29.041  0.00  0.00    -0.243 NA
ATOM     27  C   LIG    1      -22.537  76.226  29.591  0.00  0.00    +0.124 A 
ATOM     28  C   LIG    1      -22.869  76.756  30.840  0.00  0.00    +0.048 A 
ATOM     29  C   LIG    1      -24.017  76.716  31.702  0.00  0.00    +0.051 A 
ATOM     30  C   LIG    1      -23.621  77.365  32.862  0.00  0.00    +0.100 A 
BRANCH  22  32
ATOM     31  C   LIG    1      -22.600  79.539  34.540  0.00  0.00    +0.030 C 
ATOM     32  C   LIG    1      -21.661  78.654  33.725  0.00  0.00    +0.083 C 
ATOM     33  C   LIG    1      -20.777  77.780  34.616  0.00  0.00    +0.030 C 
ENDBRANCH  22  32
ENDBRANCH  20  29
ENDBRANCH   1  20
TORSDOF 6
ENDMDL
MODEL 7
REMARK VINA RESULT:      -5.8      5.327      8.582
REMARK  Name = pdb/CHEMBL3666440.pdb
REMARK                            x       y       z     vdW  Elec       q    Type
REMARK                         _______ _______ _______ _____ _____    ______ ____
ROOT
ATOM      1  C   LIG    1      -29.458  75.523  31.998  0.00  0.00    +0.042 A 
ATOM      2  C   LIG    1      -28.076  75.555  31.704  0.00  0.00    +0.038 A 
ATOM      3  C   LIG    1      -27.210  76.368  32.456  0.00  0.00    +0.053 A 
ATOM      4  C   LIG    1      -27.771  77.062  33.527  0.00  0.00    +0.134 A 
ATOM      5  N   LIG    1      -29.079  77.037  33.856  0.00  0.00    -0.261 NA
ATOM      6  C   LIG    1      -29.882  76.271  33.087  0.00  0.00    +0.122 A 
ENDROOT
BRANCH   3   7
ATOM      7  N   LIG    1      -25.837  76.464  32.126  0.00  0.00    -0.279 N 
ATOM      8  H   LIG    1      -25.179  75.788  32.505  0.00  0.00    +0.155 HD
ATOM      9  C   LIG    1      -25.302  77.361  31.211  0.00  0.00    +0.267 C 
ATOM     10  O   LIG    1      -25.951  78.167  30.537  0.00  0.00    -0.268 OA
BRANCH   9  11
ATOM     11  C   LIG    1      -23.849  77.278  31.060  0.00  0.00    +0.133 A 
ATOM     12  N   LIG    1      -22.985  77.407  32.145  0.00  0.00    -0.239 NA
ATOM     13  C   LIG    1      -21.739  77.358  31.717  0.00  0.00    +0.082 A 
ATOM     14  S   LIG    1      -21.521  77.089  30.040  0.00  0.00    -0.079 S 
ATOM     15  C   LIG    1      -23.219  77.092  29.841  0.00  0.00    +0.080 A 
BRANCH  13  16
ATOM     16  C   LIG    1      -20.553  77.598  32.649  0.00  0.00    +0.045 C 
ATOM     17  C   LIG    1      -20.749  78.749  33.675  0.00  0.00    +0.010 C 
ATOM     18  C   LIG    1      -19.320  79.214  33.349  0.00  0.00    +0.001 C 
ATOM     19  C   LIG    1      -19.480  78.519  31.990  0.00  0.00    +0.010 C 
ENDBRANCH  13  16
ENDBRANCH   9  11
ENDBRANCH   3   7
BRANCH   1  20
ATOM     20  C   LIG    1      -30.399  74.669  31.200  0.00  0.00    +0.197 C 
ATOM     21  O   LIG    1      -30.458  73.473  31.477  0.00  0.00    -0.287 OA
BRANCH  20  29
ATOM     22  N   LIG    1      -32.298  76.653  28.726  0.00  0.00    -0.329 N 
ATOM     23  C   LIG    1      -32.980  75.466  28.645  0.00  0.00    +0.145 A 
ATOM     24  N   LIG    1      -34.051  75.219  27.869  0.00  0.00    -0.218 NA
ATOM     25  C   LIG    1      -34.464  73.943  27.968  0.00  0.00    +0.223 A 
ATOM     26  N   LIG    1      -33.940  72.960  28.725  0.00  0.00    -0.243 NA
ATOM     27  C   LIG    1      -32.872  73.261  29.497  0.00  0.00    +0.124 A 
ATOM     28  C   LIG    1      -32.348  74.556  29.489  0.00  0.00    +0.048 A 
ATOM     29  C   LIG    1      -31.281  75.239  30.166  0.00  0.00    +0.051 A 
ATOM     30  C   LIG    1      -31.232  76.498  29.587  0.00  0.00    +0.100 A 
BRANCH  22  32
ATOM     31  C   LIG    1      -32.152  77.671  26.471  0.00  0.00    +0.030 C 
ATOM     32  C   LIG    1      -32.522  77.867  27.939  0.00  0.00    +0.083 C 
ATOM     33  C   LIG    1      -33.916  78.474  28.105  0.00  0.00    +0.030 C 
ENDBRANCH  22  32
ENDBRANCH  20  29
ENDBRANCH   1  20
TORSDOF 6
ENDMDL
MODEL 8
REMARK VINA RESULT:      -5.8      1.348      2.197
REMARK  Name = pdb/CHEMBL3666440.pdb
REMARK                            x       y       z     vdW  Elec       q    Type
REMARK                         _______ _______ _______ _____ _____    ______ ____
ROOT
ATOM      1  C   LIG    1      -20.568  76.977  30.698  0.00  0.00    +0.042 A 
ATOM      2  C   LIG    1      -20.770  77.903  31.747  0.00  0.00    +0.038 A 
ATOM      3  C   LIG    1      -19.677  78.392  32.481  0.00  0.00    +0.053 A 
ATOM      4  C   LIG    1      -18.409  77.977  32.075  0.00  0.00    +0.134 A 
ATOM      5  N   LIG    1      -18.173  77.116  31.064  0.00  0.00    -0.261 NA
ATOM      6  C   LIG    1      -19.252  76.643  30.407  0.00  0.00    +0.122 A 
ENDROOT
BRANCH   3   7
ATOM      7  N   LIG    1      -19.873  79.264  33.579  0.00  0.00    -0.279 N 
ATOM      8  H   LIG    1      -19.133  79.906  33.851  0.00  0.00    +0.155 HD
ATOM      9  C   LIG    1      -21.067  79.410  34.274  0.00  0.00    +0.267 C 
ATOM     10  O   LIG    1      -22.123  78.829  34.008  0.00  0.00    -0.268 OA
BRANCH   9  11
ATOM     11  C   LIG    1      -21.009  80.360  35.384  0.00  0.00    +0.133 A 
ATOM     12  N   LIG    1      -20.196  80.150  36.495  0.00  0.00    -0.239 NA
ATOM     13  C   LIG    1      -20.387  81.122  37.365  0.00  0.00    +0.082 A 
ATOM     14  S   LIG    1      -21.474  82.359  36.896  0.00  0.00    -0.079 S 
ATOM     15  C   LIG    1      -21.767  81.519  35.436  0.00  0.00    +0.080 A 
BRANCH  13  16
ATOM     16  C   LIG    1      -19.736  81.113  38.746  0.00  0.00    +0.045 C 
ATOM     17  C   LIG    1      -18.959  82.409  39.112  0.00  0.00    +0.010 C 
ATOM     18  C   LIG    1      -17.835  81.517  39.664  0.00  0.00    +0.001 C 
ATOM     19  C   LIG    1      -18.340  80.418  38.720  0.00  0.00    +0.010 C 
ENDBRANCH  13  16
ENDBRANCH   9  11
ENDBRANCH   3   7
BRANCH   1  20
ATOM     20  C   LIG    1      -21.723  76.437  29.909  0.00  0.00    +0.197 C 
ATOM     21  O   LIG    1      -21.663  76.514  28.684  0.00  0.00    -0.287 OA
BRANCH  20  29
ATOM     22  N   LIG    1      -24.207  74.233  31.534  0.00  0.00    -0.329 N 
ATOM     23  C   LIG    1      -24.968  75.363  31.373  0.00  0.00    +0.145 A 
ATOM     24  N   LIG    1      -26.261  75.503  31.719  0.00  0.00    -0.218 NA
ATOM     25  C   LIG    1      -26.714  76.747  31.486  0.00  0.00    +0.223 A 
ATOM     26  N   LIG    1      -26.039  77.792  30.971  0.00  0.00    -0.243 NA
ATOM     27  C   LIG    1      -24.745  77.598  30.628  0.00  0.00    +0.124 A 
ATOM     28  C   LIG    1      -24.155  76.346  30.815  0.00  0.00    +0.048 A 
ATOM     29  C   LIG    1      -22.865  75.768  30.558  0.00  0.00    +0.051 A 
ATOM     30  C   LIG    1      -22.921  74.497  31.110  0.00  0.00    +0.100 A 
BRANCH  22  32
ATOM     31  C   LIG    1      -23.940  71.770  31.525  0.00  0.00    +0.030 C 
ATOM     32  C   LIG    1      -24.595  72.981  32.183  0.00  0.00    +0.083 C 
ATOM     33  C   LIG    1      -24.412  72.978  33.702  0.00  0.00    +0.030 C 
ENDBRANCH  22  32
ENDBRANCH  20  29
ENDBRANCH   1  20
TORSDOF 6
ENDMDL
MODEL 9
REMARK VINA RESULT:      -5.8     20.866     23.557
REMARK  Name = pdb/CHEMBL3666440.pdb
REMARK                            x       y       z     vdW  Elec       q    Type
REMARK                         _______ _______ _______ _____ _____    ______ ____
ROOT
ATOM      1  C   LIG    1      -22.920  87.971  12.571  0.00  0.00    +0.042 A 
ATOM      2  C   LIG    1      -23.192  86.694  13.113  0.00  0.00    +0.038 A 
ATOM      3  C   LIG    1      -22.425  86.199  14.181  0.00  0.00    +0.053 A 
ATOM      4  C   LIG    1      -21.456  87.052  14.708  0.00  0.00    +0.134 A 
ATOM      5  N   LIG    1      -21.184  88.286  14.237  0.00  0.00    -0.261 NA
ATOM      6  C   LIG    1      -21.920  88.710  13.189  0.00  0.00    +0.122 A 
ENDROOT
BRANCH   3   7
ATOM      7  N   LIG    1      -22.640  84.893  14.685  0.00  0.00    -0.279 N 
ATOM      8  H   LIG    1      -23.432  84.713  15.296  0.00  0.00    +0.155 HD
ATOM      9  C   LIG    1      -21.910  83.771  14.317  0.00  0.00    +0.267 C 
ATOM     10  O   LIG    1      -21.002  83.751  13.480  0.00  0.00    -0.268 OA
BRANCH   9  11
ATOM     11  C   LIG    1      -22.312  82.538  14.995  0.00  0.00    +0.133 A 
ATOM     12  N   LIG    1      -23.434  81.813  14.605  0.00  0.00    -0.239 NA
ATOM     13  C   LIG    1      -23.598  80.792  15.423  0.00  0.00    +0.082 A 
ATOM     14  S   LIG    1      -22.411  80.594  16.640  0.00  0.00    -0.079 S 
ATOM     15  C   LIG    1      -21.634  82.011  16.082  0.00  0.00    +0.080 A 
BRANCH  13  16
ATOM     16  C   LIG    1      -24.817  79.875  15.339  0.00  0.00    +0.045 C 
ATOM     17  C   LIG    1      -24.495  78.383  15.044  0.00  0.00    +0.010 C 
ATOM     18  C   LIG    1      -25.660  78.384  14.041  0.00  0.00    +0.001 C 
ATOM     19  C   LIG    1      -25.461  79.900  13.919  0.00  0.00    +0.010 C 
ENDBRANCH  13  16
ENDBRANCH   9  11
ENDBRANCH   3   7
BRANCH   1  20
ATOM     20  C   LIG    1      -23.723  88.512  11.425  0.00  0.00    +0.197 C 
ATOM     21  O   LIG    1      -24.023  87.734  10.522  0.00  0.00    -0.287 OA
BRANCH  20  29
ATOM     22  N   LIG    1      -25.486  91.757  11.596  0.00  0.00    -0.329 N 
ATOM     23  C   LIG    1      -24.323  92.155  10.985  0.00  0.00    +0.145 A 
ATOM     24  N   LIG    1      -24.032  93.403  10.576  0.00  0.00    -0.218 NA
ATOM     25  C   LIG    1      -22.792  93.489  10.062  0.00  0.00    +0.223 A 
ATOM     26  N   LIG    1      -21.881  92.507   9.927  0.00  0.00    -0.243 NA
ATOM     27  C   LIG    1      -22.227  91.267  10.342  0.00  0.00    +0.124 A 
ATOM     28  C   LIG    1      -23.492  91.042  10.892  0.00  0.00    +0.048 A 
ATOM     29  C   LIG    1      -24.205  89.904  11.401  0.00  0.00    +0.051 A 
ATOM     30  C   LIG    1      -25.388  90.417  11.911  0.00  0.00    +0.100 A 
BRANCH  22  32
ATOM     31  C   LIG    1      -27.944  92.058  11.501  0.00  0.00    +0.030 C 
ATOM     32  C   LIG    1      -26.610  92.597  12.010  0.00  0.00    +0.083 C 
ATOM     33  C   LIG    1      -26.647  92.900  13.509  0.00  0.00    +0.030 C 
ENDBRANCH  22  32
ENDBRANCH  20  29
ENDBRANCH   1  20
TORSDOF 6
ENDMDL
