MODEL 1
REMARK VINA RESULT:      -6.9      0.000      0.000
REMARK  Name = pdb/CHEMBL3979739.pdb
REMARK                            x       y       z     vdW  Elec       q    Type
REMARK                         _______ _______ _______ _____ _____    ______ ____
ROOT
ATOM      1  C   LIG    1      -31.291  87.159  30.623  0.00  0.00    +0.149 A 
ATOM      2  N   LIG    1      -32.119  87.984  29.983  0.00  0.00    -0.160 NA
ATOM      3  N   LIG    1      -33.113  87.219  29.467  0.00  0.00    -0.218 N 
ATOM      4  C   LIG    1      -32.841  85.847  29.656  0.00  0.00    +0.129 A 
ATOM      5  C   LIG    1      -31.733  85.826  30.480  0.00  0.00    +0.078 A 
ENDROOT
BRANCH   3   6
ATOM      6  C   LIG    1      -34.205  87.914  28.860  0.00  0.00    +0.067 A 
ATOM      7  C   LIG    1      -33.945  89.150  28.231  0.00  0.00    +0.028 A 
ATOM      8  C   LIG    1      -34.973  89.897  27.655  0.00  0.00    +0.002 A 
ATOM      9  C   LIG    1      -36.277  89.420  27.692  0.00  0.00    +0.000 A 
ATOM     10  C   LIG    1      -36.548  88.199  28.300  0.00  0.00    +0.002 A 
ATOM     11  C   LIG    1      -35.520  87.453  28.882  0.00  0.00    +0.028 A 
ENDBRANCH   3   6
BRANCH   4  12
ATOM     12  N   LIG    1      -33.522  84.708  29.180  0.00  0.00    -0.266 N 
ATOM     13  H   LIG    1      -33.244  84.301  28.308  0.00  0.00    +0.157 HD
ATOM     14  C   LIG    1      -34.555  84.009  29.913  0.00  0.00    +0.251 C 
ATOM     15  O   LIG    1      -34.902  84.408  31.025  0.00  0.00    -0.270 OA
BRANCH  14  16
ATOM     16  C   LIG    1      -35.215  82.817  29.327  0.00  0.00    +0.056 A 
ATOM     17  C   LIG    1      -36.577  82.725  29.057  0.00  0.00    +0.054 A 
ATOM     18 CL   LIG    1      -37.697  84.000  29.358  0.00  0.00    -0.083 Cl
ATOM     19  C   LIG    1      -37.096  81.555  28.495  0.00  0.00    +0.041 A 
ATOM     20  C   LIG    1      -36.261  80.473  28.164  0.00  0.00    +0.052 A 
ATOM     21 CL   LIG    1      -37.077  79.057  27.585  0.00  0.00    -0.083 Cl
ATOM     22  C   LIG    1      -34.868  80.536  28.364  0.00  0.00    +0.022 A 
ATOM     23  C   LIG    1      -34.382  81.724  28.975  0.00  0.00    +0.026 A 
BRANCH  22  24
ATOM     24  C   LIG    1      -33.925  79.457  27.947  0.00  0.00    +0.107 A 
ATOM     25  C   LIG    1      -33.638  78.333  28.726  0.00  0.00    +0.149 A 
ATOM     26  F   LIG    1      -34.241  78.135  29.908  0.00  0.00    -0.203 F 
ATOM     27  C   LIG    1      -32.706  77.393  28.290  0.00  0.00    +0.042 A 
ATOM     28  C   LIG    1      -32.072  77.580  27.069  0.00  0.00    +0.023 A 
ATOM     29  C   LIG    1      -32.404  78.706  26.339  0.00  0.00    +0.111 A 
ATOM     30  N   LIG    1      -33.290  79.646  26.757  0.00  0.00    -0.252 NA
ENDBRANCH  22  24
ENDBRANCH  14  16
ENDBRANCH   4  12
BRANCH   1  31
ATOM     31  C   LIG    1      -30.103  87.650  31.321  0.00  0.00    +0.236 C 
ATOM     32  N   LIG    1      -30.095  87.753  32.599  0.00  0.00    -0.243 NA
BRANCH  31  33
ATOM     33  O   LIG    1      -29.078  87.980  30.506  0.00  0.00    -0.491 OA
ATOM     34  H   LIG    1      -28.796  87.222  29.971  0.00  0.00    +0.294 HD
ENDBRANCH  31  33
BRANCH  32  35
ATOM     35  C   LIG    1      -28.932  88.257  33.310  0.00  0.00    +0.204 C 
BRANCH  35  36
ATOM     36  C   LIG    1      -28.378  87.185  34.175  0.00  0.00    +0.101 A 
ATOM     37  N   LIG    1      -29.085  86.025  34.424  0.00  0.00    -0.219 NA
ATOM     38  C   LIG    1      -28.255  85.321  35.164  0.00  0.00    +0.307 A 
ATOM     39  O   LIG    1      -27.063  85.920  35.434  0.00  0.00    -0.450 OA
ATOM     40  C   LIG    1      -27.148  87.116  34.790  0.00  0.00    +0.222 A 
ENDBRANCH  35  36
ENDBRANCH  32  35
ENDBRANCH   1  31
TORSDOF 8
ENDMDL
MODEL 2
REMARK VINA RESULT:      -6.7      8.190     10.547
REMARK  Name = pdb/CHEMBL3979739.pdb
REMARK                            x       y       z     vdW  Elec       q    Type
REMARK                         _______ _______ _______ _____ _____    ______ ____
ROOT
ATOM      1  C   LIG    1      -31.619  74.402  29.814  0.00  0.00    +0.149 A 
ATOM      2  N   LIG    1      -31.619  75.679  29.435  0.00  0.00    -0.160 NA
ATOM      3  N   LIG    1      -32.717  75.858  28.659  0.00  0.00    -0.218 N 
ATOM      4  C   LIG    1      -33.363  74.627  28.412  0.00  0.00    +0.129 A 
ATOM      5  C   LIG    1      -32.715  73.727  29.234  0.00  0.00    +0.078 A 
ENDROOT
BRANCH   3   6
ATOM      6  C   LIG    1      -33.005  77.199  28.257  0.00  0.00    +0.067 A 
ATOM      7  C   LIG    1      -32.297  77.736  27.161  0.00  0.00    +0.028 A 
ATOM      8  C   LIG    1      -32.503  79.052  26.744  0.00  0.00    +0.002 A 
ATOM      9  C   LIG    1      -33.422  79.852  27.412  0.00  0.00    +0.000 A 
ATOM     10  C   LIG    1      -34.134  79.333  28.487  0.00  0.00    +0.002 A 
ATOM     11  C   LIG    1      -33.925  78.018  28.909  0.00  0.00    +0.028 A 
ENDBRANCH   3   6
BRANCH   4  12
ATOM     12  N   LIG    1      -34.450  74.321  27.568  0.00  0.00    -0.266 N 
ATOM     13  H   LIG    1      -34.289  73.779  26.741  0.00  0.00    +0.157 HD
ATOM     14  C   LIG    1      -35.827  74.657  27.857  0.00  0.00    +0.251 C 
ATOM     15  O   LIG    1      -36.113  75.260  28.891  0.00  0.00    -0.270 OA
BRANCH  14  16
ATOM     16  C   LIG    1      -36.904  74.291  26.905  0.00  0.00    +0.056 A 
ATOM     17  C   LIG    1      -37.281  72.985  26.608  0.00  0.00    +0.054 A 
ATOM     18 CL   LIG    1      -36.550  71.596  27.321  0.00  0.00    -0.083 Cl
ATOM     19  C   LIG    1      -38.316  72.750  25.699  0.00  0.00    +0.041 A 
ATOM     20  C   LIG    1      -39.013  73.812  25.097  0.00  0.00    +0.052 A 
ATOM     21 CL   LIG    1      -40.187  73.351  23.909  0.00  0.00    -0.083 Cl
ATOM     22  C   LIG    1      -38.709  75.154  25.406  0.00  0.00    +0.022 A 
ATOM     23  C   LIG    1      -37.624  75.354  26.302  0.00  0.00    +0.026 A 
BRANCH  22  24
ATOM     24  C   LIG    1      -39.475  76.317  24.869  0.00  0.00    +0.107 A 
ATOM     25  C   LIG    1      -38.932  77.273  24.007  0.00  0.00    +0.149 A 
ATOM     26  F   LIG    1      -37.668  77.174  23.568  0.00  0.00    -0.203 F 
ATOM     27  C   LIG    1      -39.696  78.361  23.589  0.00  0.00    +0.042 A 
ATOM     28  C   LIG    1      -41.007  78.481  24.031  0.00  0.00    +0.023 A 
ATOM     29  C   LIG    1      -41.492  77.499  24.875  0.00  0.00    +0.111 A 
ATOM     30  N   LIG    1      -40.756  76.445  25.314  0.00  0.00    -0.252 NA
ENDBRANCH  22  24
ENDBRANCH  14  16
ENDBRANCH   4  12
BRANCH   1  31
ATOM     31  C   LIG    1      -30.576  73.857  30.684  0.00  0.00    +0.236 C 
ATOM     32  N   LIG    1      -29.935  74.622  31.488  0.00  0.00    -0.243 NA
BRANCH  31  33
ATOM     33  O   LIG    1      -30.368  72.531  30.536  0.00  0.00    -0.491 OA
ATOM     34  H   LIG    1      -29.638  72.356  29.922  0.00  0.00    +0.294 HD
ENDBRANCH  31  33
BRANCH  32  35
ATOM     35  C   LIG    1      -28.883  74.104  32.348  0.00  0.00    +0.204 C 
BRANCH  35  36
ATOM     36  C   LIG    1      -27.665  74.940  32.199  0.00  0.00    +0.101 A 
ATOM     37  N   LIG    1      -27.673  76.091  31.436  0.00  0.00    -0.219 NA
ATOM     38  C   LIG    1      -26.456  76.566  31.599  0.00  0.00    +0.307 A 
ATOM     39  O   LIG    1      -25.642  75.822  32.396  0.00  0.00    -0.450 OA
ATOM     40  C   LIG    1      -26.428  74.781  32.782  0.00  0.00    +0.222 A 
ENDBRANCH  35  36
ENDBRANCH  32  35
ENDBRANCH   1  31
TORSDOF 8
ENDMDL
MODEL 3
REMARK VINA RESULT:      -6.7     18.051     19.733
REMARK  Name = pdb/CHEMBL3979739.pdb
REMARK                            x       y       z     vdW  Elec       q    Type
REMARK                         _______ _______ _______ _____ _____    ______ ____
ROOT
ATOM      1  C   LIG    1      -22.845  82.733  15.477  0.00  0.00    +0.149 A 
ATOM      2  N   LIG    1      -23.828  82.193  14.755  0.00  0.00    -0.160 NA
ATOM      3  N   LIG    1      -23.733  80.849  14.907  0.00  0.00    -0.218 N 
ATOM      4  C   LIG    1      -22.569  80.506  15.628  0.00  0.00    +0.129 A 
ATOM      5  C   LIG    1      -22.070  81.715  16.072  0.00  0.00    +0.078 A 
ENDROOT
BRANCH   3   6
ATOM      6  C   LIG    1      -24.784  80.066  14.337  0.00  0.00    +0.067 A 
ATOM      7  C   LIG    1      -25.407  79.092  15.146  0.00  0.00    +0.028 A 
ATOM      8  C   LIG    1      -26.412  78.268  14.638  0.00  0.00    +0.002 A 
ATOM      9  C   LIG    1      -26.815  78.406  13.316  0.00  0.00    +0.000 A 
ATOM     10  C   LIG    1      -26.217  79.366  12.510  0.00  0.00    +0.002 A 
ATOM     11  C   LIG    1      -25.207  80.189  13.015  0.00  0.00    +0.028 A 
ENDBRANCH   3   6
BRANCH   4  12
ATOM     12  N   LIG    1      -22.009  79.243  15.909  0.00  0.00    -0.266 N 
ATOM     13  H   LIG    1      -22.021  78.901  16.851  0.00  0.00    +0.157 HD
ATOM     14  C   LIG    1      -21.487  78.340  14.906  0.00  0.00    +0.251 C 
ATOM     15  O   LIG    1      -21.503  78.660  13.718  0.00  0.00    -0.270 OA
BRANCH  14  16
ATOM     16  C   LIG    1      -20.916  77.030  15.301  0.00  0.00    +0.056 A 
ATOM     17  C   LIG    1      -19.588  76.828  15.667  0.00  0.00    +0.054 A 
ATOM     18 CL   LIG    1      -18.413  78.088  15.723  0.00  0.00    -0.083 Cl
ATOM     19  C   LIG    1      -19.154  75.550  16.030  0.00  0.00    +0.041 A 
ATOM     20  C   LIG    1      -20.043  74.462  16.067  0.00  0.00    +0.052 A 
ATOM     21 CL   LIG    1      -19.322  72.926  16.425  0.00  0.00    -0.083 Cl
ATOM     22  C   LIG    1      -21.409  74.623  15.761  0.00  0.00    +0.022 A 
ATOM     23  C   LIG    1      -21.805  75.927  15.356  0.00  0.00    +0.026 A 
BRANCH  22  24
ATOM     24  C   LIG    1      -22.414  73.525  15.873  0.00  0.00    +0.107 A 
ATOM     25  C   LIG    1      -23.143  73.255  17.034  0.00  0.00    +0.149 A 
ATOM     26  F   LIG    1      -23.006  74.013  18.132  0.00  0.00    -0.203 F 
ATOM     27  C   LIG    1      -24.027  72.179  17.077  0.00  0.00    +0.042 A 
ATOM     28  C   LIG    1      -24.184  71.382  15.951  0.00  0.00    +0.023 A 
ATOM     29  C   LIG    1      -23.444  71.705  14.828  0.00  0.00    +0.111 A 
ATOM     30  N   LIG    1      -22.559  72.733  14.774  0.00  0.00    -0.252 NA
ENDBRANCH  22  24
ENDBRANCH  14  16
ENDBRANCH   4  12
BRANCH   1  31
ATOM     31  C   LIG    1      -22.657  84.182  15.559  0.00  0.00    +0.236 C 
ATOM     32  N   LIG    1      -22.442  84.871  14.501  0.00  0.00    -0.243 NA
BRANCH  31  33
ATOM     33  O   LIG    1      -22.716  84.676  16.814  0.00  0.00    -0.491 OA
ATOM     34  H   LIG    1      -23.611  84.601  17.181  0.00  0.00    +0.294 HD
ENDBRANCH  31  33
BRANCH  32  35
ATOM     35  C   LIG    1      -22.233  86.308  14.563  0.00  0.00    +0.204 C 
BRANCH  35  36
ATOM     36  C   LIG    1      -20.859  86.631  14.104  0.00  0.00    +0.101 A 
ATOM     37  N   LIG    1      -19.970  85.636  13.745  0.00  0.00    -0.219 NA
ATOM     38  C   LIG    1      -18.910  86.311  13.351  0.00  0.00    +0.307 A 
ATOM     39  O   LIG    1      -19.019  87.665  13.429  0.00  0.00    -0.450 OA
ATOM     40  C   LIG    1      -20.276  87.863  13.910  0.00  0.00    +0.222 A 
ENDBRANCH  35  36
ENDBRANCH  32  35
ENDBRANCH   1  31
TORSDOF 8
ENDMDL
MODEL 4
REMARK VINA RESULT:      -6.6      9.133     14.914
REMARK  Name = pdb/CHEMBL3979739.pdb
REMARK                            x       y       z     vdW  Elec       q    Type
REMARK                         _______ _______ _______ _____ _____    ______ ____
ROOT
ATOM      1  C   LIG    1      -38.565  71.250  24.327  0.00  0.00    +0.149 A 
ATOM      2  N   LIG    1      -39.640  71.990  24.052  0.00  0.00    -0.160 NA
ATOM      3  N   LIG    1      -39.310  73.277  24.324  0.00  0.00    -0.218 N 
ATOM      4  C   LIG    1      -38.037  73.352  24.929  0.00  0.00    +0.129 A 
ATOM      5  C   LIG    1      -37.533  72.070  24.831  0.00  0.00    +0.078 A 
ENDROOT
BRANCH   3   6
ATOM      6  C   LIG    1      -40.269  74.273  23.959  0.00  0.00    +0.067 A 
ATOM      7  C   LIG    1      -41.514  73.849  23.450  0.00  0.00    +0.028 A 
ATOM      8  C   LIG    1      -42.478  74.771  23.038  0.00  0.00    +0.002 A 
ATOM      9  C   LIG    1      -42.216  76.131  23.135  0.00  0.00    +0.000 A 
ATOM     10  C   LIG    1      -40.997  76.564  23.644  0.00  0.00    +0.002 A 
ATOM     11  C   LIG    1      -40.029  75.642  24.051  0.00  0.00    +0.028 A 
ENDBRANCH   3   6
BRANCH   4  12
ATOM     12  N   LIG    1      -37.355  74.453  25.486  0.00  0.00    -0.266 N 
ATOM     13  H   LIG    1      -36.664  74.928  24.938  0.00  0.00    +0.157 HD
ATOM     14  C   LIG    1      -37.647  75.022  26.785  0.00  0.00    +0.251 C 
ATOM     15  O   LIG    1      -38.533  74.537  27.487  0.00  0.00    -0.270 OA
BRANCH  14  16
ATOM     16  C   LIG    1      -36.872  76.183  27.285  0.00  0.00    +0.056 A 
ATOM     17  C   LIG    1      -37.307  77.503  27.225  0.00  0.00    +0.054 A 
ATOM     18 CL   LIG    1      -38.828  77.977  26.565  0.00  0.00    -0.083 Cl
ATOM     19  C   LIG    1      -36.500  78.525  27.734  0.00  0.00    +0.041 A 
ATOM     20  C   LIG    1      -35.263  78.243  28.339  0.00  0.00    +0.052 A 
ATOM     21 CL   LIG    1      -34.335  79.629  28.813  0.00  0.00    -0.083 Cl
ATOM     22  C   LIG    1      -34.801  76.918  28.477  0.00  0.00    +0.022 A 
ATOM     23  C   LIG    1      -35.629  75.911  27.911  0.00  0.00    +0.026 A 
BRANCH  22  24
ATOM     24  C   LIG    1      -33.542  76.554  29.192  0.00  0.00    +0.107 A 
ATOM     25  C   LIG    1      -32.278  76.581  28.598  0.00  0.00    +0.149 A 
ATOM     26  F   LIG    1      -32.113  76.985  27.330  0.00  0.00    -0.203 F 
ATOM     27  C   LIG    1      -31.153  76.177  29.317  0.00  0.00    +0.042 A 
ATOM     28  C   LIG    1      -31.302  75.756  30.631  0.00  0.00    +0.023 A 
ATOM     29  C   LIG    1      -32.577  75.761  31.167  0.00  0.00    +0.111 A 
ATOM     30  N   LIG    1      -33.687  76.126  30.476  0.00  0.00    -0.252 NA
ENDBRANCH  22  24
ENDBRANCH  14  16
ENDBRANCH   4  12
BRANCH   1  31
ATOM     31  C   LIG    1      -38.557  69.800  24.130  0.00  0.00    +0.236 C 
ATOM     32  N   LIG    1      -37.498  69.205  23.725  0.00  0.00    -0.243 NA
BRANCH  31  33
ATOM     33  O   LIG    1      -39.738  69.200  24.395  0.00  0.00    -0.491 OA
ATOM     34  H   LIG    1      -39.873  68.425  23.828  0.00  0.00    +0.294 HD
ENDBRANCH  31  33
BRANCH  32  35
ATOM     35  C   LIG    1      -37.475  67.768  23.506  0.00  0.00    +0.204 C 
BRANCH  35  36
ATOM     36  C   LIG    1      -36.213  67.391  22.820  0.00  0.00    +0.101 A 
ATOM     37  N   LIG    1      -36.192  67.082  21.474  0.00  0.00    -0.219 NA
ATOM     38  C   LIG    1      -34.915  66.865  21.237  0.00  0.00    +0.307 A 
ATOM     39  O   LIG    1      -34.092  66.995  22.313  0.00  0.00    -0.450 OA
ATOM     40  C   LIG    1      -34.934  67.338  23.325  0.00  0.00    +0.222 A 
ENDBRANCH  35  36
ENDBRANCH  32  35
ENDBRANCH   1  31
TORSDOF 8
ENDMDL
MODEL 5
REMARK VINA RESULT:      -6.6     11.757     13.596
REMARK  Name = pdb/CHEMBL3979739.pdb
REMARK                            x       y       z     vdW  Elec       q    Type
REMARK                         _______ _______ _______ _____ _____    ______ ____
ROOT
ATOM      1  C   LIG    1      -24.050  78.563  34.127  0.00  0.00    +0.149 A 
ATOM      2  N   LIG    1      -23.015  78.534  33.288  0.00  0.00    -0.160 NA
ATOM      3  N   LIG    1      -23.097  77.366  32.604  0.00  0.00    -0.218 N 
ATOM      4  C   LIG    1      -24.132  76.555  33.118  0.00  0.00    +0.129 A 
ATOM      5  C   LIG    1      -24.794  77.369  34.016  0.00  0.00    +0.078 A 
ENDROOT
BRANCH   3   6
ATOM      6  C   LIG    1      -22.166  77.184  31.534  0.00  0.00    +0.067 A 
ATOM      7  C   LIG    1      -20.836  77.615  31.724  0.00  0.00    +0.028 A 
ATOM      8  C   LIG    1      -19.889  77.504  30.706  0.00  0.00    +0.002 A 
ATOM      9  C   LIG    1      -20.252  76.953  29.483  0.00  0.00    +0.000 A 
ATOM     10  C   LIG    1      -21.556  76.515  29.285  0.00  0.00    +0.002 A 
ATOM     11  C   LIG    1      -22.507  76.632  30.302  0.00  0.00    +0.028 A 
ENDBRANCH   3   6
BRANCH   4  12
ATOM     12  N   LIG    1      -24.492  75.228  32.805  0.00  0.00    -0.266 N 
ATOM     13  H   LIG    1      -24.197  74.486  33.410  0.00  0.00    +0.157 HD
ATOM     14  C   LIG    1      -25.351  74.854  31.703  0.00  0.00    +0.251 C 
ATOM     15  O   LIG    1      -25.812  75.718  30.957  0.00  0.00    -0.270 OA
BRANCH  14  16
ATOM     16  C   LIG    1      -25.673  73.428  31.453  0.00  0.00    +0.056 A 
ATOM     17  C   LIG    1      -26.923  72.855  31.667  0.00  0.00    +0.054 A 
ATOM     18 CL   LIG    1      -28.289  73.734  32.245  0.00  0.00    -0.083 Cl
ATOM     19  C   LIG    1      -27.122  71.499  31.392  0.00  0.00    +0.041 A 
ATOM     20  C   LIG    1      -26.088  70.702  30.869  0.00  0.00    +0.052 A 
ATOM     21 CL   LIG    1      -26.465  69.019  30.694  0.00  0.00    -0.083 Cl
ATOM     22  C   LIG    1      -24.820  71.246  30.581  0.00  0.00    +0.022 A 
ATOM     23  C   LIG    1      -24.643  72.617  30.912  0.00  0.00    +0.026 A 
BRANCH  22  24
ATOM     24  C   LIG    1      -23.717  70.471  29.940  0.00  0.00    +0.107 A 
ATOM     25  C   LIG    1      -23.723  70.075  28.601  0.00  0.00    +0.149 A 
ATOM     26  F   LIG    1      -24.730  70.413  27.781  0.00  0.00    -0.203 F 
ATOM     27  C   LIG    1      -22.678  69.309  28.087  0.00  0.00    +0.042 A 
ATOM     28  C   LIG    1      -21.626  68.950  28.919  0.00  0.00    +0.023 A 
ATOM     29  C   LIG    1      -21.671  69.380  30.233  0.00  0.00    +0.111 A 
ATOM     30  N   LIG    1      -22.691  70.105  30.758  0.00  0.00    -0.252 NA
ENDBRANCH  22  24
ENDBRANCH  14  16
ENDBRANCH   4  12
BRANCH   1  31
ATOM     31  C   LIG    1      -24.287  79.699  35.018  0.00  0.00    +0.236 C 
ATOM     32  N   LIG    1      -23.380  80.586  35.197  0.00  0.00    -0.243 NA
BRANCH  31  33
ATOM     33  O   LIG    1      -25.501  79.694  35.610  0.00  0.00    -0.491 OA
ATOM     34  H   LIG    1      -25.557  79.005  36.291  0.00  0.00    +0.294 HD
ENDBRANCH  31  33
BRANCH  32  35
ATOM     35  C   LIG    1      -23.588  81.712  36.092  0.00  0.00    +0.204 C 
BRANCH  35  36
ATOM     36  C   LIG    1      -22.295  82.102  36.708  0.00  0.00    +0.101 A 
ATOM     37  N   LIG    1      -22.227  83.093  37.668  0.00  0.00    -0.219 NA
ATOM     38  C   LIG    1      -20.953  83.102  37.999  0.00  0.00    +0.307 A 
ATOM     39  O   LIG    1      -20.171  82.209  37.332  0.00  0.00    -0.450 OA
ATOM     40  C   LIG    1      -21.042  81.567  36.508  0.00  0.00    +0.222 A 
ENDBRANCH  35  36
ENDBRANCH  32  35
ENDBRANCH   1  31
TORSDOF 8
ENDMDL
MODEL 6
REMARK VINA RESULT:      -6.6      9.315     11.954
REMARK  Name = pdb/CHEMBL3979739.pdb
REMARK                            x       y       z     vdW  Elec       q    Type
REMARK                         _______ _______ _______ _____ _____    ______ ____
ROOT
ATOM      1  C   LIG    1      -29.695  75.745  31.206  0.00  0.00    +0.149 A 
ATOM      2  N   LIG    1      -30.474  76.243  30.246  0.00  0.00    -0.160 NA
ATOM      3  N   LIG    1      -31.336  75.258  29.891  0.00  0.00    -0.218 N 
ATOM      4  C   LIG    1      -31.010  74.047  30.538  0.00  0.00    +0.129 A 
ATOM      5  C   LIG    1      -30.030  74.395  31.447  0.00  0.00    +0.078 A 
ENDROOT
BRANCH   3   6
ATOM      6  C   LIG    1      -32.372  75.616  28.972  0.00  0.00    +0.067 A 
ATOM      7  C   LIG    1      -32.246  76.827  28.260  0.00  0.00    +0.028 A 
ATOM      8  C   LIG    1      -33.241  77.253  27.379  0.00  0.00    +0.002 A 
ATOM      9  C   LIG    1      -34.375  76.473  27.190  0.00  0.00    +0.000 A 
ATOM     10  C   LIG    1      -34.508  75.273  27.877  0.00  0.00    +0.002 A 
ATOM     11  C   LIG    1      -33.516  74.848  28.764  0.00  0.00    +0.028 A 
ENDBRANCH   3   6
BRANCH   4  12
ATOM     12  N   LIG    1      -31.546  72.753  30.377  0.00  0.00    -0.266 N 
ATOM     13  H   LIG    1      -32.509  72.592  30.599  0.00  0.00    +0.157 HD
ATOM     14  C   LIG    1      -30.821  71.633  29.816  0.00  0.00    +0.251 C 
ATOM     15  O   LIG    1      -29.654  71.772  29.452  0.00  0.00    -0.270 OA
BRANCH  14  16
ATOM     16  C   LIG    1      -31.473  70.307  29.687  0.00  0.00    +0.056 A 
ATOM     17  C   LIG    1      -31.221  69.222  30.521  0.00  0.00    +0.054 A 
ATOM     18 CL   LIG    1      -30.113  69.271  31.840  0.00  0.00    -0.083 Cl
ATOM     19  C   LIG    1      -31.897  68.017  30.316  0.00  0.00    +0.041 A 
ATOM     20  C   LIG    1      -32.859  67.884  29.300  0.00  0.00    +0.052 A 
ATOM     21 CL   LIG    1      -33.521  66.293  29.106  0.00  0.00    -0.083 Cl
ATOM     22  C   LIG    1      -33.194  68.969  28.464  0.00  0.00    +0.022 A 
ATOM     23  C   LIG    1      -32.456  70.165  28.674  0.00  0.00    +0.026 A 
BRANCH  22  24
ATOM     24  C   LIG    1      -34.271  68.913  27.431  0.00  0.00    +0.107 A 
ATOM     25  C   LIG    1      -35.633  69.021  27.724  0.00  0.00    +0.149 A 
ATOM     26  F   LIG    1      -36.060  69.227  28.978  0.00  0.00    -0.203 F 
ATOM     27  C   LIG    1      -36.582  68.908  26.710  0.00  0.00    +0.042 A 
ATOM     28  C   LIG    1      -36.161  68.695  25.404  0.00  0.00    +0.023 A 
ATOM     29  C   LIG    1      -34.800  68.607  25.175  0.00  0.00    +0.111 A 
ATOM     30  N   LIG    1      -33.860  68.689  26.152  0.00  0.00    -0.252 NA
ENDBRANCH  22  24
ENDBRANCH  14  16
ENDBRANCH   4  12
BRANCH   1  31
ATOM     31  C   LIG    1      -28.650  76.547  31.843  0.00  0.00    +0.236 C 
ATOM     32  N   LIG    1      -27.578  75.994  32.276  0.00  0.00    -0.243 NA
BRANCH  31  33
ATOM     33  O   LIG    1      -28.940  77.863  31.932  0.00  0.00    -0.491 OA
ATOM     34  H   LIG    1      -29.844  78.046  31.631  0.00  0.00    +0.294 HD
ENDBRANCH  31  33
BRANCH  32  35
ATOM     35  C   LIG    1      -26.536  76.770  32.928  0.00  0.00    +0.204 C 
BRANCH  35  36
ATOM     36  C   LIG    1      -25.480  77.110  31.941  0.00  0.00    +0.101 A 
ATOM     37  N   LIG    1      -25.488  76.576  30.668  0.00  0.00    -0.219 NA
ATOM     38  C   LIG    1      -24.451  77.151  30.095  0.00  0.00    +0.307 A 
ATOM     39  O   LIG    1      -23.752  78.012  30.885  0.00  0.00    -0.450 OA
ATOM     40  C   LIG    1      -24.423  77.984  32.069  0.00  0.00    +0.222 A 
ENDBRANCH  35  36
ENDBRANCH  32  35
ENDBRANCH   1  31
TORSDOF 8
ENDMDL
MODEL 7
REMARK VINA RESULT:      -6.5      9.865     14.434
REMARK  Name = pdb/CHEMBL3979739.pdb
REMARK                            x       y       z     vdW  Elec       q    Type
REMARK                         _______ _______ _______ _____ _____    ______ ____
ROOT
ATOM      1  C   LIG    1      -23.979  83.056  37.237  0.00  0.00    +0.149 A 
ATOM      2  N   LIG    1      -22.975  83.239  38.095  0.00  0.00    -0.160 NA
ATOM      3  N   LIG    1      -21.874  82.677  37.536  0.00  0.00    -0.218 N 
ATOM      4  C   LIG    1      -22.210  81.985  36.352  0.00  0.00    +0.129 A 
ATOM      5  C   LIG    1      -23.529  82.320  36.120  0.00  0.00    +0.078 A 
ENDROOT
BRANCH   3   6
ATOM      6  C   LIG    1      -20.635  82.884  38.217  0.00  0.00    +0.067 A 
ATOM      7  C   LIG    1      -20.007  81.772  38.818  0.00  0.00    +0.028 A 
ATOM      8  C   LIG    1      -18.816  81.914  39.532  0.00  0.00    +0.002 A 
ATOM      9  C   LIG    1      -18.229  83.168  39.652  0.00  0.00    +0.000 A 
ATOM     10  C   LIG    1      -18.831  84.270  39.058  0.00  0.00    +0.002 A 
ATOM     11  C   LIG    1      -20.026  84.131  38.348  0.00  0.00    +0.028 A 
ENDBRANCH   3   6
BRANCH   4  12
ATOM     12  N   LIG    1      -21.422  81.161  35.523  0.00  0.00    -0.266 N 
ATOM     13  H   LIG    1      -21.012  81.549  34.695  0.00  0.00    +0.157 HD
ATOM     14  C   LIG    1      -21.076  79.789  35.827  0.00  0.00    +0.251 C 
ATOM     15  O   LIG    1      -21.483  79.264  36.862  0.00  0.00    -0.270 OA
BRANCH  14  16
ATOM     16  C   LIG    1      -20.240  79.002  34.888  0.00  0.00    +0.056 A 
ATOM     17  C   LIG    1      -18.874  78.789  35.041  0.00  0.00    +0.054 A 
ATOM     18 CL   LIG    1      -17.954  79.408  36.361  0.00  0.00    -0.083 Cl
ATOM     19  C   LIG    1      -18.180  78.023  34.100  0.00  0.00    +0.041 A 
ATOM     20  C   LIG    1      -18.844  77.430  33.012  0.00  0.00    +0.052 A 
ATOM     21 CL   LIG    1      -17.821  76.610  31.876  0.00  0.00    -0.083 Cl
ATOM     22  C   LIG    1      -20.236  77.566  32.842  0.00  0.00    +0.022 A 
ATOM     23  C   LIG    1      -20.900  78.386  33.794  0.00  0.00    +0.026 A 
BRANCH  22  24
ATOM     24  C   LIG    1      -21.006  76.884  31.760  0.00  0.00    +0.107 A 
ATOM     25  C   LIG    1      -21.077  77.351  30.445  0.00  0.00    +0.149 A 
ATOM     26  F   LIG    1      -20.407  78.448  30.060  0.00  0.00    -0.203 F 
ATOM     27  C   LIG    1      -21.859  76.686  29.502  0.00  0.00    +0.042 A 
ATOM     28  C   LIG    1      -22.559  75.548  29.880  0.00  0.00    +0.023 A 
ATOM     29  C   LIG    1      -22.441  75.129  31.192  0.00  0.00    +0.111 A 
ATOM     30  N   LIG    1      -21.705  75.776  32.132  0.00  0.00    -0.252 NA
ENDBRANCH  22  24
ENDBRANCH  14  16
ENDBRANCH   4  12
BRANCH   1  31
ATOM     31  C   LIG    1      -25.326  83.556  37.511  0.00  0.00    +0.236 C 
ATOM     32  N   LIG    1      -26.034  84.065  36.572  0.00  0.00    -0.243 NA
BRANCH  31  33
ATOM     33  O   LIG    1      -25.707  83.442  38.801  0.00  0.00    -0.491 OA
ATOM     34  H   LIG    1      -26.555  83.886  38.959  0.00  0.00    +0.294 HD
ENDBRANCH  31  33
BRANCH  32  35
ATOM     35  C   LIG    1      -27.368  84.585  36.827  0.00  0.00    +0.204 C 
BRANCH  35  36
ATOM     36  C   LIG    1      -27.715  85.589  35.790  0.00  0.00    +0.101 A 
ATOM     37  N   LIG    1      -26.818  86.568  35.410  0.00  0.00    -0.219 NA
ATOM     38  C   LIG    1      -27.460  87.207  34.454  0.00  0.00    +0.307 A 
ATOM     39  O   LIG    1      -28.707  86.739  34.176  0.00  0.00    -0.450 OA
ATOM     40  C   LIG    1      -28.862  85.696  35.036  0.00  0.00    +0.222 A 
ENDBRANCH  35  36
ENDBRANCH  32  35
ENDBRANCH   1  31
TORSDOF 8
ENDMDL
MODEL 8
REMARK VINA RESULT:      -6.4      9.398     15.826
REMARK  Name = pdb/CHEMBL3979739.pdb
REMARK                            x       y       z     vdW  Elec       q    Type
REMARK                         _______ _______ _______ _____ _____    ______ ____
ROOT
ATOM      1  C   LIG    1      -40.263  71.759  23.730  0.00  0.00    +0.149 A 
ATOM      2  N   LIG    1      -40.691  73.020  23.672  0.00  0.00    -0.160 NA
ATOM      3  N   LIG    1      -39.697  73.795  24.172  0.00  0.00    -0.218 N 
ATOM      4  C   LIG    1      -38.658  72.999  24.702  0.00  0.00    +0.129 A 
ATOM      5  C   LIG    1      -38.983  71.712  24.323  0.00  0.00    +0.078 A 
ENDROOT
BRANCH   3   6
ATOM      6  C   LIG    1      -39.877  75.210  24.070  0.00  0.00    +0.067 A 
ATOM      7  C   LIG    1      -41.101  75.695  23.564  0.00  0.00    +0.028 A 
ATOM      8  C   LIG    1      -41.324  77.063  23.402  0.00  0.00    +0.002 A 
ATOM      9  C   LIG    1      -40.330  77.969  23.748  0.00  0.00    +0.000 A 
ATOM     10  C   LIG    1      -39.122  77.507  24.257  0.00  0.00    +0.002 A 
ATOM     11  C   LIG    1      -38.896  76.137  24.415  0.00  0.00    +0.028 A 
ENDBRANCH   3   6
BRANCH   4  12
ATOM     12  N   LIG    1      -37.504  73.368  25.424  0.00  0.00    -0.266 N 
ATOM     13  H   LIG    1      -36.638  73.485  24.934  0.00  0.00    +0.157 HD
ATOM     14  C   LIG    1      -37.491  73.686  26.835  0.00  0.00    +0.251 C 
ATOM     15  O   LIG    1      -38.531  73.635  27.490  0.00  0.00    -0.270 OA
BRANCH  14  16
ATOM     16  C   LIG    1      -36.223  74.064  27.506  0.00  0.00    +0.056 A 
ATOM     17  C   LIG    1      -35.362  73.163  28.124  0.00  0.00    +0.054 A 
ATOM     18 CL   LIG    1      -35.645  71.463  28.187  0.00  0.00    -0.083 Cl
ATOM     19  C   LIG    1      -34.186  73.624  28.722  0.00  0.00    +0.041 A 
ATOM     20  C   LIG    1      -33.835  74.984  28.685  0.00  0.00    +0.052 A 
ATOM     21 CL   LIG    1      -32.406  75.407  29.572  0.00  0.00    -0.083 Cl
ATOM     22  C   LIG    1      -34.643  75.930  28.022  0.00  0.00    +0.022 A 
ATOM     23  C   LIG    1      -35.850  75.432  27.462  0.00  0.00    +0.026 A 
BRANCH  22  24
ATOM     24  C   LIG    1      -34.273  77.369  27.871  0.00  0.00    +0.107 A 
ATOM     25  C   LIG    1      -33.164  77.813  27.147  0.00  0.00    +0.149 A 
ATOM     26  F   LIG    1      -32.369  76.951  26.495  0.00  0.00    -0.203 F 
ATOM     27  C   LIG    1      -32.855  79.171  27.094  0.00  0.00    +0.042 A 
ATOM     28  C   LIG    1      -33.666  80.080  27.761  0.00  0.00    +0.023 A 
ATOM     29  C   LIG    1      -34.755  79.581  28.452  0.00  0.00    +0.111 A 
ATOM     30  N   LIG    1      -35.059  78.260  28.537  0.00  0.00    -0.252 NA
ENDBRANCH  22  24
ENDBRANCH  14  16
ENDBRANCH   4  12
BRANCH   1  31
ATOM     31  C   LIG    1      -41.083  70.645  23.252  0.00  0.00    +0.236 C 
ATOM     32  N   LIG    1      -41.149  70.377  22.000  0.00  0.00    -0.243 NA
BRANCH  31  33
ATOM     33  O   LIG    1      -41.738  69.981  24.228  0.00  0.00    -0.491 OA
ATOM     34  H   LIG    1      -41.990  69.090  23.939  0.00  0.00    +0.294 HD
ENDBRANCH  31  33
BRANCH  32  35
ATOM     35  C   LIG    1      -41.971  69.287  21.502  0.00  0.00    +0.204 C 
BRANCH  35  36
ATOM     36  C   LIG    1      -43.213  69.837  20.901  0.00  0.00    +0.101 A 
ATOM     37  N   LIG    1      -43.307  70.079  19.545  0.00  0.00    -0.219 NA
ATOM     38  C   LIG    1      -44.548  70.495  19.401  0.00  0.00    +0.307 A 
ATOM     39  O   LIG    1      -45.278  70.558  20.547  0.00  0.00    -0.450 OA
ATOM     40  C   LIG    1      -44.414  70.128  21.507  0.00  0.00    +0.222 A 
ENDBRANCH  35  36
ENDBRANCH  32  35
ENDBRANCH   1  31
TORSDOF 8
ENDMDL
MODEL 9
REMARK VINA RESULT:      -6.4     18.845     21.891
REMARK  Name = pdb/CHEMBL3979739.pdb
REMARK                            x       y       z     vdW  Elec       q    Type
REMARK                         _______ _______ _______ _____ _____    ______ ____
ROOT
ATOM      1  C   LIG    1      -24.741  79.416  14.672  0.00  0.00    +0.149 A 
ATOM      2  N   LIG    1      -23.614  78.759  14.945  0.00  0.00    -0.160 NA
ATOM      3  N   LIG    1      -22.628  79.686  15.018  0.00  0.00    -0.218 N 
ATOM      4  C   LIG    1      -23.106  80.959  14.640  0.00  0.00    +0.129 A 
ATOM      5  C   LIG    1      -24.471  80.793  14.522  0.00  0.00    +0.078 A 
ENDROOT
BRANCH   3   6
ATOM      6  C   LIG    1      -21.346  79.223  15.451  0.00  0.00    +0.067 A 
ATOM      7  C   LIG    1      -20.943  77.923  15.078  0.00  0.00    +0.028 A 
ATOM      8  C   LIG    1      -19.722  77.397  15.501  0.00  0.00    +0.002 A 
ATOM      9  C   LIG    1      -18.880  78.162  16.298  0.00  0.00    +0.000 A 
ATOM     10  C   LIG    1      -19.259  79.448  16.666  0.00  0.00    +0.002 A 
ATOM     11  C   LIG    1      -20.484  79.974  16.248  0.00  0.00    +0.028 A 
ENDBRANCH   3   6
BRANCH   4  12
ATOM     12  N   LIG    1      -22.415  82.173  14.449  0.00  0.00    -0.266 N 
ATOM     13  H   LIG    1      -22.462  82.879  15.158  0.00  0.00    +0.157 HD
ATOM     14  C   LIG    1      -21.549  82.452  13.324  0.00  0.00    +0.251 C 
ATOM     15  O   LIG    1      -21.384  81.605  12.446  0.00  0.00    -0.270 OA
BRANCH  14  16
ATOM     16  C   LIG    1      -20.864  83.763  13.211  0.00  0.00    +0.056 A 
ATOM     17  C   LIG    1      -19.518  83.974  13.491  0.00  0.00    +0.054 A 
ATOM     18 CL   LIG    1      -18.443  82.726  14.001  0.00  0.00    -0.083 Cl
ATOM     19  C   LIG    1      -18.969  85.251  13.345  0.00  0.00    +0.041 A 
ATOM     20  C   LIG    1      -19.746  86.329  12.886  0.00  0.00    +0.052 A 
ATOM     21 CL   LIG    1      -18.945  87.867  12.872  0.00  0.00    -0.083 Cl
ATOM     22  C   LIG    1      -21.100  86.158  12.535  0.00  0.00    +0.022 A 
ATOM     23  C   LIG    1      -21.634  84.856  12.736  0.00  0.00    +0.026 A 
BRANCH  22  24
ATOM     24  C   LIG    1      -21.946  87.244  11.956  0.00  0.00    +0.107 A 
ATOM     25  C   LIG    1      -22.810  88.040  12.712  0.00  0.00    +0.149 A 
ATOM     26  F   LIG    1      -22.902  87.897  14.043  0.00  0.00    -0.203 F 
ATOM     27  C   LIG    1      -23.606  89.001  12.092  0.00  0.00    +0.042 A 
ATOM     28  C   LIG    1      -23.525  89.165  10.715  0.00  0.00    +0.023 A 
ATOM     29  C   LIG    1      -22.644  88.355  10.023  0.00  0.00    +0.111 A 
ATOM     30  N   LIG    1      -21.879  87.397  10.605  0.00  0.00    -0.252 NA
ENDBRANCH  22  24
ENDBRANCH  14  16
ENDBRANCH   4  12
BRANCH   1  31
ATOM     31  C   LIG    1      -26.024  78.724  14.539  0.00  0.00    +0.236 C 
ATOM     32  N   LIG    1      -26.450  78.361  13.386  0.00  0.00    -0.243 NA
BRANCH  31  33
ATOM     33  O   LIG    1      -26.676  78.538  15.706  0.00  0.00    -0.491 OA
ATOM     34  H   LIG    1      -27.068  77.652  15.754  0.00  0.00    +0.294 HD
ENDBRANCH  31  33
BRANCH  32  35
ATOM     35  C   LIG    1      -27.729  77.688  13.230  0.00  0.00    +0.204 C 
BRANCH  35  36
ATOM     36  C   LIG    1      -27.520  76.219  13.224  0.00  0.00    +0.101 A 
ATOM     37  N   LIG    1      -27.188  75.536  14.378  0.00  0.00    -0.219 NA
ATOM     38  C   LIG    1      -27.149  74.281  13.982  0.00  0.00    +0.307 A 
ATOM     39  O   LIG    1      -27.417  74.077  12.664  0.00  0.00    -0.450 OA
ATOM     40  C   LIG    1      -27.659  75.327  12.184  0.00  0.00    +0.222 A 
ENDBRANCH  35  36
ENDBRANCH  32  35
ENDBRANCH   1  31
TORSDOF 8
ENDMDL
