MODEL 1
REMARK VINA RESULT:      -6.6      0.000      0.000
REMARK  Name = pdb/CHEMBL3910586.pdb
REMARK                            x       y       z     vdW  Elec       q    Type
REMARK                         _______ _______ _______ _____ _____    ______ ____
ROOT
ATOM      1  C   LIG    1      -24.149  83.046  37.105  0.00  0.00    +0.149 A 
ATOM      2  N   LIG    1      -23.217  83.210  38.060  0.00  0.00    -0.160 NA
ATOM      3  N   LIG    1      -22.075  82.707  37.538  0.00  0.00    -0.218 N 
ATOM      4  C   LIG    1      -22.302  82.090  36.303  0.00  0.00    +0.129 A 
ATOM      5  C   LIG    1      -23.609  82.371  35.985  0.00  0.00    +0.078 A 
ENDROOT
BRANCH   3   6
ATOM      6  C   LIG    1      -20.850  82.834  38.254  0.00  0.00    +0.067 A 
ATOM      7  C   LIG    1      -20.393  81.763  39.040  0.00  0.00    +0.028 A 
ATOM      8  C   LIG    1      -19.176  81.861  39.721  0.00  0.00    +0.002 A 
ATOM      9  C   LIG    1      -18.432  83.038  39.658  0.00  0.00    +0.000 A 
ATOM     10  C   LIG    1      -18.905  84.121  38.919  0.00  0.00    +0.002 A 
ATOM     11  C   LIG    1      -20.109  84.023  38.214  0.00  0.00    +0.028 A 
ENDBRANCH   3   6
BRANCH   4  12
ATOM     12  N   LIG    1      -21.433  81.248  35.597  0.00  0.00    -0.266 N 
ATOM     13  H   LIG    1      -20.850  81.691  34.901  0.00  0.00    +0.157 HD
ATOM     14  C   LIG    1      -21.312  79.829  35.878  0.00  0.00    +0.251 C 
ATOM     15  O   LIG    1      -22.011  79.291  36.706  0.00  0.00    -0.270 OA
BRANCH  14  16
ATOM     16  C   LIG    1      -20.356  79.075  35.014  0.00  0.00    +0.056 A 
ATOM     17  C   LIG    1      -19.011  78.910  35.372  0.00  0.00    +0.054 A 
ATOM     18 CL   LIG    1      -18.271  79.679  36.729  0.00  0.00    -0.083 Cl
ATOM     19  C   LIG    1      -18.174  78.131  34.565  0.00  0.00    +0.041 A 
ATOM     20  C   LIG    1      -18.646  77.548  33.379  0.00  0.00    +0.052 A 
ATOM     21 CL   LIG    1      -17.461  76.688  32.459  0.00  0.00    -0.083 Cl
ATOM     22  C   LIG    1      -19.981  77.723  32.972  0.00  0.00    +0.019 A 
ATOM     23  C   LIG    1      -20.816  78.469  33.841  0.00  0.00    +0.026 A 
BRANCH  22  24
ATOM     24  C   LIG    1      -20.562  77.273  31.684  0.00  0.00    +0.072 A 
ATOM     25  N   LIG    1      -21.862  76.873  31.781  0.00  0.00    -0.255 NA
ATOM     26  C   LIG    1      -22.501  76.500  30.648  0.00  0.00    +0.111 A 
ATOM     27  C   LIG    1      -21.908  76.493  29.399  0.00  0.00    +0.020 A 
ATOM     28  C   LIG    1      -20.577  76.868  29.312  0.00  0.00    +0.004 A 
ATOM     29  C   LIG    1      -19.889  77.241  30.466  0.00  0.00    +0.028 A 
ENDBRANCH  22  24
ENDBRANCH  14  16
ENDBRANCH   4  12
BRANCH   1  30
ATOM     30  C   LIG    1      -25.536  83.479  37.267  0.00  0.00    +0.236 C 
ATOM     31  N   LIG    1      -26.150  84.006  36.270  0.00  0.00    -0.243 NA
BRANCH  30  32
ATOM     32  O   LIG    1      -26.057  83.241  38.490  0.00  0.00    -0.491 OA
ATOM     33  H   LIG    1      -25.363  83.196  39.174  0.00  0.00    +0.294 HD
ENDBRANCH  30  32
BRANCH  31  34
ATOM     34  C   LIG    1      -27.530  84.477  36.411  0.00  0.00    +0.202 C 
BRANCH  34  35
ATOM     35  C   LIG    1      -27.756  85.713  35.597  0.00  0.00    +0.084 A 
ATOM     36  N   LIG    1      -26.782  86.635  35.508  0.00  0.00    -0.177 NA
ATOM     37  N   LIG    1      -27.256  87.513  34.604  0.00  0.00    -0.284 N 
ATOM     38  H   LIG    1      -26.668  88.295  34.334  0.00  0.00    +0.188 HD
ATOM     39  C   LIG    1      -28.498  87.197  34.141  0.00  0.00    +0.105 A 
ATOM     40  C   LIG    1      -28.865  86.042  34.784  0.00  0.00    +0.046 A 
ENDBRANCH  34  35
ENDBRANCH  31  34
ENDBRANCH   1  30
TORSDOF 8
ENDMDL
MODEL 2
REMARK VINA RESULT:      -6.5     13.596     17.497
REMARK  Name = pdb/CHEMBL3910586.pdb
REMARK                            x       y       z     vdW  Elec       q    Type
REMARK                         _______ _______ _______ _____ _____    ______ ____
ROOT
ATOM      1  C   LIG    1      -31.623  74.291  29.738  0.00  0.00    +0.149 A 
ATOM      2  N   LIG    1      -31.509  75.564  29.321  0.00  0.00    -0.160 NA
ATOM      3  N   LIG    1      -32.638  75.815  28.620  0.00  0.00    -0.218 N 
ATOM      4  C   LIG    1      -33.414  74.661  28.465  0.00  0.00    +0.129 A 
ATOM      5  C   LIG    1      -32.810  73.703  29.242  0.00  0.00    +0.078 A 
ENDROOT
BRANCH   3   6
ATOM      6  C   LIG    1      -32.896  77.129  28.134  0.00  0.00    +0.067 A 
ATOM      7  C   LIG    1      -33.821  77.947  28.805  0.00  0.00    +0.028 A 
ATOM      8  C   LIG    1      -34.058  79.251  28.360  0.00  0.00    +0.002 A 
ATOM      9  C   LIG    1      -33.412  79.730  27.222  0.00  0.00    +0.000 A 
ATOM     10  C   LIG    1      -32.530  78.906  26.524  0.00  0.00    +0.002 A 
ATOM     11  C   LIG    1      -32.267  77.609  26.977  0.00  0.00    +0.028 A 
ENDBRANCH   3   6
BRANCH   4  12
ATOM     12  N   LIG    1      -34.498  74.472  27.597  0.00  0.00    -0.266 N 
ATOM     13  H   LIG    1      -34.268  74.282  26.632  0.00  0.00    +0.157 HD
ATOM     14  C   LIG    1      -35.878  74.481  28.048  0.00  0.00    +0.251 C 
ATOM     15  O   LIG    1      -36.160  74.715  29.200  0.00  0.00    -0.270 OA
BRANCH  14  16
ATOM     16  C   LIG    1      -36.910  74.290  26.986  0.00  0.00    +0.056 A 
ATOM     17  C   LIG    1      -37.204  73.023  26.464  0.00  0.00    +0.054 A 
ATOM     18 CL   LIG    1      -36.319  71.590  26.846  0.00  0.00    -0.083 Cl
ATOM     19  C   LIG    1      -38.232  72.886  25.524  0.00  0.00    +0.041 A 
ATOM     20  C   LIG    1      -38.944  74.003  25.061  0.00  0.00    +0.052 A 
ATOM     21 CL   LIG    1      -40.123  73.670  23.840  0.00  0.00    -0.083 Cl
ATOM     22  C   LIG    1      -38.650  75.294  25.537  0.00  0.00    +0.019 A 
ATOM     23  C   LIG    1      -37.643  75.389  26.531  0.00  0.00    +0.026 A 
BRANCH  22  24
ATOM     24  C   LIG    1      -39.236  76.560  25.034  0.00  0.00    +0.072 A 
ATOM     25  N   LIG    1      -40.354  76.952  25.709  0.00  0.00    -0.255 NA
ATOM     26  C   LIG    1      -40.928  78.128  25.364  0.00  0.00    +0.111 A 
ATOM     27  C   LIG    1      -40.452  78.949  24.359  0.00  0.00    +0.020 A 
ATOM     28  C   LIG    1      -39.336  78.528  23.652  0.00  0.00    +0.004 A 
ATOM     29  C   LIG    1      -38.734  77.313  23.976  0.00  0.00    +0.028 A 
ENDBRANCH  22  24
ENDBRANCH  14  16
ENDBRANCH   4  12
BRANCH   1  30
ATOM     30  C   LIG    1      -30.606  73.629  30.554  0.00  0.00    +0.236 C 
ATOM     31  N   LIG    1      -30.200  74.196  31.632  0.00  0.00    -0.243 NA
BRANCH  30  32
ATOM     32  O   LIG    1      -30.205  72.430  30.082  0.00  0.00    -0.491 OA
ATOM     33  H   LIG    1      -29.857  71.861  30.794  0.00  0.00    +0.294 HD
ENDBRANCH  30  32
BRANCH  31  34
ATOM     34  C   LIG    1      -29.160  73.571  32.455  0.00  0.00    +0.202 C 
BRANCH  34  35
ATOM     35  C   LIG    1      -27.809  74.119  32.111  0.00  0.00    +0.084 A 
ATOM     36  N   LIG    1      -27.656  75.444  31.941  0.00  0.00    -0.177 NA
ATOM     37  N   LIG    1      -26.325  75.593  31.795  0.00  0.00    -0.284 N 
ATOM     38  H   LIG    1      -25.952  76.532  31.690  0.00  0.00    +0.188 HD
ATOM     39  C   LIG    1      -25.639  74.417  31.840  0.00  0.00    +0.105 A 
ATOM     40  C   LIG    1      -26.578  73.432  32.022  0.00  0.00    +0.046 A 
ENDBRANCH  34  35
ENDBRANCH  31  34
ENDBRANCH   1  30
TORSDOF 8
ENDMDL
MODEL 3
REMARK VINA RESULT:      -6.5     17.761     21.664
REMARK  Name = pdb/CHEMBL3910586.pdb
REMARK                            x       y       z     vdW  Elec       q    Type
REMARK                         _______ _______ _______ _____ _____    ______ ____
ROOT
ATOM      1  C   LIG    1      -35.901  71.844  27.131  0.00  0.00    +0.149 A 
ATOM      2  N   LIG    1      -36.860  72.700  26.739  0.00  0.00    -0.160 NA
ATOM      3  N   LIG    1      -37.376  72.169  25.606  0.00  0.00    -0.218 N 
ATOM      4  C   LIG    1      -36.653  71.046  25.191  0.00  0.00    +0.129 A 
ATOM      5  C   LIG    1      -35.759  70.788  26.201  0.00  0.00    +0.078 A 
ENDROOT
BRANCH   3   6
ATOM      6  C   LIG    1      -38.509  72.773  24.990  0.00  0.00    +0.067 A 
ATOM      7  C   LIG    1      -38.593  74.174  24.915  0.00  0.00    +0.028 A 
ATOM      8  C   LIG    1      -39.683  74.780  24.283  0.00  0.00    +0.002 A 
ATOM      9  C   LIG    1      -40.712  73.999  23.763  0.00  0.00    +0.000 A 
ATOM     10  C   LIG    1      -40.658  72.610  23.878  0.00  0.00    +0.002 A 
ATOM     11  C   LIG    1      -39.559  71.994  24.486  0.00  0.00    +0.028 A 
ENDBRANCH   3   6
BRANCH   4  12
ATOM     12  N   LIG    1      -36.723  70.398  23.950  0.00  0.00    -0.266 N 
ATOM     13  H   LIG    1      -36.254  70.855  23.181  0.00  0.00    +0.157 HD
ATOM     14  C   LIG    1      -37.372  69.112  23.771  0.00  0.00    +0.251 C 
ATOM     15  O   LIG    1      -37.941  68.562  24.685  0.00  0.00    -0.270 OA
BRANCH  14  16
ATOM     16  C   LIG    1      -37.378  68.576  22.377  0.00  0.00    +0.056 A 
ATOM     17  C   LIG    1      -38.431  68.838  21.490  0.00  0.00    +0.054 A 
ATOM     18 CL   LIG    1      -39.891  69.644  21.935  0.00  0.00    -0.083 Cl
ATOM     19  C   LIG    1      -38.353  68.377  20.171  0.00  0.00    +0.041 A 
ATOM     20  C   LIG    1      -37.258  67.616  19.732  0.00  0.00    +0.052 A 
ATOM     21 CL   LIG    1      -37.359  67.055  18.100  0.00  0.00    -0.083 Cl
ATOM     22  C   LIG    1      -36.201  67.304  20.606  0.00  0.00    +0.019 A 
ATOM     23  C   LIG    1      -36.284  67.836  21.918  0.00  0.00    +0.026 A 
BRANCH  22  24
ATOM     24  C   LIG    1      -35.060  66.405  20.304  0.00  0.00    +0.072 A 
ATOM     25  N   LIG    1      -35.435  65.133  19.989  0.00  0.00    -0.255 NA
ATOM     26  C   LIG    1      -34.470  64.252  19.639  0.00  0.00    +0.111 A 
ATOM     27  C   LIG    1      -33.124  64.565  19.592  0.00  0.00    +0.020 A 
ATOM     28  C   LIG    1      -32.746  65.851  19.946  0.00  0.00    +0.004 A 
ATOM     29  C   LIG    1      -33.719  66.775  20.327  0.00  0.00    +0.028 A 
ENDBRANCH  22  24
ENDBRANCH  14  16
ENDBRANCH   4  12
BRANCH   1  30
ATOM     30  C   LIG    1      -35.102  72.046  28.339  0.00  0.00    +0.236 C 
ATOM     31  N   LIG    1      -34.177  72.936  28.338  0.00  0.00    -0.243 NA
BRANCH  30  32
ATOM     32  O   LIG    1      -35.456  71.263  29.380  0.00  0.00    -0.491 OA
ATOM     33  H   LIG    1      -36.425  71.203  29.473  0.00  0.00    +0.294 HD
ENDBRANCH  30  32
BRANCH  31  34
ATOM     34  C   LIG    1      -33.340  73.141  29.523  0.00  0.00    +0.202 C 
BRANCH  34  35
ATOM     35  C   LIG    1      -32.667  74.477  29.475  0.00  0.00    +0.084 A 
ATOM     36  N   LIG    1      -33.412  75.590  29.354  0.00  0.00    -0.177 NA
ATOM     37  N   LIG    1      -32.517  76.588  29.492  0.00  0.00    -0.284 N 
ATOM     38  H   LIG    1      -32.855  77.545  29.476  0.00  0.00    +0.188 HD
ATOM     39  C   LIG    1      -31.239  76.150  29.667  0.00  0.00    +0.105 A 
ATOM     40  C   LIG    1      -31.296  74.778  29.638  0.00  0.00    +0.046 A 
ENDBRANCH  34  35
ENDBRANCH  31  34
ENDBRANCH   1  30
TORSDOF 8
ENDMDL
MODEL 4
REMARK VINA RESULT:      -6.5     12.328     15.993
REMARK  Name = pdb/CHEMBL3910586.pdb
REMARK                            x       y       z     vdW  Elec       q    Type
REMARK                         _______ _______ _______ _____ _____    ______ ____
ROOT
ATOM      1  C   LIG    1      -30.308  75.666  30.753  0.00  0.00    +0.149 A 
ATOM      2  N   LIG    1      -31.300  76.400  30.220  0.00  0.00    -0.160 NA
ATOM      3  N   LIG    1      -32.171  75.504  29.702  0.00  0.00    -0.218 N 
ATOM      4  C   LIG    1      -31.671  74.199  29.775  0.00  0.00    +0.129 A 
ATOM      5  C   LIG    1      -30.517  74.287  30.515  0.00  0.00    +0.078 A 
ENDROOT
BRANCH   3   6
ATOM      6  C   LIG    1      -33.411  75.950  29.160  0.00  0.00    +0.067 A 
ATOM      7  C   LIG    1      -33.569  76.032  27.766  0.00  0.00    +0.028 A 
ATOM      8  C   LIG    1      -34.791  76.436  27.221  0.00  0.00    +0.002 A 
ATOM      9  C   LIG    1      -35.844  76.800  28.057  0.00  0.00    +0.000 A 
ATOM     10  C   LIG    1      -35.677  76.767  29.441  0.00  0.00    +0.002 A 
ATOM     11  C   LIG    1      -34.466  76.340  29.996  0.00  0.00    +0.028 A 
ENDBRANCH   3   6
BRANCH   4  12
ATOM     12  N   LIG    1      -32.161  73.061  29.122  0.00  0.00    -0.266 N 
ATOM     13  H   LIG    1      -31.648  72.759  28.305  0.00  0.00    +0.157 HD
ATOM     14  C   LIG    1      -33.300  72.303  29.608  0.00  0.00    +0.251 C 
ATOM     15  O   LIG    1      -33.923  72.661  30.581  0.00  0.00    -0.270 OA
BRANCH  14  16
ATOM     16  C   LIG    1      -33.704  71.132  28.776  0.00  0.00    +0.056 A 
ATOM     17  C   LIG    1      -32.972  69.936  28.780  0.00  0.00    +0.054 A 
ATOM     18 CL   LIG    1      -31.461  69.731  29.590  0.00  0.00    -0.083 Cl
ATOM     19  C   LIG    1      -33.435  68.842  28.040  0.00  0.00    +0.041 A 
ATOM     20  C   LIG    1      -34.596  68.934  27.257  0.00  0.00    +0.052 A 
ATOM     21 CL   LIG    1      -34.980  67.519  26.342  0.00  0.00    -0.083 Cl
ATOM     22  C   LIG    1      -35.334  70.130  27.202  0.00  0.00    +0.019 A 
ATOM     23  C   LIG    1      -34.871  71.200  28.008  0.00  0.00    +0.026 A 
BRANCH  22  24
ATOM     24  C   LIG    1      -36.495  70.394  26.317  0.00  0.00    +0.072 A 
ATOM     25  N   LIG    1      -36.155  70.958  25.123  0.00  0.00    -0.255 NA
ATOM     26  C   LIG    1      -37.139  71.182  24.221  0.00  0.00    +0.111 A 
ATOM     27  C   LIG    1      -38.469  70.882  24.445  0.00  0.00    +0.020 A 
ATOM     28  C   LIG    1      -38.814  70.341  25.674  0.00  0.00    +0.004 A 
ATOM     29  C   LIG    1      -37.822  70.114  26.628  0.00  0.00    +0.028 A 
ENDBRANCH  22  24
ENDBRANCH  14  16
ENDBRANCH   4  12
BRANCH   1  30
ATOM     30  C   LIG    1      -29.159  76.260  31.436  0.00  0.00    +0.236 C 
ATOM     31  N   LIG    1      -28.120  75.540  31.660  0.00  0.00    -0.243 NA
BRANCH  30  32
ATOM     32  O   LIG    1      -29.307  77.566  31.746  0.00  0.00    -0.491 OA
ATOM     33  H   LIG    1      -29.450  78.111  30.950  0.00  0.00    +0.294 HD
ENDBRANCH  30  32
BRANCH  31  34
ATOM     34  C   LIG    1      -26.966  76.099  32.368  0.00  0.00    +0.202 C 
BRANCH  34  35
ATOM     35  C   LIG    1      -25.997  76.713  31.406  0.00  0.00    +0.084 A 
ATOM     36  N   LIG    1      -26.235  77.946  30.924  0.00  0.00    -0.177 NA
ATOM     37  N   LIG    1      -25.119  78.235  30.227  0.00  0.00    -0.284 N 
ATOM     38  H   LIG    1      -25.043  79.149  29.793  0.00  0.00    +0.188 HD
ATOM     39  C   LIG    1      -24.202  77.227  30.229  0.00  0.00    +0.105 A 
ATOM     40  C   LIG    1      -24.751  76.210  30.969  0.00  0.00    +0.046 A 
ENDBRANCH  34  35
ENDBRANCH  31  34
ENDBRANCH   1  30
TORSDOF 8
ENDMDL
MODEL 5
REMARK VINA RESULT:      -6.4     18.347     21.795
REMARK  Name = pdb/CHEMBL3910586.pdb
REMARK                            x       y       z     vdW  Elec       q    Type
REMARK                         _______ _______ _______ _____ _____    ______ ____
ROOT
ATOM      1  C   LIG    1      -38.167  76.554  26.086  0.00  0.00    +0.149 A 
ATOM      2  N   LIG    1      -39.392  76.900  25.652  0.00  0.00    -0.160 NA
ATOM      3  N   LIG    1      -39.901  75.783  25.083  0.00  0.00    -0.218 N 
ATOM      4  C   LIG    1      -38.950  74.757  25.025  0.00  0.00    +0.129 A 
ATOM      5  C   LIG    1      -37.867  75.218  25.732  0.00  0.00    +0.078 A 
ENDROOT
BRANCH   3   6
ATOM      6  C   LIG    1      -41.249  75.770  24.623  0.00  0.00    +0.067 A 
ATOM      7  C   LIG    1      -41.523  76.058  23.275  0.00  0.00    +0.028 A 
ATOM      8  C   LIG    1      -42.838  76.016  22.802  0.00  0.00    +0.002 A 
ATOM      9  C   LIG    1      -43.886  75.732  23.674  0.00  0.00    +0.000 A 
ATOM     10  C   LIG    1      -43.625  75.494  25.023  0.00  0.00    +0.002 A 
ATOM     11  C   LIG    1      -42.310  75.508  25.500  0.00  0.00    +0.028 A 
ENDBRANCH   3   6
BRANCH   4  12
ATOM     12  N   LIG    1      -39.024  73.568  24.288  0.00  0.00    -0.266 N 
ATOM     13  H   LIG    1      -38.725  73.621  23.324  0.00  0.00    +0.157 HD
ATOM     14  C   LIG    1      -39.441  72.306  24.872  0.00  0.00    +0.251 C 
ATOM     15  O   LIG    1      -39.806  72.236  26.022  0.00  0.00    -0.270 OA
BRANCH  14  16
ATOM     16  C   LIG    1      -39.486  71.142  23.937  0.00  0.00    +0.056 A 
ATOM     17  C   LIG    1      -40.546  70.959  23.037  0.00  0.00    +0.054 A 
ATOM     18 CL   LIG    1      -41.972  71.932  23.014  0.00  0.00    -0.083 Cl
ATOM     19  C   LIG    1      -40.504  69.894  22.131  0.00  0.00    +0.041 A 
ATOM     20  C   LIG    1      -39.442  68.978  22.137  0.00  0.00    +0.052 A 
ATOM     21 CL   LIG    1      -39.588  67.675  21.009  0.00  0.00    -0.083 Cl
ATOM     22  C   LIG    1      -38.380  69.110  23.050  0.00  0.00    +0.019 A 
ATOM     23  C   LIG    1      -38.425  70.233  23.915  0.00  0.00    +0.026 A 
BRANCH  22  24
ATOM     24  C   LIG    1      -37.274  68.141  23.244  0.00  0.00    +0.072 A 
ATOM     25  N   LIG    1      -36.230  68.326  22.387  0.00  0.00    -0.255 NA
ATOM     26  C   LIG    1      -35.144  67.529  22.524  0.00  0.00    +0.111 A 
ATOM     27  C   LIG    1      -35.039  66.532  23.476  0.00  0.00    +0.020 A 
ATOM     28  C   LIG    1      -36.118  66.327  24.322  0.00  0.00    +0.004 A 
ATOM     29  C   LIG    1      -37.255  67.123  24.192  0.00  0.00    +0.028 A 
ENDBRANCH  22  24
ENDBRANCH  14  16
ENDBRANCH   4  12
BRANCH   1  30
ATOM     30  C   LIG    1      -37.280  77.484  26.783  0.00  0.00    +0.236 C 
ATOM     31  N   LIG    1      -36.173  77.052  27.267  0.00  0.00    -0.243 NA
BRANCH  30  32
ATOM     32  O   LIG    1      -37.724  78.759  26.819  0.00  0.00    -0.491 OA
ATOM     33  H   LIG    1      -37.473  79.251  26.016  0.00  0.00    +0.294 HD
ENDBRANCH  30  32
BRANCH  31  34
ATOM     34  C   LIG    1      -35.277  77.954  27.997  0.00  0.00    +0.202 C 
BRANCH  34  35
ATOM     35  C   LIG    1      -33.968  78.095  27.284  0.00  0.00    +0.084 A 
ATOM     36  N   LIG    1      -33.543  79.316  26.917  0.00  0.00    -0.177 NA
ATOM     37  N   LIG    1      -32.299  79.092  26.450  0.00  0.00    -0.284 N 
ATOM     38  H   LIG    1      -31.747  79.887  26.144  0.00  0.00    +0.188 HD
ATOM     39  C   LIG    1      -31.935  77.780  26.483  0.00  0.00    +0.105 A 
ATOM     40  C   LIG    1      -33.008  77.097  27.000  0.00  0.00    +0.046 A 
ENDBRANCH  34  35
ENDBRANCH  31  34
ENDBRANCH   1  30
TORSDOF 8
ENDMDL
MODEL 6
REMARK VINA RESULT:      -6.4     17.949     21.341
REMARK  Name = pdb/CHEMBL3910586.pdb
REMARK                            x       y       z     vdW  Elec       q    Type
REMARK                         _______ _______ _______ _____ _____    ______ ____
ROOT
ATOM      1  C   LIG    1      -38.579  75.808  25.984  0.00  0.00    +0.149 A 
ATOM      2  N   LIG    1      -39.616  75.521  25.178  0.00  0.00    -0.160 NA
ATOM      3  N   LIG    1      -39.420  74.243  24.781  0.00  0.00    -0.218 N 
ATOM      4  C   LIG    1      -38.183  73.754  25.217  0.00  0.00    +0.129 A 
ATOM      5  C   LIG    1      -37.676  74.721  26.049  0.00  0.00    +0.078 A 
ENDROOT
BRANCH   3   6
ATOM      6  C   LIG    1      -40.413  73.579  24.005  0.00  0.00    +0.067 A 
ATOM      7  C   LIG    1      -41.502  74.311  23.501  0.00  0.00    +0.028 A 
ATOM      8  C   LIG    1      -42.466  73.681  22.709  0.00  0.00    +0.002 A 
ATOM      9  C   LIG    1      -42.376  72.314  22.453  0.00  0.00    +0.000 A 
ATOM     10  C   LIG    1      -41.324  71.573  22.991  0.00  0.00    +0.002 A 
ATOM     11  C   LIG    1      -40.341  72.201  23.763  0.00  0.00    +0.028 A 
ENDBRANCH   3   6
BRANCH   4  12
ATOM     12  N   LIG    1      -37.530  72.589  24.792  0.00  0.00    -0.266 N 
ATOM     13  H   LIG    1      -37.051  72.645  23.904  0.00  0.00    +0.157 HD
ATOM     14  C   LIG    1      -37.476  71.381  25.595  0.00  0.00    +0.251 C 
ATOM     15  O   LIG    1      -38.051  71.305  26.656  0.00  0.00    -0.270 OA
BRANCH  14  16
ATOM     16  C   LIG    1      -36.759  70.224  24.980  0.00  0.00    +0.056 A 
ATOM     17  C   LIG    1      -35.565  69.725  25.518  0.00  0.00    +0.054 A 
ATOM     18 CL   LIG    1      -34.706  70.468  26.819  0.00  0.00    -0.083 Cl
ATOM     19  C   LIG    1      -34.973  68.591  24.949  0.00  0.00    +0.041 A 
ATOM     20  C   LIG    1      -35.529  67.972  23.820  0.00  0.00    +0.052 A 
ATOM     21 CL   LIG    1      -34.627  66.637  23.193  0.00  0.00    -0.083 Cl
ATOM     22  C   LIG    1      -36.707  68.469  23.232  0.00  0.00    +0.019 A 
ATOM     23  C   LIG    1      -37.313  69.582  23.868  0.00  0.00    +0.026 A 
BRANCH  22  24
ATOM     24  C   LIG    1      -37.318  67.988  21.969  0.00  0.00    +0.072 A 
ATOM     25  N   LIG    1      -38.030  66.833  22.111  0.00  0.00    -0.255 NA
ATOM     26  C   LIG    1      -38.676  66.346  21.026  0.00  0.00    +0.111 A 
ATOM     27  C   LIG    1      -38.647  66.945  19.781  0.00  0.00    +0.020 A 
ATOM     28  C   LIG    1      -37.893  68.099  19.635  0.00  0.00    +0.004 A 
ATOM     29  C   LIG    1      -37.204  68.615  20.732  0.00  0.00    +0.028 A 
ENDBRANCH  22  24
ENDBRANCH  14  16
ENDBRANCH   4  12
BRANCH   1  30
ATOM     30  C   LIG    1      -38.421  77.104  26.643  0.00  0.00    +0.236 C 
ATOM     31  N   LIG    1      -37.464  77.269  27.483  0.00  0.00    -0.243 NA
BRANCH  30  32
ATOM     32  O   LIG    1      -39.317  78.039  26.261  0.00  0.00    -0.491 OA
ATOM     33  H   LIG    1      -39.773  77.785  25.437  0.00  0.00    +0.294 HD
ENDBRANCH  30  32
BRANCH  31  34
ATOM     34  C   LIG    1      -37.298  78.546  28.182  0.00  0.00    +0.202 C 
BRANCH  34  35
ATOM     35  C   LIG    1      -35.918  79.090  27.976  0.00  0.00    +0.084 A 
ATOM     36  N   LIG    1      -34.935  78.266  27.575  0.00  0.00    -0.177 NA
ATOM     37  N   LIG    1      -33.897  79.095  27.352  0.00  0.00    -0.284 N 
ATOM     38  H   LIG    1      -33.031  78.702  26.996  0.00  0.00    +0.188 HD
ATOM     39  C   LIG    1      -34.178  80.401  27.621  0.00  0.00    +0.105 A 
ATOM     40  C   LIG    1      -35.481  80.431  28.052  0.00  0.00    +0.046 A 
ENDBRANCH  34  35
ENDBRANCH  31  34
ENDBRANCH   1  30
TORSDOF 8
ENDMDL
MODEL 7
REMARK VINA RESULT:      -6.4     11.344     15.118
REMARK  Name = pdb/CHEMBL3910586.pdb
REMARK                            x       y       z     vdW  Elec       q    Type
REMARK                         _______ _______ _______ _____ _____    ______ ____
ROOT
ATOM      1  C   LIG    1      -29.736  75.677  31.161  0.00  0.00    +0.149 A 
ATOM      2  N   LIG    1      -30.541  76.163  30.200  0.00  0.00    -0.160 NA
ATOM      3  N   LIG    1      -31.432  75.177  29.945  0.00  0.00    -0.218 N 
ATOM      4  C   LIG    1      -31.115  74.005  30.640  0.00  0.00    +0.129 A 
ATOM      5  C   LIG    1      -30.079  74.341  31.477  0.00  0.00    +0.078 A 
ENDROOT
BRANCH   3   6
ATOM      6  C   LIG    1      -32.515  75.413  29.050  0.00  0.00    +0.067 A 
ATOM      7  C   LIG    1      -33.564  74.482  28.972  0.00  0.00    +0.028 A 
ATOM      8  C   LIG    1      -34.650  74.716  28.123  0.00  0.00    +0.002 A 
ATOM      9  C   LIG    1      -34.675  75.852  27.317  0.00  0.00    +0.000 A 
ATOM     10  C   LIG    1      -33.612  76.755  27.354  0.00  0.00    +0.002 A 
ATOM     11  C   LIG    1      -32.534  76.541  28.219  0.00  0.00    +0.028 A 
ENDBRANCH   3   6
BRANCH   4  12
ATOM     12  N   LIG    1      -31.642  72.724  30.435  0.00  0.00    -0.266 N 
ATOM     13  H   LIG    1      -32.566  72.556  30.807  0.00  0.00    +0.157 HD
ATOM     14  C   LIG    1      -30.945  71.698  29.679  0.00  0.00    +0.251 C 
ATOM     15  O   LIG    1      -29.836  71.889  29.237  0.00  0.00    -0.270 OA
BRANCH  14  16
ATOM     16  C   LIG    1      -31.640  70.380  29.580  0.00  0.00    +0.056 A 
ATOM     17  C   LIG    1      -31.317  69.310  30.426  0.00  0.00    +0.054 A 
ATOM     18 CL   LIG    1      -30.000  69.324  31.542  0.00  0.00    -0.083 Cl
ATOM     19  C   LIG    1      -32.049  68.120  30.343  0.00  0.00    +0.041 A 
ATOM     20  C   LIG    1      -33.072  67.963  29.395  0.00  0.00    +0.052 A 
ATOM     21 CL   LIG    1      -33.818  66.403  29.371  0.00  0.00    -0.083 Cl
ATOM     22  C   LIG    1      -33.397  69.003  28.506  0.00  0.00    +0.019 A 
ATOM     23  C   LIG    1      -32.676  70.215  28.656  0.00  0.00    +0.026 A 
BRANCH  22  24
ATOM     24  C   LIG    1      -34.360  68.915  27.381  0.00  0.00    +0.072 A 
ATOM     25  N   LIG    1      -35.642  69.215  27.734  0.00  0.00    -0.255 NA
ATOM     26  C   LIG    1      -36.586  69.222  26.764  0.00  0.00    +0.111 A 
ATOM     27  C   LIG    1      -36.325  68.933  25.438  0.00  0.00    +0.020 A 
ATOM     28  C   LIG    1      -35.026  68.595  25.091  0.00  0.00    +0.004 A 
ATOM     29  C   LIG    1      -34.037  68.564  26.074  0.00  0.00    +0.028 A 
ENDBRANCH  22  24
ENDBRANCH  14  16
ENDBRANCH   4  12
BRANCH   1  30
ATOM     30  C   LIG    1      -28.634  76.447  31.738  0.00  0.00    +0.236 C 
ATOM     31  N   LIG    1      -27.544  75.844  32.051  0.00  0.00    -0.243 NA
BRANCH  30  32
ATOM     32  O   LIG    1      -28.878  77.769  31.858  0.00  0.00    -0.491 OA
ATOM     33  H   LIG    1      -29.703  78.026  31.404  0.00  0.00    +0.294 HD
ENDBRANCH  30  32
BRANCH  31  34
ATOM     34  C   LIG    1      -26.434  76.583  32.658  0.00  0.00    +0.202 C 
BRANCH  34  35
ATOM     35  C   LIG    1      -25.430  76.982  31.621  0.00  0.00    +0.084 A 
ATOM     36  N   LIG    1      -25.853  77.499  30.455  0.00  0.00    -0.177 NA
ATOM     37  N   LIG    1      -24.714  77.873  29.841  0.00  0.00    -0.284 N 
ATOM     38  H   LIG    1      -24.779  78.337  28.940  0.00  0.00    +0.188 HD
ATOM     39  C   LIG    1      -23.592  77.588  30.560  0.00  0.00    +0.105 A 
ATOM     40  C   LIG    1      -24.020  76.985  31.717  0.00  0.00    +0.046 A 
ENDBRANCH  34  35
ENDBRANCH  31  34
ENDBRANCH   1  30
TORSDOF 8
ENDMDL
MODEL 8
REMARK VINA RESULT:      -6.4      9.750     14.309
REMARK  Name = pdb/CHEMBL3910586.pdb
REMARK                            x       y       z     vdW  Elec       q    Type
REMARK                         _______ _______ _______ _____ _____    ______ ____
ROOT
ATOM      1  C   LIG    1      -31.450  86.984  30.826  0.00  0.00    +0.149 A 
ATOM      2  N   LIG    1      -32.395  87.816  30.357  0.00  0.00    -0.160 NA
ATOM      3  N   LIG    1      -33.427  87.020  29.993  0.00  0.00    -0.218 N 
ATOM      4  C   LIG    1      -33.091  85.666  30.095  0.00  0.00    +0.129 A 
ATOM      5  C   LIG    1      -31.858  85.636  30.699  0.00  0.00    +0.078 A 
ENDROOT
BRANCH   3   6
ATOM      6  C   LIG    1      -34.654  87.600  29.560  0.00  0.00    +0.067 A 
ATOM      7  C   LIG    1      -35.804  87.462  30.356  0.00  0.00    +0.028 A 
ATOM      8  C   LIG    1      -37.007  88.055  29.961  0.00  0.00    +0.002 A 
ATOM      9  C   LIG    1      -37.082  88.748  28.755  0.00  0.00    +0.000 A 
ATOM     10  C   LIG    1      -35.956  88.847  27.938  0.00  0.00    +0.002 A 
ATOM     11  C   LIG    1      -34.742  88.279  28.337  0.00  0.00    +0.028 A 
ENDBRANCH   3   6
BRANCH   4  12
ATOM     12  N   LIG    1      -33.792  84.572  29.571  0.00  0.00    -0.266 N 
ATOM     13  H   LIG    1      -33.941  84.574  28.572  0.00  0.00    +0.157 HD
ATOM     14  C   LIG    1      -34.234  83.456  30.388  0.00  0.00    +0.251 C 
ATOM     15  O   LIG    1      -34.065  83.450  31.586  0.00  0.00    -0.270 OA
BRANCH  14  16
ATOM     16  C   LIG    1      -34.991  82.386  29.673  0.00  0.00    +0.056 A 
ATOM     17  C   LIG    1      -36.391  82.394  29.603  0.00  0.00    +0.054 A 
ATOM     18 CL   LIG    1      -37.395  83.511  30.454  0.00  0.00    -0.083 Cl
ATOM     19  C   LIG    1      -37.049  81.410  28.856  0.00  0.00    +0.041 A 
ATOM     20  C   LIG    1      -36.334  80.388  28.213  0.00  0.00    +0.052 A 
ATOM     21 CL   LIG    1      -37.305  79.208  27.404  0.00  0.00    -0.083 Cl
ATOM     22  C   LIG    1      -34.931  80.330  28.292  0.00  0.00    +0.019 A 
ATOM     23  C   LIG    1      -34.292  81.374  29.008  0.00  0.00    +0.026 A 
BRANCH  22  24
ATOM     24  C   LIG    1      -34.076  79.236  27.771  0.00  0.00    +0.072 A 
ATOM     25  N   LIG    1      -33.208  79.636  26.798  0.00  0.00    -0.255 NA
ATOM     26  C   LIG    1      -32.342  78.723  26.301  0.00  0.00    +0.111 A 
ATOM     27  C   LIG    1      -32.294  77.405  26.715  0.00  0.00    +0.020 A 
ATOM     28  C   LIG    1      -33.202  76.996  27.680  0.00  0.00    +0.004 A 
ATOM     29  C   LIG    1      -34.116  77.912  28.198  0.00  0.00    +0.028 A 
ENDBRANCH  22  24
ENDBRANCH  14  16
ENDBRANCH   4  12
BRANCH   1  30
ATOM     30  C   LIG    1      -30.165  87.453  31.343  0.00  0.00    +0.236 C 
ATOM     31  N   LIG    1      -29.940  87.404  32.606  0.00  0.00    -0.243 NA
BRANCH  30  32
ATOM     32  O   LIG    1      -29.303  87.880  30.395  0.00  0.00    -0.491 OA
ATOM     33  H   LIG    1      -28.528  87.292  30.321  0.00  0.00    +0.294 HD
ENDBRANCH  30  32
BRANCH  31  34
ATOM     34  C   LIG    1      -28.674  87.894  33.157  0.00  0.00    +0.202 C 
BRANCH  34  35
ATOM     35  C   LIG    1      -28.163  86.972  34.219  0.00  0.00    +0.084 A 
ATOM     36  N   LIG    1      -27.028  87.278  34.872  0.00  0.00    -0.177 NA
ATOM     37  N   LIG    1      -26.950  86.336  35.832  0.00  0.00    -0.284 N 
ATOM     38  H   LIG    1      -26.181  86.382  36.493  0.00  0.00    +0.188 HD
ATOM     39  C   LIG    1      -27.971  85.435  35.793  0.00  0.00    +0.105 A 
ATOM     40  C   LIG    1      -28.769  85.806  34.739  0.00  0.00    +0.046 A 
ENDBRANCH  34  35
ENDBRANCH  31  34
ENDBRANCH   1  30
TORSDOF 8
ENDMDL
MODEL 9
REMARK VINA RESULT:      -6.4     15.929     18.857
REMARK  Name = pdb/CHEMBL3910586.pdb
REMARK                            x       y       z     vdW  Elec       q    Type
REMARK                         _______ _______ _______ _____ _____    ______ ____
ROOT
ATOM      1  C   LIG    1      -37.428  80.165  27.721  0.00  0.00    +0.149 A 
ATOM      2  N   LIG    1      -36.504  79.380  28.303  0.00  0.00    -0.160 NA
ATOM      3  N   LIG    1      -36.681  78.154  27.758  0.00  0.00    -0.218 N 
ATOM      4  C   LIG    1      -37.809  78.116  26.932  0.00  0.00    +0.129 A 
ATOM      5  C   LIG    1      -38.245  79.416  26.843  0.00  0.00    +0.078 A 
ENDROOT
BRANCH   3   6
ATOM      6  C   LIG    1      -35.774  77.101  28.071  0.00  0.00    +0.067 A 
ATOM      7  C   LIG    1      -34.716  76.814  27.192  0.00  0.00    +0.028 A 
ATOM      8  C   LIG    1      -33.799  75.806  27.503  0.00  0.00    +0.002 A 
ATOM      9  C   LIG    1      -33.955  75.051  28.663  0.00  0.00    +0.000 A 
ATOM     10  C   LIG    1      -35.032  75.299  29.515  0.00  0.00    +0.002 A 
ATOM     11  C   LIG    1      -35.940  76.323  29.225  0.00  0.00    +0.028 A 
ENDBRANCH   3   6
BRANCH   4  12
ATOM     12  N   LIG    1      -38.448  76.983  26.413  0.00  0.00    -0.266 N 
ATOM     13  H   LIG    1      -39.209  76.609  26.961  0.00  0.00    +0.157 HD
ATOM     14  C   LIG    1      -38.096  76.399  25.131  0.00  0.00    +0.251 C 
ATOM     15  O   LIG    1      -37.182  76.837  24.472  0.00  0.00    -0.270 OA
BRANCH  14  16
ATOM     16  C   LIG    1      -38.860  75.177  24.741  0.00  0.00    +0.056 A 
ATOM     17  C   LIG    1      -40.128  75.259  24.148  0.00  0.00    +0.054 A 
ATOM     18 CL   LIG    1      -41.013  76.729  23.956  0.00  0.00    -0.083 Cl
ATOM     19  C   LIG    1      -40.771  74.087  23.732  0.00  0.00    +0.041 A 
ATOM     20  C   LIG    1      -40.189  72.827  23.940  0.00  0.00    +0.052 A 
ATOM     21 CL   LIG    1      -41.152  71.480  23.444  0.00  0.00    -0.083 Cl
ATOM     22  C   LIG    1      -38.934  72.707  24.565  0.00  0.00    +0.019 A 
ATOM     23  C   LIG    1      -38.284  73.916  24.921  0.00  0.00    +0.026 A 
BRANCH  22  24
ATOM     24  C   LIG    1      -38.276  71.437  24.957  0.00  0.00    +0.072 A 
ATOM     25  N   LIG    1      -38.777  70.894  26.103  0.00  0.00    -0.255 NA
ATOM     26  C   LIG    1      -38.283  69.702  26.512  0.00  0.00    +0.111 A 
ATOM     27  C   LIG    1      -37.293  69.009  25.840  0.00  0.00    +0.020 A 
ATOM     28  C   LIG    1      -36.765  69.583  24.695  0.00  0.00    +0.004 A 
ATOM     29  C   LIG    1      -37.244  70.818  24.259  0.00  0.00    +0.028 A 
ENDBRANCH  22  24
ENDBRANCH  14  16
ENDBRANCH   4  12
BRANCH   1  30
ATOM     30  C   LIG    1      -37.564  81.589  28.025  0.00  0.00    +0.236 C 
ATOM     31  N   LIG    1      -37.714  82.425  27.062  0.00  0.00    -0.243 NA
BRANCH  30  32
ATOM     32  O   LIG    1      -37.545  81.884  29.343  0.00  0.00    -0.491 OA
ATOM     33  H   LIG    1      -36.805  81.443  29.800  0.00  0.00    +0.294 HD
ENDBRANCH  30  32
BRANCH  31  34
ATOM     34  C   LIG    1      -37.823  83.861  27.333  0.00  0.00    +0.202 C 
BRANCH  34  35
ATOM     35  C   LIG    1      -36.483  84.523  27.242  0.00  0.00    +0.084 A 
ATOM     36  N   LIG    1      -35.904  84.682  26.039  0.00  0.00    -0.177 NA
ATOM     37  N   LIG    1      -34.813  85.426  26.307  0.00  0.00    -0.284 N 
ATOM     38  H   LIG    1      -34.223  85.716  25.533  0.00  0.00    +0.188 HD
ATOM     39  C   LIG    1      -34.667  85.717  27.630  0.00  0.00    +0.105 A 
ATOM     40  C   LIG    1      -35.726  85.124  28.272  0.00  0.00    +0.046 A 
ENDBRANCH  34  35
ENDBRANCH  31  34
ENDBRANCH   1  30
TORSDOF 8
ENDMDL
