MODEL 1
REMARK VINA RESULT:      -6.8      0.000      0.000
REMARK  Name = pdb/CHEMBL3675943.pdb
REMARK                            x       y       z     vdW  Elec       q    Type
REMARK                         _______ _______ _______ _____ _____    ______ ____
ROOT
ATOM      1  C   LIG    1      -38.474  79.113  27.271  0.00  0.00    +0.031 C 
ATOM      2  C   LIG    1      -38.996  78.057  26.294  0.00  0.00    +0.031 C 
ATOM      3  N   LIG    1      -38.085  76.910  26.101  0.00  0.00    -0.303 N 
ATOM      4  C   LIG    1      -38.154  76.422  24.705  0.00  0.00    +0.108 C 
ATOM      5  C   LIG    1      -39.053  77.429  23.968  0.00  0.00    +0.029 C 
ATOM      6  C   LIG    1      -39.067  78.650  24.876  0.00  0.00    +0.027 C 
ATOM      7  C   LIG    1      -40.376  77.564  26.756  0.00  0.00    +0.031 C 
ENDROOT
BRANCH   3   8
ATOM      8  C   LIG    1      -37.026  76.610  26.952  0.00  0.00    +0.126 A 
ATOM      9  N   LIG    1      -35.821  77.070  26.669  0.00  0.00    -0.212 NA
ATOM     10  C   LIG    1      -34.797  76.784  27.547  0.00  0.00    +0.170 A 
ATOM     11  C   LIG    1      -33.456  77.128  27.570  0.00  0.00    +0.100 A 
ATOM     12  C   LIG    1      -32.949  76.504  28.727  0.00  0.00    +0.150 A 
ATOM     13  N   LIG    1      -33.874  75.831  29.409  0.00  0.00    -0.173 NA
ATOM     14  N   LIG    1      -35.005  76.010  28.692  0.00  0.00    -0.221 N 
ATOM     15  C   LIG    1      -36.258  75.506  28.983  0.00  0.00    +0.118 A 
ATOM     16  C   LIG    1      -37.290  75.762  28.174  0.00  0.00    +0.063 A 
BRANCH  11  17
ATOM     17  C   LIG    1      -32.691  77.940  26.650  0.00  0.00    +0.247 C 
ATOM     18  N   LIG    1      -33.065  79.245  26.553  0.00  0.00    -0.325 N 
ATOM     19  H   LIG    1      -32.528  79.857  25.959  0.00  0.00    +0.145 HD
ATOM     20  H   LIG    1      -33.823  79.607  27.123  0.00  0.00    +0.145 HD
ATOM     21  O   LIG    1      -31.748  77.502  25.995  0.00  0.00    -0.270 OA
ENDBRANCH  11  17
ENDBRANCH   3   8
BRANCH   4  22
ATOM     22  C   LIG    1      -38.646  74.988  24.618  0.00  0.00    +0.011 A 
ATOM     23  C   LIG    1      -39.941  74.730  24.150  0.00  0.00    +0.129 A 
ATOM     24  F   LIG    1      -40.744  75.752  23.825  0.00  0.00    -0.205 F 
ATOM     25  C   LIG    1      -40.424  73.429  23.993  0.00  0.00    +0.041 A 
ATOM     26  C   LIG    1      -39.605  72.345  24.305  0.00  0.00    +0.041 A 
ATOM     27  C   LIG    1      -38.321  72.583  24.780  0.00  0.00    +0.124 A 
ATOM     28  F   LIG    1      -37.527  71.548  25.079  0.00  0.00    -0.205 F 
ATOM     29  C   LIG    1      -37.843  73.880  24.943  0.00  0.00    +0.046 A 
ENDBRANCH   4  22
TORSDOF 3
ENDMDL
MODEL 2
REMARK VINA RESULT:      -6.8      2.170      2.558
REMARK  Name = pdb/CHEMBL3675943.pdb
REMARK                            x       y       z     vdW  Elec       q    Type
REMARK                         _______ _______ _______ _____ _____    ______ ____
ROOT
ATOM      1  C   LIG    1      -40.312  80.195  26.757  0.00  0.00    +0.031 C 
ATOM      2  C   LIG    1      -40.368  79.025  25.773  0.00  0.00    +0.031 C 
ATOM      3  N   LIG    1      -39.236  78.083  25.890  0.00  0.00    -0.303 N 
ATOM      4  C   LIG    1      -38.867  77.547  24.560  0.00  0.00    +0.108 C 
ATOM      5  C   LIG    1      -39.733  78.327  23.555  0.00  0.00    +0.029 C 
ATOM      6  C   LIG    1      -40.200  79.547  24.334  0.00  0.00    +0.027 C 
ATOM      7  C   LIG    1      -41.699  78.276  25.936  0.00  0.00    +0.031 C 
ENDROOT
BRANCH   3   8
ATOM      8  C   LIG    1      -38.381  78.032  26.985  0.00  0.00    +0.126 A 
ATOM      9  N   LIG    1      -37.265  78.736  26.966  0.00  0.00    -0.212 NA
ATOM     10  C   LIG    1      -36.452  78.692  28.079  0.00  0.00    +0.170 A 
ATOM     11  C   LIG    1      -35.257  79.317  28.396  0.00  0.00    +0.100 A 
ATOM     12  C   LIG    1      -34.934  78.836  29.680  0.00  0.00    +0.150 A 
ATOM     13  N   LIG    1      -35.840  77.990  30.167  0.00  0.00    -0.173 NA
ATOM     14  N   LIG    1      -36.772  77.910  29.192  0.00  0.00    -0.221 N 
ATOM     15  C   LIG    1      -37.927  77.152  29.211  0.00  0.00    +0.118 A 
ATOM     16  C   LIG    1      -38.757  77.166  28.165  0.00  0.00    +0.063 A 
BRANCH  11  17
ATOM     17  C   LIG    1      -34.474  80.261  27.630  0.00  0.00    +0.247 C 
ATOM     18  N   LIG    1      -34.757  81.577  27.834  0.00  0.00    -0.325 N 
ATOM     19  H   LIG    1      -34.201  82.268  27.356  0.00  0.00    +0.145 HD
ATOM     20  H   LIG    1      -35.464  81.852  28.509  0.00  0.00    +0.145 HD
ATOM     21  O   LIG    1      -33.592  79.918  26.847  0.00  0.00    -0.270 OA
ENDBRANCH  11  17
ENDBRANCH   3   8
BRANCH   4  22
ATOM     22  C   LIG    1      -39.040  76.042  24.475  0.00  0.00    +0.011 A 
ATOM     23  C   LIG    1      -38.007  75.203  24.915  0.00  0.00    +0.129 A 
ATOM     24  F   LIG    1      -36.864  75.739  25.365  0.00  0.00    -0.205 F 
ATOM     25  C   LIG    1      -38.135  73.812  24.914  0.00  0.00    +0.041 A 
ATOM     26  C   LIG    1      -39.319  73.227  24.470  0.00  0.00    +0.041 A 
ATOM     27  C   LIG    1      -40.349  74.043  24.020  0.00  0.00    +0.124 A 
ATOM     28  F   LIG    1      -41.491  73.488  23.595  0.00  0.00    -0.205 F 
ATOM     29  C   LIG    1      -40.219  75.429  24.014  0.00  0.00    +0.046 A 
ENDBRANCH   4  22
TORSDOF 3
ENDMDL
MODEL 3
REMARK VINA RESULT:      -6.7     18.389     21.076
REMARK  Name = pdb/CHEMBL3675943.pdb
REMARK                            x       y       z     vdW  Elec       q    Type
REMARK                         _______ _______ _______ _____ _____    ______ ____
ROOT
ATOM      1  C   LIG    1      -18.499  82.516  12.689  0.00  0.00    +0.031 C 
ATOM      2  C   LIG    1      -19.096  81.364  13.501  0.00  0.00    +0.031 C 
ATOM      3  N   LIG    1      -20.399  81.676  14.122  0.00  0.00    -0.303 N 
ATOM      4  C   LIG    1      -20.523  81.001  15.434  0.00  0.00    +0.108 C 
ATOM      5  C   LIG    1      -19.148  80.360  15.691  0.00  0.00    +0.029 C 
ATOM      6  C   LIG    1      -18.215  81.084  14.732  0.00  0.00    +0.027 C 
ATOM      7  C   LIG    1      -19.217  80.117  12.613  0.00  0.00    +0.031 C 
ENDROOT
BRANCH   3   8
ATOM      8  C   LIG    1      -21.196  82.754  13.752  0.00  0.00    +0.126 A 
ATOM      9  N   LIG    1      -20.936  83.949  14.250  0.00  0.00    -0.212 NA
ATOM     10  C   LIG    1      -21.722  85.005  13.841  0.00  0.00    +0.170 A 
ATOM     11  C   LIG    1      -21.703  86.359  14.134  0.00  0.00    +0.100 A 
ATOM     12  C   LIG    1      -22.784  86.895  13.406  0.00  0.00    +0.150 A 
ATOM     13  N   LIG    1      -23.437  85.983  12.688  0.00  0.00    -0.173 NA
ATOM     14  N   LIG    1      -22.782  84.830  12.948  0.00  0.00    -0.221 N 
ATOM     15  C   LIG    1      -23.075  83.579  12.439  0.00  0.00    +0.118 A 
ATOM     16  C   LIG    1      -22.339  82.522  12.792  0.00  0.00    +0.063 A 
BRANCH  11  17
ATOM     17  C   LIG    1      -20.806  87.112  14.982  0.00  0.00    +0.247 C 
ATOM     18  N   LIG    1      -21.268  87.408  16.227  0.00  0.00    -0.325 N 
ATOM     19  H   LIG    1      -20.655  87.890  16.865  0.00  0.00    +0.145 HD
ATOM     20  H   LIG    1      -22.183  87.086  16.526  0.00  0.00    +0.145 HD
ATOM     21  O   LIG    1      -19.684  87.461  14.623  0.00  0.00    -0.270 OA
ENDBRANCH  11  17
ENDBRANCH   3   8
BRANCH   4  22
ATOM     22  C   LIG    1      -21.673  80.011  15.469  0.00  0.00    +0.011 A 
ATOM     23  C   LIG    1      -22.944  80.444  15.872  0.00  0.00    +0.129 A 
ATOM     24  F   LIG    1      -23.118  81.714  16.262  0.00  0.00    -0.205 F 
ATOM     25  C   LIG    1      -24.050  79.591  15.866  0.00  0.00    +0.041 A 
ATOM     26  C   LIG    1      -23.903  78.270  15.447  0.00  0.00    +0.041 A 
ATOM     27  C   LIG    1      -22.649  77.822  15.054  0.00  0.00    +0.124 A 
ATOM     28  F   LIG    1      -22.500  76.555  14.648  0.00  0.00    -0.205 F 
ATOM     29  C   LIG    1      -21.545  78.670  15.067  0.00  0.00    +0.046 A 
ENDBRANCH   4  22
TORSDOF 3
ENDMDL
MODEL 4
REMARK VINA RESULT:      -6.3      1.186      1.975
REMARK  Name = pdb/CHEMBL3675943.pdb
REMARK                            x       y       z     vdW  Elec       q    Type
REMARK                         _______ _______ _______ _____ _____    ______ ____
ROOT
ATOM      1  C   LIG    1      -38.177  79.368  27.928  0.00  0.00    +0.031 C 
ATOM      2  C   LIG    1      -38.988  78.673  26.832  0.00  0.00    +0.031 C 
ATOM      3  N   LIG    1      -38.360  77.445  26.304  0.00  0.00    -0.303 N 
ATOM      4  C   LIG    1      -38.642  77.298  24.858  0.00  0.00    +0.108 C 
ATOM      5  C   LIG    1      -39.362  78.596  24.452  0.00  0.00    +0.029 C 
ATOM      6  C   LIG    1      -39.043  79.566  25.579  0.00  0.00    +0.027 C 
ATOM      7  C   LIG    1      -40.400  78.365  27.352  0.00  0.00    +0.031 C 
ENDROOT
BRANCH   3   8
ATOM      8  C   LIG    1      -37.325  76.768  26.941  0.00  0.00    +0.126 A 
ATOM      9  N   LIG    1      -36.091  77.223  26.829  0.00  0.00    -0.212 NA
ATOM     10  C   LIG    1      -35.090  76.551  27.497  0.00  0.00    +0.170 A 
ATOM     11  C   LIG    1      -33.728  76.770  27.616  0.00  0.00    +0.100 A 
ATOM     12  C   LIG    1      -33.267  75.713  28.425  0.00  0.00    +0.150 A 
ATOM     13  N   LIG    1      -34.237  74.888  28.814  0.00  0.00    -0.173 NA
ATOM     14  N   LIG    1      -35.352  75.406  28.255  0.00  0.00    -0.221 N 
ATOM     15  C   LIG    1      -36.638  74.911  28.360  0.00  0.00    +0.118 A 
ATOM     16  C   LIG    1      -37.649  75.529  27.742  0.00  0.00    +0.063 A 
BRANCH  11  17
ATOM     17  C   LIG    1      -32.908  77.826  27.066  0.00  0.00    +0.247 C 
ATOM     18  N   LIG    1      -32.367  78.693  27.966  0.00  0.00    -0.325 N 
ATOM     19  H   LIG    1      -31.751  79.415  27.628  0.00  0.00    +0.145 HD
ATOM     20  H   LIG    1      -32.525  78.567  28.961  0.00  0.00    +0.145 HD
ATOM     21  O   LIG    1      -32.689  77.945  25.863  0.00  0.00    -0.270 OA
ENDBRANCH  11  17
ENDBRANCH   3   8
BRANCH   4  22
ATOM     22  C   LIG    1      -39.433  76.040  24.548  0.00  0.00    +0.011 A 
ATOM     23  C   LIG    1      -38.766  74.811  24.457  0.00  0.00    +0.129 A 
ATOM     24  F   LIG    1      -37.434  74.767  24.603  0.00  0.00    -0.205 F 
ATOM     25  C   LIG    1      -39.450  73.614  24.233  0.00  0.00    +0.041 A 
ATOM     26  C   LIG    1      -40.837  73.626  24.097  0.00  0.00    +0.041 A 
ATOM     27  C   LIG    1      -41.513  74.837  24.174  0.00  0.00    +0.124 A 
ATOM     28  F   LIG    1      -42.846  74.856  24.047  0.00  0.00    -0.205 F 
ATOM     29  C   LIG    1      -40.830  76.030  24.390  0.00  0.00    +0.046 A 
ENDBRANCH   4  22
TORSDOF 3
ENDMDL
MODEL 5
REMARK VINA RESULT:      -6.3     13.859     18.509
REMARK  Name = pdb/CHEMBL3675943.pdb
REMARK                            x       y       z     vdW  Elec       q    Type
REMARK                         _______ _______ _______ _____ _____    ______ ____
ROOT
ATOM      1  C   LIG    1      -19.387  75.380  32.058  0.00  0.00    +0.031 C 
ATOM      2  C   LIG    1      -19.014  76.609  32.890  0.00  0.00    +0.031 C 
ATOM      3  N   LIG    1      -20.174  77.392  33.363  0.00  0.00    -0.303 N 
ATOM      4  C   LIG    1      -19.850  78.836  33.387  0.00  0.00    +0.108 C 
ATOM      5  C   LIG    1      -18.455  78.948  32.747  0.00  0.00    +0.029 C 
ATOM      6  C   LIG    1      -18.278  77.632  32.007  0.00  0.00    +0.027 C 
ATOM      7  C   LIG    1      -18.144  76.181  34.081  0.00  0.00    +0.031 C 
ENDROOT
BRANCH   3   8
ATOM      8  C   LIG    1      -21.480  76.913  33.372  0.00  0.00    +0.126 A 
ATOM      9  N   LIG    1      -22.329  77.336  32.454  0.00  0.00    -0.212 NA
ATOM     10  C   LIG    1      -23.607  76.820  32.468  0.00  0.00    +0.170 A 
ATOM     11  C   LIG    1      -24.709  77.018  31.652  0.00  0.00    +0.100 A 
ATOM     12  C   LIG    1      -25.716  76.208  32.213  0.00  0.00    +0.150 A 
ATOM     13  N   LIG    1      -25.309  75.529  33.284  0.00  0.00    -0.173 NA
ATOM     14  N   LIG    1      -24.017  75.897  33.433  0.00  0.00    -0.221 N 
ATOM     15  C   LIG    1      -23.141  75.466  34.412  0.00  0.00    +0.118 A 
ATOM     16  C   LIG    1      -21.887  75.924  34.439  0.00  0.00    +0.063 A 
BRANCH  11  17
ATOM     17  C   LIG    1      -24.856  77.848  30.477  0.00  0.00    +0.247 C 
ATOM     18  N   LIG    1      -23.818  77.825  29.597  0.00  0.00    -0.325 N 
ATOM     19  H   LIG    1      -23.900  78.352  28.743  0.00  0.00    +0.145 HD
ATOM     20  H   LIG    1      -23.011  77.233  29.768  0.00  0.00    +0.145 HD
ATOM     21  O   LIG    1      -25.855  78.529  30.260  0.00  0.00    -0.270 OA
ENDBRANCH  11  17
ENDBRANCH   3   8
BRANCH   4  22
ATOM     22  C   LIG    1      -19.929  79.424  34.784  0.00  0.00    +0.011 A 
ATOM     23  C   LIG    1      -21.131  79.996  35.224  0.00  0.00    +0.129 A 
ATOM     24  F   LIG    1      -22.181  80.055  34.393  0.00  0.00    -0.205 F 
ATOM     25  C   LIG    1      -21.278  80.497  36.520  0.00  0.00    +0.041 A 
ATOM     26  C   LIG    1      -20.210  80.432  37.412  0.00  0.00    +0.041 A 
ATOM     27  C   LIG    1      -19.009  79.878  36.989  0.00  0.00    +0.124 A 
ATOM     28  F   LIG    1      -17.979  79.809  37.841  0.00  0.00    -0.205 F 
ATOM     29  C   LIG    1      -18.860  79.384  35.695  0.00  0.00    +0.046 A 
ENDBRANCH   4  22
TORSDOF 3
ENDMDL
MODEL 6
REMARK VINA RESULT:      -6.2     13.719     18.007
REMARK  Name = pdb/CHEMBL3675943.pdb
REMARK                            x       y       z     vdW  Elec       q    Type
REMARK                         _______ _______ _______ _____ _____    ______ ____
ROOT
ATOM      1  C   LIG    1      -19.439  76.152  34.415  0.00  0.00    +0.031 C 
ATOM      2  C   LIG    1      -19.985  77.337  35.214  0.00  0.00    +0.031 C 
ATOM      3  N   LIG    1      -20.725  78.324  34.401  0.00  0.00    -0.303 N 
ATOM      4  C   LIG    1      -20.503  79.693  34.918  0.00  0.00    +0.108 C 
ATOM      5  C   LIG    1      -19.444  79.542  36.023  0.00  0.00    +0.029 C 
ATOM      6  C   LIG    1      -18.817  78.182  35.754  0.00  0.00    +0.027 C 
ATOM      7  C   LIG    1      -20.870  76.824  36.359  0.00  0.00    +0.031 C 
ENDROOT
BRANCH   3   8
ATOM      8  C   LIG    1      -21.198  78.071  33.118  0.00  0.00    +0.126 A 
ATOM      9  N   LIG    1      -22.489  77.864  32.934  0.00  0.00    -0.212 NA
ATOM     10  C   LIG    1      -22.933  77.648  31.648  0.00  0.00    +0.170 A 
ATOM     11  C   LIG    1      -24.193  77.435  31.112  0.00  0.00    +0.100 A 
ATOM     12  C   LIG    1      -23.968  77.266  29.731  0.00  0.00    +0.150 A 
ATOM     13  N   LIG    1      -22.685  77.377  29.391  0.00  0.00    -0.173 NA
ATOM     14  N   LIG    1      -22.055  77.619  30.561  0.00  0.00    -0.221 N 
ATOM     15  C   LIG    1      -20.699  77.812  30.747  0.00  0.00    +0.118 A 
ATOM     16  C   LIG    1      -20.214  78.038  31.971  0.00  0.00    +0.063 A 
BRANCH  11  17
ATOM     17  C   LIG    1      -25.482  77.389  31.764  0.00  0.00    +0.247 C 
ATOM     18  N   LIG    1      -25.467  77.117  33.098  0.00  0.00    -0.325 N 
ATOM     19  H   LIG    1      -26.340  77.123  33.600  0.00  0.00    +0.145 HD
ATOM     20  H   LIG    1      -24.587  76.983  33.586  0.00  0.00    +0.145 HD
ATOM     21  O   LIG    1      -26.539  77.593  31.172  0.00  0.00    -0.270 OA
ENDBRANCH  11  17
ENDBRANCH   3   8
BRANCH   4  22
ATOM     22  C   LIG    1      -21.789  80.348  35.391  0.00  0.00    +0.011 A 
ATOM     23  C   LIG    1      -21.773  81.692  35.788  0.00  0.00    +0.129 A 
ATOM     24  F   LIG    1      -20.617  82.370  35.785  0.00  0.00    -0.205 F 
ATOM     25  C   LIG    1      -22.936  82.361  36.175  0.00  0.00    +0.041 A 
ATOM     26  C   LIG    1      -24.156  81.687  36.168  0.00  0.00    +0.041 A 
ATOM     27  C   LIG    1      -24.188  80.352  35.788  0.00  0.00    +0.124 A 
ATOM     28  F   LIG    1      -25.356  79.698  35.777  0.00  0.00    -0.205 F 
ATOM     29  C   LIG    1      -23.027  79.683  35.409  0.00  0.00    +0.046 A 
ENDBRANCH   4  22
TORSDOF 3
ENDMDL
MODEL 7
REMARK VINA RESULT:      -6.2     18.594     21.690
REMARK  Name = pdb/CHEMBL3675943.pdb
REMARK                            x       y       z     vdW  Elec       q    Type
REMARK                         _______ _______ _______ _____ _____    ______ ____
ROOT
ATOM      1  C   LIG    1      -22.703  83.553   9.969  0.00  0.00    +0.031 C 
ATOM      2  C   LIG    1      -22.819  82.434  11.006  0.00  0.00    +0.031 C 
ATOM      3  N   LIG    1      -21.822  82.514  12.094  0.00  0.00    -0.303 N 
ATOM      4  C   LIG    1      -21.412  81.158  12.523  0.00  0.00    +0.108 C 
ATOM      5  C   LIG    1      -22.092  80.197  11.531  0.00  0.00    +0.029 C 
ATOM      6  C   LIG    1      -22.471  81.083  10.355  0.00  0.00    +0.027 C 
ATOM      7  C   LIG    1      -24.239  82.416  11.589  0.00  0.00    +0.031 C 
ENDROOT
BRANCH   3   8
ATOM      8  C   LIG    1      -21.073  83.651  12.376  0.00  0.00    +0.126 A 
ATOM      9  N   LIG    1      -21.523  84.516  13.265  0.00  0.00    -0.212 NA
ATOM     10  C   LIG    1      -20.744  85.618  13.548  0.00  0.00    +0.170 A 
ATOM     11  C   LIG    1      -20.897  86.677  14.429  0.00  0.00    +0.100 A 
ATOM     12  C   LIG    1      -19.756  87.478  14.223  0.00  0.00    +0.150 A 
ATOM     13  N   LIG    1      -18.925  86.983  13.307  0.00  0.00    -0.173 NA
ATOM     14  N   LIG    1      -19.525  85.842  12.902  0.00  0.00    -0.221 N 
ATOM     15  C   LIG    1      -19.057  84.953  11.953  0.00  0.00    +0.118 A 
ATOM     16  C   LIG    1      -19.766  83.862  11.648  0.00  0.00    +0.063 A 
BRANCH  11  17
ATOM     17  C   LIG    1      -21.957  86.951  15.372  0.00  0.00    +0.247 C 
ATOM     18  N   LIG    1      -22.435  85.880  16.063  0.00  0.00    -0.325 N 
ATOM     19  H   LIG    1      -23.141  86.035  16.764  0.00  0.00    +0.145 HD
ATOM     20  H   LIG    1      -22.035  84.958  15.922  0.00  0.00    +0.145 HD
ATOM     21  O   LIG    1      -22.407  88.079  15.564  0.00  0.00    -0.270 OA
ENDBRANCH  11  17
ENDBRANCH   3   8
BRANCH   4  22
ATOM     22  C   LIG    1      -21.758  80.881  13.975  0.00  0.00    +0.011 A 
ATOM     23  C   LIG    1      -20.864  81.267  14.982  0.00  0.00    +0.129 A 
ATOM     24  F   LIG    1      -19.697  81.837  14.650  0.00  0.00    -0.205 F 
ATOM     25  C   LIG    1      -21.157  81.091  16.337  0.00  0.00    +0.041 A 
ATOM     26  C   LIG    1      -22.371  80.520  16.712  0.00  0.00    +0.041 A 
ATOM     27  C   LIG    1      -23.265  80.121  15.726  0.00  0.00    +0.124 A 
ATOM     28  F   LIG    1      -24.434  79.574  16.079  0.00  0.00    -0.205 F 
ATOM     29  C   LIG    1      -22.969  80.290  14.376  0.00  0.00    +0.046 A 
ENDBRANCH   4  22
TORSDOF 3
ENDMDL
MODEL 8
REMARK VINA RESULT:      -6.0     11.097     15.791
REMARK  Name = pdb/CHEMBL3675943.pdb
REMARK                            x       y       z     vdW  Elec       q    Type
REMARK                         _______ _______ _______ _____ _____    ______ ____
ROOT
ATOM      1  C   LIG    1      -23.778  73.863  31.427  0.00  0.00    +0.031 C 
ATOM      2  C   LIG    1      -22.866  75.075  31.627  0.00  0.00    +0.031 C 
ATOM      3  N   LIG    1      -23.495  76.187  32.370  0.00  0.00    -0.303 N 
ATOM      4  C   LIG    1      -23.014  77.490  31.858  0.00  0.00    +0.108 C 
ATOM      5  C   LIG    1      -22.153  77.149  30.629  0.00  0.00    +0.029 C 
ATOM      6  C   LIG    1      -22.565  75.731  30.267  0.00  0.00    +0.027 C 
ATOM      7  C   LIG    1      -21.571  74.637  32.326  0.00  0.00    +0.031 C 
ENDROOT
BRANCH   3   8
ATOM      8  C   LIG    1      -24.656  76.056  33.123  0.00  0.00    +0.126 A 
ATOM      9  N   LIG    1      -25.806  76.448  32.608  0.00  0.00    -0.212 NA
ATOM     10  C   LIG    1      -26.946  76.277  33.365  0.00  0.00    +0.170 A 
ATOM     11  C   LIG    1      -28.284  76.543  33.123  0.00  0.00    +0.100 A 
ATOM     12  C   LIG    1      -28.943  76.155  34.306  0.00  0.00    +0.150 A 
ATOM     13  N   LIG    1      -28.119  75.664  35.230  0.00  0.00    -0.173 NA
ATOM     14  N   LIG    1      -26.900  75.731  34.650  0.00  0.00    -0.221 N 
ATOM     15  C   LIG    1      -25.697  75.338  35.206  0.00  0.00    +0.118 A 
ATOM     16  C   LIG    1      -24.563  75.470  34.513  0.00  0.00    +0.063 A 
BRANCH  11  17
ATOM     17  C   LIG    1      -28.922  77.088  31.945  0.00  0.00    +0.247 C 
ATOM     18  N   LIG    1      -30.125  76.544  31.612  0.00  0.00    -0.325 N 
ATOM     19  H   LIG    1      -30.625  76.928  30.826  0.00  0.00    +0.145 HD
ATOM     20  H   LIG    1      -30.538  75.818  32.187  0.00  0.00    +0.145 HD
ATOM     21  O   LIG    1      -28.432  77.996  31.279  0.00  0.00    -0.270 OA
ENDBRANCH  11  17
ENDBRANCH   3   8
BRANCH   4  22
ATOM     22  C   LIG    1      -22.277  78.291  32.916  0.00  0.00    +0.011 A 
ATOM     23  C   LIG    1      -23.005  79.082  33.814  0.00  0.00    +0.129 A 
ATOM     24  F   LIG    1      -24.339  79.156  33.702  0.00  0.00    -0.205 F 
ATOM     25  C   LIG    1      -22.384  79.793  34.844  0.00  0.00    +0.041 A 
ATOM     26  C   LIG    1      -21.001  79.720  34.997  0.00  0.00    +0.041 A 
ATOM     27  C   LIG    1      -20.262  78.948  34.109  0.00  0.00    +0.124 A 
ATOM     28  F   LIG    1      -18.933  78.871  34.252  0.00  0.00    -0.205 F 
ATOM     29  C   LIG    1      -20.881  78.246  33.079  0.00  0.00    +0.046 A 
ENDBRANCH   4  22
TORSDOF 3
ENDMDL
MODEL 9
REMARK VINA RESULT:      -5.9     12.523     15.442
REMARK  Name = pdb/CHEMBL3675943.pdb
REMARK                            x       y       z     vdW  Elec       q    Type
REMARK                         _______ _______ _______ _____ _____    ______ ____
ROOT
ATOM      1  C   LIG    1      -34.809  87.673  29.381  0.00  0.00    +0.031 C 
ATOM      2  C   LIG    1      -33.736  86.991  30.232  0.00  0.00    +0.031 C 
ATOM      3  N   LIG    1      -32.537  87.821  30.469  0.00  0.00    -0.303 N 
ATOM      4  C   LIG    1      -31.322  86.976  30.511  0.00  0.00    +0.108 C 
ATOM      5  C   LIG    1      -31.797  85.564  30.126  0.00  0.00    +0.029 C 
ATOM      6  C   LIG    1      -33.147  85.793  29.466  0.00  0.00    +0.027 C 
ATOM      7  C   LIG    1      -34.345  86.545  31.569  0.00  0.00    +0.031 C 
ENDROOT
BRANCH   3   8
ATOM      8  C   LIG    1      -32.492  89.195  30.260  0.00  0.00    +0.126 A 
ATOM      9  N   LIG    1      -32.609  89.665  29.032  0.00  0.00    -0.212 NA
ATOM     10  C   LIG    1      -32.593  91.032  28.857  0.00  0.00    +0.170 A 
ATOM     11  C   LIG    1      -32.720  91.838  27.738  0.00  0.00    +0.100 A 
ATOM     12  C   LIG    1      -32.598  93.153  28.231  0.00  0.00    +0.150 A 
ATOM     13  N   LIG    1      -32.426  93.204  29.551  0.00  0.00    -0.173 NA
ATOM     14  N   LIG    1      -32.432  91.908  29.934  0.00  0.00    -0.221 N 
ATOM     15  C   LIG    1      -32.286  91.425  31.220  0.00  0.00    +0.118 A 
ATOM     16  C   LIG    1      -32.306  90.109  31.449  0.00  0.00    +0.063 A 
BRANCH  11  17
ATOM     17  C   LIG    1      -32.936  91.477  26.355  0.00  0.00    +0.247 C 
ATOM     18  N   LIG    1      -34.089  90.805  26.086  0.00  0.00    -0.325 N 
ATOM     19  H   LIG    1      -34.300  90.577  25.128  0.00  0.00    +0.145 HD
ATOM     20  H   LIG    1      -34.753  90.605  26.827  0.00  0.00    +0.145 HD
ATOM     21  O   LIG    1      -32.145  91.760  25.458  0.00  0.00    -0.270 OA
ENDBRANCH  11  17
ENDBRANCH   3   8
BRANCH   4  22
ATOM     22  C   LIG    1      -30.620  87.039  31.856  0.00  0.00    +0.011 A 
ATOM     23  C   LIG    1      -29.382  87.689  31.958  0.00  0.00    +0.129 A 
ATOM     24  F   LIG    1      -28.814  88.209  30.862  0.00  0.00    -0.205 F 
ATOM     25  C   LIG    1      -28.721  87.828  33.180  0.00  0.00    +0.041 A 
ATOM     26  C   LIG    1      -29.297  87.313  34.340  0.00  0.00    +0.041 A 
ATOM     27  C   LIG    1      -30.518  86.657  34.255  0.00  0.00    +0.124 A 
ATOM     28  F   LIG    1      -31.078  86.162  35.366  0.00  0.00    -0.205 F 
ATOM     29  C   LIG    1      -31.173  86.512  33.036  0.00  0.00    +0.046 A 
ENDBRANCH   4  22
TORSDOF 3
ENDMDL
