MODEL 1
REMARK VINA RESULT:      -6.9      0.000      0.000
REMARK  Name = pdb/CHEMBL3919225.pdb
REMARK                            x       y       z     vdW  Elec       q    Type
REMARK                         _______ _______ _______ _____ _____    ______ ____
ROOT
ATOM      1  C   LIG    1      -37.416  76.182  26.910  0.00  0.00    +0.149 A 
ATOM      2  N   LIG    1      -38.434  76.878  26.375  0.00  0.00    -0.160 NA
ATOM      3  N   LIG    1      -39.111  75.984  25.590  0.00  0.00    -0.218 N 
ATOM      4  C   LIG    1      -38.380  74.771  25.469  0.00  0.00    +0.129 A 
ATOM      5  C   LIG    1      -37.318  74.907  26.334  0.00  0.00    +0.078 A 
ENDROOT
BRANCH   3   6
ATOM      6  C   LIG    1      -40.397  76.356  25.065  0.00  0.00    +0.067 A 
ATOM      7  C   LIG    1      -40.678  76.125  23.703  0.00  0.00    +0.028 A 
ATOM      8  C   LIG    1      -41.908  76.504  23.147  0.00  0.00    +0.002 A 
ATOM      9  C   LIG    1      -42.883  77.098  23.940  0.00  0.00    +0.000 A 
ATOM     10  C   LIG    1      -42.622  77.331  25.284  0.00  0.00    +0.002 A 
ATOM     11  C   LIG    1      -41.383  76.986  25.835  0.00  0.00    +0.028 A 
ENDBRANCH   3   6
BRANCH   4  12
ATOM     12  N   LIG    1      -38.638  73.674  24.658  0.00  0.00    -0.266 N 
ATOM     13  H   LIG    1      -38.073  73.524  23.844  0.00  0.00    +0.157 HD
ATOM     14  C   LIG    1      -39.690  72.728  24.929  0.00  0.00    +0.251 C 
ATOM     15  O   LIG    1      -40.383  72.822  25.921  0.00  0.00    -0.270 OA
BRANCH  14  16
ATOM     16  C   LIG    1      -39.998  71.722  23.888  0.00  0.00    +0.056 A 
ATOM     17  C   LIG    1      -41.165  71.683  23.128  0.00  0.00    +0.054 A 
ATOM     18 CL   LIG    1      -42.391  72.896  23.213  0.00  0.00    -0.083 Cl
ATOM     19  C   LIG    1      -41.370  70.636  22.232  0.00  0.00    +0.041 A 
ATOM     20  C   LIG    1      -40.414  69.618  22.074  0.00  0.00    +0.052 A 
ATOM     21 CL   LIG    1      -40.837  68.401  20.916  0.00  0.00    -0.083 Cl
ATOM     22  C   LIG    1      -39.204  69.635  22.801  0.00  0.00    +0.022 A 
ATOM     23  C   LIG    1      -39.034  70.712  23.705  0.00  0.00    +0.026 A 
BRANCH  22  24
ATOM     24  C   LIG    1      -38.150  68.594  22.700  0.00  0.00    +0.107 A 
ATOM     25  C   LIG    1      -37.274  68.473  21.615  0.00  0.00    +0.149 A 
ATOM     26  F   LIG    1      -37.345  69.291  20.555  0.00  0.00    -0.203 F 
ATOM     27  C   LIG    1      -36.286  67.494  21.621  0.00  0.00    +0.042 A 
ATOM     28  C   LIG    1      -36.190  66.639  22.710  0.00  0.00    +0.023 A 
ATOM     29  C   LIG    1      -37.083  66.810  23.751  0.00  0.00    +0.111 A 
ATOM     30  N   LIG    1      -38.031  67.773  23.773  0.00  0.00    -0.252 NA
ENDBRANCH  22  24
ENDBRANCH  14  16
ENDBRANCH   4  12
BRANCH   1  32
ATOM     31  N   LIG    1      -35.597  77.612  27.555  0.00  0.00    -0.246 NA
ATOM     32  C   LIG    1      -36.533  76.796  27.896  0.00  0.00    +0.236 C 
BRANCH  31  36
ATOM     33  C   LIG    1      -32.382  78.960  27.077  0.00  0.00    +0.115 C 
ATOM     34  C   LIG    1      -33.644  79.821  27.130  0.00  0.00    +0.033 C 
ATOM     35  C   LIG    1      -34.469  79.620  28.395  0.00  0.00    +0.029 C 
ATOM     36  C   LIG    1      -34.773  78.146  28.656  0.00  0.00    +0.109 C 
ATOM     37  C   LIG    1      -33.462  77.363  28.770  0.00  0.00    +0.029 C 
ATOM     38  C   LIG    1      -32.545  77.519  27.562  0.00  0.00    +0.033 C 
BRANCH  33  39
ATOM     39  O   LIG    1      -31.907  78.938  25.729  0.00  0.00    -0.392 OA
ATOM     40  H   LIG    1      -31.729  78.007  25.505  0.00  0.00    +0.210 HD
ENDBRANCH  33  39
ENDBRANCH  31  36
BRANCH  32  41
ATOM     41  O   LIG    1      -36.801  76.433  29.172  0.00  0.00    -0.491 OA
ATOM     42  H   LIG    1      -36.939  75.468  29.203  0.00  0.00    +0.294 HD
ENDBRANCH  32  41
ENDBRANCH   1  32
TORSDOF 8
ENDMDL
MODEL 2
REMARK VINA RESULT:      -6.8      4.764      8.813
REMARK  Name = pdb/CHEMBL3919225.pdb
REMARK                            x       y       z     vdW  Elec       q    Type
REMARK                         _______ _______ _______ _____ _____    ______ ____
ROOT
ATOM      1  C   LIG    1      -37.452  76.198  26.209  0.00  0.00    +0.149 A 
ATOM      2  N   LIG    1      -38.273  75.170  25.931  0.00  0.00    -0.160 NA
ATOM      3  N   LIG    1      -39.195  75.671  25.052  0.00  0.00    -0.218 N 
ATOM      4  C   LIG    1      -39.071  77.084  24.948  0.00  0.00    +0.129 A 
ATOM      5  C   LIG    1      -37.943  77.397  25.671  0.00  0.00    +0.078 A 
ENDROOT
BRANCH   3   6
ATOM      6  C   LIG    1      -40.075  74.758  24.373  0.00  0.00    +0.067 A 
ATOM      7  C   LIG    1      -39.726  73.395  24.297  0.00  0.00    +0.028 A 
ATOM      8  C   LIG    1      -40.541  72.480  23.616  0.00  0.00    +0.002 A 
ATOM      9  C   LIG    1      -41.724  72.904  23.020  0.00  0.00    +0.000 A 
ATOM     10  C   LIG    1      -42.083  74.243  23.088  0.00  0.00    +0.002 A 
ATOM     11  C   LIG    1      -41.254  75.165  23.737  0.00  0.00    +0.028 A 
ENDBRANCH   3   6
BRANCH   4  12
ATOM     12  N   LIG    1      -39.893  77.986  24.285  0.00  0.00    -0.266 N 
ATOM     13  H   LIG    1      -39.690  78.224  23.333  0.00  0.00    +0.157 HD
ATOM     14  C   LIG    1      -41.037  78.605  24.904  0.00  0.00    +0.251 C 
ATOM     15  O   LIG    1      -41.368  78.328  26.038  0.00  0.00    -0.270 OA
BRANCH  14  16
ATOM     16  C   LIG    1      -41.713  79.697  24.167  0.00  0.00    +0.056 A 
ATOM     17  C   LIG    1      -42.994  79.628  23.625  0.00  0.00    +0.054 A 
ATOM     18 CL   LIG    1      -44.042  78.272  23.840  0.00  0.00    -0.083 Cl
ATOM     19  C   LIG    1      -43.488  80.700  22.884  0.00  0.00    +0.041 A 
ATOM     20  C   LIG    1      -42.718  81.858  22.681  0.00  0.00    +0.052 A 
ATOM     21 CL   LIG    1      -43.494  83.087  21.739  0.00  0.00    -0.083 Cl
ATOM     22  C   LIG    1      -41.427  81.983  23.238  0.00  0.00    +0.022 A 
ATOM     23  C   LIG    1      -40.957  80.871  23.980  0.00  0.00    +0.026 A 
BRANCH  22  24
ATOM     24  C   LIG    1      -40.547  83.166  23.061  0.00  0.00    +0.107 A 
ATOM     25  C   LIG    1      -39.978  83.538  21.838  0.00  0.00    +0.149 A 
ATOM     26  F   LIG    1      -40.171  82.821  20.721  0.00  0.00    -0.203 F 
ATOM     27  C   LIG    1      -39.199  84.688  21.752  0.00  0.00    +0.042 A 
ATOM     28  C   LIG    1      -38.991  85.448  22.894  0.00  0.00    +0.023 A 
ATOM     29  C   LIG    1      -39.580  85.028  24.070  0.00  0.00    +0.111 A 
ATOM     30  N   LIG    1      -40.362  83.930  24.166  0.00  0.00    -0.252 NA
ENDBRANCH  22  24
ENDBRANCH  14  16
ENDBRANCH   4  12
BRANCH   1  32
ATOM     31  N   LIG    1      -35.516  76.983  27.394  0.00  0.00    -0.246 NA
ATOM     32  C   LIG    1      -36.272  76.001  27.043  0.00  0.00    +0.236 C 
BRANCH  31  36
ATOM     33  C   LIG    1      -32.384  78.555  27.078  0.00  0.00    +0.115 C 
ATOM     34  C   LIG    1      -33.432  78.990  28.102  0.00  0.00    +0.033 C 
ATOM     35  C   LIG    1      -33.901  77.864  29.014  0.00  0.00    +0.029 C 
ATOM     36  C   LIG    1      -34.350  76.634  28.227  0.00  0.00    +0.109 C 
ATOM     37  C   LIG    1      -33.197  76.136  27.351  0.00  0.00    +0.029 C 
ATOM     38  C   LIG    1      -32.631  77.200  26.415  0.00  0.00    +0.033 C 
BRANCH  33  39
ATOM     39  O   LIG    1      -32.305  79.555  26.060  0.00  0.00    -0.392 OA
ATOM     40  H   LIG    1      -32.867  80.297  26.345  0.00  0.00    +0.210 HD
ENDBRANCH  33  39
ENDBRANCH  31  36
BRANCH  32  41
ATOM     41  O   LIG    1      -36.065  74.713  27.405  0.00  0.00    -0.491 OA
ATOM     42  H   LIG    1      -35.859  74.682  28.358  0.00  0.00    +0.294 HD
ENDBRANCH  32  41
ENDBRANCH   1  32
TORSDOF 8
ENDMDL
MODEL 3
REMARK VINA RESULT:      -6.7      2.545      4.710
REMARK  Name = pdb/CHEMBL3919225.pdb
REMARK                            x       y       z     vdW  Elec       q    Type
REMARK                         _______ _______ _______ _____ _____    ______ ____
ROOT
ATOM      1  C   LIG    1      -36.414  74.852  27.792  0.00  0.00    +0.149 A 
ATOM      2  N   LIG    1      -36.238  73.530  27.625  0.00  0.00    -0.160 NA
ATOM      3  N   LIG    1      -37.209  73.145  26.740  0.00  0.00    -0.218 N 
ATOM      4  C   LIG    1      -38.133  74.203  26.519  0.00  0.00    +0.129 A 
ATOM      5  C   LIG    1      -37.598  75.287  27.176  0.00  0.00    +0.078 A 
ENDROOT
BRANCH   3   6
ATOM      6  C   LIG    1      -37.143  71.828  26.166  0.00  0.00    +0.067 A 
ATOM      7  C   LIG    1      -37.374  71.666  24.785  0.00  0.00    +0.028 A 
ATOM      8  C   LIG    1      -37.350  70.395  24.195  0.00  0.00    +0.002 A 
ATOM      9  C   LIG    1      -37.076  69.270  24.965  0.00  0.00    +0.000 A 
ATOM     10  C   LIG    1      -36.844  69.413  26.326  0.00  0.00    +0.002 A 
ATOM     11  C   LIG    1      -36.901  70.677  26.925  0.00  0.00    +0.028 A 
ENDBRANCH   3   6
BRANCH   4  12
ATOM     12  N   LIG    1      -39.330  74.184  25.814  0.00  0.00    -0.266 N 
ATOM     13  H   LIG    1      -40.070  73.584  26.124  0.00  0.00    +0.157 HD
ATOM     14  C   LIG    1      -39.564  74.992  24.645  0.00  0.00    +0.251 C 
ATOM     15  O   LIG    1      -38.729  75.774  24.240  0.00  0.00    -0.270 OA
BRANCH  14  16
ATOM     16  C   LIG    1      -40.796  74.734  23.864  0.00  0.00    +0.056 A 
ATOM     17  C   LIG    1      -41.741  75.696  23.517  0.00  0.00    +0.054 A 
ATOM     18 CL   LIG    1      -41.550  77.379  23.853  0.00  0.00    -0.083 Cl
ATOM     19  C   LIG    1      -42.901  75.312  22.845  0.00  0.00    +0.041 A 
ATOM     20  C   LIG    1      -43.130  73.968  22.504  0.00  0.00    +0.052 A 
ATOM     21 CL   LIG    1      -44.621  73.677  21.672  0.00  0.00    -0.083 Cl
ATOM     22  C   LIG    1      -42.184  72.966  22.810  0.00  0.00    +0.022 A 
ATOM     23  C   LIG    1      -41.021  73.394  23.496  0.00  0.00    +0.026 A 
BRANCH  22  24
ATOM     24  C   LIG    1      -42.355  71.525  22.494  0.00  0.00    +0.107 A 
ATOM     25  C   LIG    1      -42.326  71.002  21.196  0.00  0.00    +0.149 A 
ATOM     26  F   LIG    1      -42.164  71.787  20.121  0.00  0.00    -0.203 F 
ATOM     27  C   LIG    1      -42.453  69.632  20.993  0.00  0.00    +0.042 A 
ATOM     28  C   LIG    1      -42.616  68.799  22.090  0.00  0.00    +0.023 A 
ATOM     29  C   LIG    1      -42.636  69.376  23.346  0.00  0.00    +0.111 A 
ATOM     30  N   LIG    1      -42.487  70.701  23.563  0.00  0.00    -0.252 NA
ENDBRANCH  22  24
ENDBRANCH  14  16
ENDBRANCH   4  12
BRANCH   1  32
ATOM     31  N   LIG    1      -34.917  76.696  28.148  0.00  0.00    -0.246 NA
ATOM     32  C   LIG    1      -35.480  75.630  28.599  0.00  0.00    +0.236 C 
BRANCH  31  36
ATOM     33  C   LIG    1      -32.389  78.892  27.064  0.00  0.00    +0.115 C 
ATOM     34  C   LIG    1      -33.762  79.372  27.533  0.00  0.00    +0.033 C 
ATOM     35  C   LIG    1      -34.138  78.886  28.927  0.00  0.00    +0.029 C 
ATOM     36  C   LIG    1      -33.985  77.373  29.070  0.00  0.00    +0.109 C 
ATOM     37  C   LIG    1      -32.540  76.971  28.759  0.00  0.00    +0.029 C 
ATOM     38  C   LIG    1      -32.052  77.437  27.392  0.00  0.00    +0.033 C 
BRANCH  33  39
ATOM     39  O   LIG    1      -32.307  79.073  25.649  0.00  0.00    -0.392 OA
ATOM     40  H   LIG    1      -33.195  79.329  25.342  0.00  0.00    +0.210 HD
ENDBRANCH  33  39
ENDBRANCH  31  36
BRANCH  32  41
ATOM     41  O   LIG    1      -35.282  75.130  29.841  0.00  0.00    -0.491 OA
ATOM     42  H   LIG    1      -35.798  74.308  29.936  0.00  0.00    +0.294 HD
ENDBRANCH  32  41
ENDBRANCH   1  32
TORSDOF 8
ENDMDL
MODEL 4
REMARK VINA RESULT:      -6.6      3.768      9.468
REMARK  Name = pdb/CHEMBL3919225.pdb
REMARK                            x       y       z     vdW  Elec       q    Type
REMARK                         _______ _______ _______ _____ _____    ______ ____
ROOT
ATOM      1  C   LIG    1      -38.210  70.824  24.264  0.00  0.00    +0.149 A 
ATOM      2  N   LIG    1      -39.408  71.389  24.033  0.00  0.00    -0.160 NA
ATOM      3  N   LIG    1      -39.237  72.721  24.299  0.00  0.00    -0.218 N 
ATOM      4  C   LIG    1      -37.972  72.951  24.907  0.00  0.00    +0.129 A 
ATOM      5  C   LIG    1      -37.325  71.739  24.854  0.00  0.00    +0.078 A 
ENDROOT
BRANCH   3   6
ATOM      6  C   LIG    1      -40.272  73.643  23.917  0.00  0.00    +0.067 A 
ATOM      7  C   LIG    1      -41.459  73.147  23.342  0.00  0.00    +0.028 A 
ATOM      8  C   LIG    1      -42.477  74.016  22.927  0.00  0.00    +0.002 A 
ATOM      9  C   LIG    1      -42.338  75.389  23.096  0.00  0.00    +0.000 A 
ATOM     10  C   LIG    1      -41.176  75.894  23.661  0.00  0.00    +0.002 A 
ATOM     11  C   LIG    1      -40.142  75.031  24.046  0.00  0.00    +0.028 A 
ENDBRANCH   3   6
BRANCH   4  12
ATOM     12  N   LIG    1      -37.470  74.123  25.458  0.00  0.00    -0.266 N 
ATOM     13  H   LIG    1      -37.021  74.791  24.861  0.00  0.00    +0.157 HD
ATOM     14  C   LIG    1      -37.562  74.432  26.862  0.00  0.00    +0.251 C 
ATOM     15  O   LIG    1      -38.133  73.691  27.635  0.00  0.00    -0.270 OA
BRANCH  14  16
ATOM     16  C   LIG    1      -36.813  75.608  27.360  0.00  0.00    +0.056 A 
ATOM     17  C   LIG    1      -37.182  76.937  27.163  0.00  0.00    +0.054 A 
ATOM     18 CL   LIG    1      -38.656  77.407  26.396  0.00  0.00    -0.083 Cl
ATOM     19  C   LIG    1      -36.349  77.958  27.617  0.00  0.00    +0.041 A 
ATOM     20  C   LIG    1      -35.143  77.670  28.278  0.00  0.00    +0.052 A 
ATOM     21 CL   LIG    1      -34.239  79.064  28.771  0.00  0.00    -0.083 Cl
ATOM     22  C   LIG    1      -34.746  76.339  28.526  0.00  0.00    +0.022 A 
ATOM     23  C   LIG    1      -35.615  75.329  28.046  0.00  0.00    +0.026 A 
BRANCH  22  24
ATOM     24  C   LIG    1      -33.484  75.952  29.207  0.00  0.00    +0.107 A 
ATOM     25  C   LIG    1      -32.208  76.253  28.716  0.00  0.00    +0.149 A 
ATOM     26  F   LIG    1      -32.033  76.904  27.557  0.00  0.00    -0.203 F 
ATOM     27  C   LIG    1      -31.079  75.890  29.442  0.00  0.00    +0.042 A 
ATOM     28  C   LIG    1      -31.236  75.221  30.647  0.00  0.00    +0.023 A 
ATOM     29  C   LIG    1      -32.521  74.954  31.078  0.00  0.00    +0.111 A 
ATOM     30  N   LIG    1      -33.631  75.323  30.400  0.00  0.00    -0.252 NA
ENDBRANCH  22  24
ENDBRANCH  14  16
ENDBRANCH   4  12
BRANCH   1  32
ATOM     31  N   LIG    1      -37.994  68.950  22.777  0.00  0.00    -0.246 NA
ATOM     32  C   LIG    1      -37.988  69.410  23.980  0.00  0.00    +0.236 C 
BRANCH  31  36
ATOM     33  C   LIG    1      -37.593  67.347  19.670  0.00  0.00    +0.115 C 
ATOM     34  C   LIG    1      -36.414  67.809  20.525  0.00  0.00    +0.033 C 
ATOM     35  C   LIG    1      -36.432  67.255  21.944  0.00  0.00    +0.029 C 
ATOM     36  C   LIG    1      -37.769  67.498  22.640  0.00  0.00    +0.109 C 
ATOM     37  C   LIG    1      -38.897  66.858  21.826  0.00  0.00    +0.029 C 
ATOM     38  C   LIG    1      -38.950  67.325  20.375  0.00  0.00    +0.033 C 
BRANCH  33  39
ATOM     39  O   LIG    1      -37.685  68.202  18.528  0.00  0.00    -0.392 OA
ATOM     40  H   LIG    1      -38.427  67.876  17.987  0.00  0.00    +0.210 HD
ENDBRANCH  33  39
ENDBRANCH  31  36
BRANCH  32  41
ATOM     41  O   LIG    1      -37.774  68.656  25.083  0.00  0.00    -0.491 OA
ATOM     42  H   LIG    1      -36.885  68.259  25.026  0.00  0.00    +0.294 HD
ENDBRANCH  32  41
ENDBRANCH   1  32
TORSDOF 8
ENDMDL
MODEL 5
REMARK VINA RESULT:      -6.6      3.667      5.693
REMARK  Name = pdb/CHEMBL3919225.pdb
REMARK                            x       y       z     vdW  Elec       q    Type
REMARK                         _______ _______ _______ _____ _____    ______ ____
ROOT
ATOM      1  C   LIG    1      -37.308  76.164  26.175  0.00  0.00    +0.149 A 
ATOM      2  N   LIG    1      -37.869  77.326  25.797  0.00  0.00    -0.160 NA
ATOM      3  N   LIG    1      -38.953  76.974  25.039  0.00  0.00    -0.218 N 
ATOM      4  C   LIG    1      -38.943  75.578  24.768  0.00  0.00    +0.129 A 
ATOM      5  C   LIG    1      -37.904  75.077  25.518  0.00  0.00    +0.078 A 
ENDROOT
BRANCH   3   6
ATOM      6  C   LIG    1      -39.908  77.988  24.680  0.00  0.00    +0.067 A 
ATOM      7  C   LIG    1      -39.462  79.150  24.018  0.00  0.00    +0.028 A 
ATOM      8  C   LIG    1      -40.357  80.175  23.681  0.00  0.00    +0.002 A 
ATOM      9  C   LIG    1      -41.709  80.051  23.980  0.00  0.00    +0.000 A 
ATOM     10  C   LIG    1      -42.164  78.913  24.631  0.00  0.00    +0.002 A 
ATOM     11  C   LIG    1      -41.268  77.902  24.999  0.00  0.00    +0.028 A 
ENDBRANCH   3   6
BRANCH   4  12
ATOM     12  N   LIG    1      -39.771  74.847  23.927  0.00  0.00    -0.266 N 
ATOM     13  H   LIG    1      -39.503  74.715  22.970  0.00  0.00    +0.157 HD
ATOM     14  C   LIG    1      -41.012  74.260  24.364  0.00  0.00    +0.251 C 
ATOM     15  O   LIG    1      -41.376  74.340  25.519  0.00  0.00    -0.270 OA
BRANCH  14  16
ATOM     16  C   LIG    1      -41.902  73.681  23.332  0.00  0.00    +0.056 A 
ATOM     17  C   LIG    1      -41.793  72.396  22.807  0.00  0.00    +0.054 A 
ATOM     18 CL   LIG    1      -40.653  71.232  23.379  0.00  0.00    -0.083 Cl
ATOM     19  C   LIG    1      -42.647  71.996  21.781  0.00  0.00    +0.041 A 
ATOM     20  C   LIG    1      -43.626  72.866  21.271  0.00  0.00    +0.052 A 
ATOM     21 CL   LIG    1      -44.597  72.197  20.001  0.00  0.00    -0.083 Cl
ATOM     22  C   LIG    1      -43.792  74.166  21.795  0.00  0.00    +0.022 A 
ATOM     23  C   LIG    1      -42.902  74.538  22.833  0.00  0.00    +0.026 A 
BRANCH  22  24
ATOM     24  C   LIG    1      -44.792  75.147  21.305  0.00  0.00    +0.107 A 
ATOM     25  C   LIG    1      -45.952  75.496  22.007  0.00  0.00    +0.149 A 
ATOM     26  F   LIG    1      -46.260  74.935  23.186  0.00  0.00    -0.203 F 
ATOM     27  C   LIG    1      -46.815  76.458  21.494  0.00  0.00    +0.042 A 
ATOM     28  C   LIG    1      -46.514  77.056  20.279  0.00  0.00    +0.023 A 
ATOM     29  C   LIG    1      -45.354  76.670  19.635  0.00  0.00    +0.111 A 
ATOM     30  N   LIG    1      -44.491  75.756  20.132  0.00  0.00    -0.252 NA
ENDBRANCH  22  24
ENDBRANCH  14  16
ENDBRANCH   4  12
BRANCH   1  32
ATOM     31  N   LIG    1      -35.534  77.226  27.397  0.00  0.00    -0.246 NA
ATOM     32  C   LIG    1      -36.174  76.151  27.093  0.00  0.00    +0.236 C 
BRANCH  31  36
ATOM     33  C   LIG    1      -32.333  78.558  26.789  0.00  0.00    +0.115 C 
ATOM     34  C   LIG    1      -33.384  79.275  27.636  0.00  0.00    +0.033 C 
ATOM     35  C   LIG    1      -33.918  78.435  28.789  0.00  0.00    +0.029 C 
ATOM     36  C   LIG    1      -34.400  77.062  28.327  0.00  0.00    +0.109 C 
ATOM     37  C   LIG    1      -33.250  76.317  27.641  0.00  0.00    +0.029 C 
ATOM     38  C   LIG    1      -32.622  77.087  26.484  0.00  0.00    +0.033 C 
BRANCH  33  39
ATOM     39  O   LIG    1      -32.192  79.262  25.553  0.00  0.00    -0.392 OA
ATOM     40  H   LIG    1      -31.398  79.820  25.633  0.00  0.00    +0.210 HD
ENDBRANCH  33  39
ENDBRANCH  31  36
BRANCH  32  41
ATOM     41  O   LIG    1      -35.880  74.925  27.583  0.00  0.00    -0.491 OA
ATOM     42  H   LIG    1      -36.410  74.771  28.387  0.00  0.00    +0.294 HD
ENDBRANCH  32  41
ENDBRANCH   1  32
TORSDOF 8
ENDMDL
MODEL 6
REMARK VINA RESULT:      -6.6      3.989      5.117
REMARK  Name = pdb/CHEMBL3919225.pdb
REMARK                            x       y       z     vdW  Elec       q    Type
REMARK                         _______ _______ _______ _____ _____    ______ ____
ROOT
ATOM      1  C   LIG    1      -35.909  71.681  27.332  0.00  0.00    +0.149 A 
ATOM      2  N   LIG    1      -36.706  72.671  26.895  0.00  0.00    -0.160 NA
ATOM      3  N   LIG    1      -37.191  72.240  25.689  0.00  0.00    -0.218 N 
ATOM      4  C   LIG    1      -36.518  71.058  25.274  0.00  0.00    +0.129 A 
ATOM      5  C   LIG    1      -35.725  70.705  26.341  0.00  0.00    +0.078 A 
ENDROOT
BRANCH   3   6
ATOM      6  C   LIG    1      -38.265  72.969  25.072  0.00  0.00    +0.067 A 
ATOM      7  C   LIG    1      -38.229  74.378  25.069  0.00  0.00    +0.028 A 
ATOM      8  C   LIG    1      -39.273  75.125  24.506  0.00  0.00    +0.002 A 
ATOM      9  C   LIG    1      -40.358  74.482  23.921  0.00  0.00    +0.000 A 
ATOM     10  C   LIG    1      -40.408  73.095  23.914  0.00  0.00    +0.002 A 
ATOM     11  C   LIG    1      -39.384  72.346  24.505  0.00  0.00    +0.028 A 
ENDBRANCH   3   6
BRANCH   4  12
ATOM     12  N   LIG    1      -36.603  70.386  24.062  0.00  0.00    -0.266 N 
ATOM     13  H   LIG    1      -36.061  70.711  23.284  0.00  0.00    +0.157 HD
ATOM     14  C   LIG    1      -37.442  69.232  23.862  0.00  0.00    +0.251 C 
ATOM     15  O   LIG    1      -38.090  68.757  24.772  0.00  0.00    -0.270 OA
BRANCH  14  16
ATOM     16  C   LIG    1      -37.605  68.729  22.479  0.00  0.00    +0.056 A 
ATOM     17  C   LIG    1      -38.742  68.896  21.692  0.00  0.00    +0.054 A 
ATOM     18 CL   LIG    1      -40.106  69.833  22.185  0.00  0.00    -0.083 Cl
ATOM     19  C   LIG    1      -38.801  68.305  20.431  0.00  0.00    +0.041 A 
ATOM     20  C   LIG    1      -37.726  67.548  19.934  0.00  0.00    +0.052 A 
ATOM     21 CL   LIG    1      -37.975  66.892  18.350  0.00  0.00    -0.083 Cl
ATOM     22  C   LIG    1      -36.543  67.379  20.685  0.00  0.00    +0.022 A 
ATOM     23  C   LIG    1      -36.522  67.990  21.963  0.00  0.00    +0.026 A 
BRANCH  22  24
ATOM     24  C   LIG    1      -35.370  66.587  20.236  0.00  0.00    +0.107 A 
ATOM     25  C   LIG    1      -34.650  66.853  19.066  0.00  0.00    +0.149 A 
ATOM     26  F   LIG    1      -34.994  67.849  18.235  0.00  0.00    -0.203 F 
ATOM     27  C   LIG    1      -33.536  66.086  18.742  0.00  0.00    +0.042 A 
ATOM     28  C   LIG    1      -33.157  65.054  19.589  0.00  0.00    +0.023 A 
ATOM     29  C   LIG    1      -33.908  64.842  20.730  0.00  0.00    +0.111 A 
ATOM     30  N   LIG    1      -34.977  65.595  21.073  0.00  0.00    -0.252 NA
ENDBRANCH  22  24
ENDBRANCH  14  16
ENDBRANCH   4  12
BRANCH   1  32
ATOM     31  N   LIG    1      -34.039  71.534  28.832  0.00  0.00    -0.246 NA
ATOM     32  C   LIG    1      -35.295  71.751  28.654  0.00  0.00    +0.236 C 
BRANCH  31  36
ATOM     33  C   LIG    1      -30.632  71.404  29.708  0.00  0.00    +0.115 C 
ATOM     34  C   LIG    1      -31.390  72.717  29.508  0.00  0.00    +0.033 C 
ATOM     35  C   LIG    1      -32.641  72.839  30.367  0.00  0.00    +0.029 C 
ATOM     36  C   LIG    1      -33.558  71.625  30.224  0.00  0.00    +0.109 C 
ATOM     37  C   LIG    1      -32.794  70.355  30.610  0.00  0.00    +0.029 C 
ATOM     38  C   LIG    1      -31.503  70.152  29.825  0.00  0.00    +0.033 C 
BRANCH  33  39
ATOM     39  O   LIG    1      -29.729  71.233  28.614  0.00  0.00    -0.392 OA
ATOM     40  H   LIG    1      -30.224  71.439  27.801  0.00  0.00    +0.210 HD
ENDBRANCH  33  39
ENDBRANCH  31  36
BRANCH  32  41
ATOM     41  O   LIG    1      -36.162  72.066  29.645  0.00  0.00    -0.491 OA
ATOM     42  H   LIG    1      -36.309  71.276  30.198  0.00  0.00    +0.294 HD
ENDBRANCH  32  41
ENDBRANCH   1  32
TORSDOF 8
ENDMDL
MODEL 7
REMARK VINA RESULT:      -6.6      3.210      6.183
REMARK  Name = pdb/CHEMBL3919225.pdb
REMARK                            x       y       z     vdW  Elec       q    Type
REMARK                         _______ _______ _______ _____ _____    ______ ____
ROOT
ATOM      1  C   LIG    1      -37.074  75.436  26.706  0.00  0.00    +0.149 A 
ATOM      2  N   LIG    1      -37.315  74.132  26.486  0.00  0.00    -0.160 NA
ATOM      3  N   LIG    1      -38.238  74.100  25.475  0.00  0.00    -0.218 N 
ATOM      4  C   LIG    1      -38.734  75.406  25.210  0.00  0.00    +0.129 A 
ATOM      5  C   LIG    1      -37.965  76.244  25.985  0.00  0.00    +0.078 A 
ENDROOT
BRANCH   3   6
ATOM      6  C   LIG    1      -38.528  72.843  24.840  0.00  0.00    +0.067 A 
ATOM      7  C   LIG    1      -37.497  71.894  24.688  0.00  0.00    +0.028 A 
ATOM      8  C   LIG    1      -37.733  70.671  24.044  0.00  0.00    +0.002 A 
ATOM      9  C   LIG    1      -39.001  70.367  23.562  0.00  0.00    +0.000 A 
ATOM     10  C   LIG    1      -40.027  71.290  23.704  0.00  0.00    +0.002 A 
ATOM     11  C   LIG    1      -39.787  72.526  24.316  0.00  0.00    +0.028 A 
ENDBRANCH   3   6
BRANCH   4  12
ATOM     12  N   LIG    1      -39.772  75.791  24.372  0.00  0.00    -0.266 N 
ATOM     13  H   LIG    1      -39.560  76.118  23.449  0.00  0.00    +0.157 HD
ATOM     14  C   LIG    1      -41.157  75.745  24.767  0.00  0.00    +0.251 C 
ATOM     15  O   LIG    1      -41.490  75.317  25.853  0.00  0.00    -0.270 OA
BRANCH  14  16
ATOM     16  C   LIG    1      -42.152  76.370  23.867  0.00  0.00    +0.056 A 
ATOM     17  C   LIG    1      -42.432  77.733  23.802  0.00  0.00    +0.054 A 
ATOM     18 CL   LIG    1      -41.558  78.923  24.697  0.00  0.00    -0.083 Cl
ATOM     19  C   LIG    1      -43.450  78.189  22.966  0.00  0.00    +0.041 A 
ATOM     20  C   LIG    1      -44.196  77.296  22.178  0.00  0.00    +0.052 A 
ATOM     21 CL   LIG    1      -45.417  78.041  21.201  0.00  0.00    -0.083 Cl
ATOM     22  C   LIG    1      -43.925  75.910  22.190  0.00  0.00    +0.022 A 
ATOM     23  C   LIG    1      -42.888  75.485  23.055  0.00  0.00    +0.026 A 
BRANCH  22  24
ATOM     24  C   LIG    1      -44.674  74.902  21.397  0.00  0.00    +0.107 A 
ATOM     25  C   LIG    1      -44.663  74.845  19.999  0.00  0.00    +0.149 A 
ATOM     26  F   LIG    1      -43.982  75.733  19.260  0.00  0.00    -0.203 F 
ATOM     27  C   LIG    1      -45.359  73.839  19.337  0.00  0.00    +0.042 A 
ATOM     28  C   LIG    1      -46.067  72.906  20.080  0.00  0.00    +0.023 A 
ATOM     29  C   LIG    1      -46.037  73.015  21.457  0.00  0.00    +0.111 A 
ATOM     30  N   LIG    1      -45.344  73.969  22.118  0.00  0.00    -0.252 NA
ENDBRANCH  22  24
ENDBRANCH  14  16
ENDBRANCH   4  12
BRANCH   1  32
ATOM     31  N   LIG    1      -35.424  76.970  27.538  0.00  0.00    -0.246 NA
ATOM     32  C   LIG    1      -36.049  75.851  27.658  0.00  0.00    +0.236 C 
BRANCH  31  36
ATOM     33  C   LIG    1      -32.447  78.724  26.868  0.00  0.00    +0.115 C 
ATOM     34  C   LIG    1      -33.703  79.399  27.419  0.00  0.00    +0.033 C 
ATOM     35  C   LIG    1      -34.226  78.765  28.702  0.00  0.00    +0.029 C 
ATOM     36  C   LIG    1      -34.405  77.254  28.566  0.00  0.00    +0.109 C 
ATOM     37  C   LIG    1      -33.068  76.610  28.185  0.00  0.00    +0.029 C 
ATOM     38  C   LIG    1      -32.441  77.196  26.924  0.00  0.00    +0.033 C 
BRANCH  33  39
ATOM     39  O   LIG    1      -32.275  79.132  25.509  0.00  0.00    -0.392 OA
ATOM     40  H   LIG    1      -33.105  78.927  25.042  0.00  0.00    +0.210 HD
ENDBRANCH  33  39
ENDBRANCH  31  36
BRANCH  32  41
ATOM     41  O   LIG    1      -35.837  74.963  28.658  0.00  0.00    -0.491 OA
ATOM     42  H   LIG    1      -35.067  74.410  28.429  0.00  0.00    +0.294 HD
ENDBRANCH  32  41
ENDBRANCH   1  32
TORSDOF 8
ENDMDL
MODEL 8
REMARK VINA RESULT:      -6.6      4.630     10.200
REMARK  Name = pdb/CHEMBL3919225.pdb
REMARK                            x       y       z     vdW  Elec       q    Type
REMARK                         _______ _______ _______ _____ _____    ______ ____
ROOT
ATOM      1  C   LIG    1      -37.900  69.364  23.616  0.00  0.00    +0.149 A 
ATOM      2  N   LIG    1      -38.799  70.354  23.743  0.00  0.00    -0.160 NA
ATOM      3  N   LIG    1      -38.132  71.371  24.373  0.00  0.00    -0.218 N 
ATOM      4  C   LIG    1      -36.863  70.925  24.833  0.00  0.00    +0.129 A 
ATOM      5  C   LIG    1      -36.723  69.656  24.322  0.00  0.00    +0.078 A 
ENDROOT
BRANCH   3   6
ATOM      6  C   LIG    1      -38.749  72.668  24.442  0.00  0.00    +0.067 A 
ATOM      7  C   LIG    1      -40.069  72.828  23.975  0.00  0.00    +0.028 A 
ATOM      8  C   LIG    1      -40.693  74.083  23.996  0.00  0.00    +0.002 A 
ATOM      9  C   LIG    1      -40.021  75.192  24.500  0.00  0.00    +0.000 A 
ATOM     10  C   LIG    1      -38.721  75.050  24.965  0.00  0.00    +0.002 A 
ATOM     11  C   LIG    1      -38.083  73.805  24.914  0.00  0.00    +0.028 A 
ENDBRANCH   3   6
BRANCH   4  12
ATOM     12  N   LIG    1      -35.944  71.589  25.635  0.00  0.00    -0.266 N 
ATOM     13  H   LIG    1      -35.224  72.136  25.204  0.00  0.00    +0.157 HD
ATOM     14  C   LIG    1      -35.973  71.531  27.074  0.00  0.00    +0.251 C 
ATOM     15  O   LIG    1      -36.844  70.925  27.665  0.00  0.00    -0.270 OA
BRANCH  14  16
ATOM     16  C   LIG    1      -34.826  72.109  27.812  0.00  0.00    +0.056 A 
ATOM     17  C   LIG    1      -33.872  71.378  28.514  0.00  0.00    +0.054 A 
ATOM     18 CL   LIG    1      -33.823  69.652  28.530  0.00  0.00    -0.083 Cl
ATOM     19  C   LIG    1      -32.883  72.046  29.234  0.00  0.00    +0.041 A 
ATOM     20  C   LIG    1      -32.826  73.450  29.256  0.00  0.00    +0.052 A 
ATOM     21 CL   LIG    1      -31.530  74.106  30.200  0.00  0.00    -0.083 Cl
ATOM     22  C   LIG    1      -33.754  74.230  28.533  0.00  0.00    +0.022 A 
ATOM     23  C   LIG    1      -34.747  73.515  27.818  0.00  0.00    +0.026 A 
BRANCH  22  24
ATOM     24  C   LIG    1      -33.769  75.715  28.514  0.00  0.00    +0.107 A 
ATOM     25  C   LIG    1      -34.188  76.505  29.590  0.00  0.00    +0.149 A 
ATOM     26  F   LIG    1      -34.642  75.964  30.730  0.00  0.00    -0.203 F 
ATOM     27  C   LIG    1      -34.128  77.892  29.502  0.00  0.00    +0.042 A 
ATOM     28  C   LIG    1      -33.657  78.475  28.334  0.00  0.00    +0.023 A 
ATOM     29  C   LIG    1      -33.257  77.641  27.308  0.00  0.00    +0.111 A 
ATOM     30  N   LIG    1      -33.283  76.291  27.386  0.00  0.00    -0.252 NA
ENDBRANCH  22  24
ENDBRANCH  14  16
ENDBRANCH   4  12
BRANCH   1  32
ATOM     31  N   LIG    1      -37.754  67.899  21.718  0.00  0.00    -0.246 NA
ATOM     32  C   LIG    1      -38.235  68.145  22.887  0.00  0.00    +0.236 C 
BRANCH  31  36
ATOM     33  C   LIG    1      -36.308  66.600  18.784  0.00  0.00    +0.115 C 
ATOM     34  C   LIG    1      -35.873  66.171  20.185  0.00  0.00    +0.033 C 
ATOM     35  C   LIG    1      -37.016  65.658  21.052  0.00  0.00    +0.029 C 
ATOM     36  C   LIG    1      -38.190  66.635  21.094  0.00  0.00    +0.109 C 
ATOM     37  C   LIG    1      -38.699  66.889  19.672  0.00  0.00    +0.029 C 
ATOM     38  C   LIG    1      -37.621  67.380  18.712  0.00  0.00    +0.033 C 
BRANCH  33  39
ATOM     39  O   LIG    1      -35.269  67.398  18.213  0.00  0.00    -0.392 OA
ATOM     40  H   LIG    1      -34.551  67.443  18.870  0.00  0.00    +0.210 HD
ENDBRANCH  33  39
ENDBRANCH  31  36
BRANCH  32  41
ATOM     41  O   LIG    1      -39.075  67.320  23.555  0.00  0.00    -0.491 OA
ATOM     42  H   LIG    1      -39.993  67.541  23.311  0.00  0.00    +0.294 HD
ENDBRANCH  32  41
ENDBRANCH   1  32
TORSDOF 8
ENDMDL
MODEL 9
REMARK VINA RESULT:      -6.5      2.669      4.784
REMARK  Name = pdb/CHEMBL3919225.pdb
REMARK                            x       y       z     vdW  Elec       q    Type
REMARK                         _______ _______ _______ _____ _____    ______ ____
ROOT
ATOM      1  C   LIG    1      -35.641  74.304  28.080  0.00  0.00    +0.149 A 
ATOM      2  N   LIG    1      -35.360  72.989  28.075  0.00  0.00    -0.160 NA
ATOM      3  N   LIG    1      -36.271  72.428  27.221  0.00  0.00    -0.218 N 
ATOM      4  C   LIG    1      -37.264  73.377  26.855  0.00  0.00    +0.129 A 
ATOM      5  C   LIG    1      -36.834  74.569  27.390  0.00  0.00    +0.078 A 
ENDROOT
BRANCH   3   6
ATOM      6  C   LIG    1      -36.087  71.062  26.810  0.00  0.00    +0.067 A 
ATOM      7  C   LIG    1      -36.992  70.080  27.260  0.00  0.00    +0.028 A 
ATOM      8  C   LIG    1      -36.827  68.733  26.909  0.00  0.00    +0.002 A 
ATOM      9  C   LIG    1      -35.773  68.347  26.088  0.00  0.00    +0.000 A 
ATOM     10  C   LIG    1      -34.874  69.303  25.634  0.00  0.00    +0.002 A 
ATOM     11  C   LIG    1      -35.016  70.644  26.011  0.00  0.00    +0.028 A 
ENDBRANCH   3   6
BRANCH   4  12
ATOM     12  N   LIG    1      -38.433  73.181  26.131  0.00  0.00    -0.266 N 
ATOM     13  H   LIG    1      -39.089  72.489  26.439  0.00  0.00    +0.157 HD
ATOM     14  C   LIG    1      -38.755  73.930  24.943  0.00  0.00    +0.251 C 
ATOM     15  O   LIG    1      -38.029  74.815  24.539  0.00  0.00    -0.270 OA
BRANCH  14  16
ATOM     16  C   LIG    1      -39.924  73.493  24.147  0.00  0.00    +0.056 A 
ATOM     17  C   LIG    1      -40.992  74.306  23.776  0.00  0.00    +0.054 A 
ATOM     18 CL   LIG    1      -41.050  76.001  24.099  0.00  0.00    -0.083 Cl
ATOM     19  C   LIG    1      -42.074  73.754  23.091  0.00  0.00    +0.041 A 
ATOM     20  C   LIG    1      -42.101  72.388  22.760  0.00  0.00    +0.052 A 
ATOM     21 CL   LIG    1      -43.522  71.880  21.908  0.00  0.00    -0.083 Cl
ATOM     22  C   LIG    1      -41.026  71.535  23.089  0.00  0.00    +0.022 A 
ATOM     23  C   LIG    1      -39.949  72.131  23.788  0.00  0.00    +0.026 A 
BRANCH  22  24
ATOM     24  C   LIG    1      -40.983  70.082  22.784  0.00  0.00    +0.107 A 
ATOM     25  C   LIG    1      -41.551  69.097  23.600  0.00  0.00    +0.149 A 
ATOM     26  F   LIG    1      -42.164  69.401  24.753  0.00  0.00    -0.203 F 
ATOM     27  C   LIG    1      -41.503  67.761  23.216  0.00  0.00    +0.042 A 
ATOM     28  C   LIG    1      -40.879  67.423  22.024  0.00  0.00    +0.023 A 
ATOM     29  C   LIG    1      -40.338  68.441  21.263  0.00  0.00    +0.111 A 
ATOM     30  N   LIG    1      -40.400  69.747  21.607  0.00  0.00    -0.252 NA
ENDBRANCH  22  24
ENDBRANCH  14  16
ENDBRANCH   4  12
BRANCH   1  32
ATOM     31  N   LIG    1      -34.525  76.413  28.349  0.00  0.00    -0.246 NA
ATOM     32  C   LIG    1      -34.794  75.242  28.810  0.00  0.00    +0.236 C 
BRANCH  31  36
ATOM     33  C   LIG    1      -32.383  78.877  27.035  0.00  0.00    +0.115 C 
ATOM     34  C   LIG    1      -33.781  79.190  27.567  0.00  0.00    +0.033 C 
ATOM     35  C   LIG    1      -34.011  78.721  28.998  0.00  0.00    +0.029 C 
ATOM     36  C   LIG    1      -33.645  77.250  29.188  0.00  0.00    +0.109 C 
ATOM     37  C   LIG    1      -32.178  77.032  28.807  0.00  0.00    +0.029 C 
ATOM     38  C   LIG    1      -31.833  77.497  27.396  0.00  0.00    +0.033 C 
BRANCH  33  39
ATOM     39  O   LIG    1      -32.403  79.004  25.612  0.00  0.00    -0.392 OA
ATOM     40  H   LIG    1      -31.829  78.302  25.255  0.00  0.00    +0.210 HD
ENDBRANCH  33  39
ENDBRANCH  31  36
BRANCH  32  41
ATOM     41  O   LIG    1      -34.341  74.765  29.993  0.00  0.00    -0.491 OA
ATOM     42  H   LIG    1      -34.775  75.254  30.716  0.00  0.00    +0.294 HD
ENDBRANCH  32  41
ENDBRANCH   1  32
TORSDOF 8
ENDMDL
