MODEL 1
REMARK VINA RESULT:      -6.1      0.000      0.000
REMARK  Name = pdb/CHEMBL3675916.pdb
REMARK                            x       y       z     vdW  Elec       q    Type
REMARK                         _______ _______ _______ _____ _____    ______ ____
ROOT
ATOM      1  C   LIG    1      -22.865  76.938  30.602  0.00  0.00    +0.100 A 
ATOM      2  C   LIG    1      -21.907  77.443  31.467  0.00  0.00    +0.170 A 
ATOM      3  N   LIG    1      -21.967  77.868  32.774  0.00  0.00    -0.212 NA
ATOM      4  C   LIG    1      -20.855  78.297  33.341  0.00  0.00    +0.126 A 
ATOM      5  C   LIG    1      -19.539  78.311  32.595  0.00  0.00    +0.063 A 
ATOM      6  C   LIG    1      -19.542  77.896  31.325  0.00  0.00    +0.118 A 
ATOM      7  N   LIG    1      -20.715  77.460  30.739  0.00  0.00    -0.221 N 
ATOM      8  N   LIG    1      -20.875  77.014  29.473  0.00  0.00    -0.173 NA
ATOM      9  C   LIG    1      -22.164  76.692  29.402  0.00  0.00    +0.150 A 
ENDROOT
BRANCH   4  10
ATOM     10  N   LIG    1      -20.876  78.756  34.655  0.00  0.00    -0.308 N 
ATOM     11  C   LIG    1      -21.394  80.088  35.015  0.00  0.00    +0.108 C 
ATOM     12  C   LIG    1      -20.365  80.602  36.033  0.00  0.00    +0.029 C 
ATOM     13  C   LIG    1      -19.942  79.342  36.769  0.00  0.00    +0.021 C 
ATOM     14  C   LIG    1      -19.898  78.305  35.655  0.00  0.00    +0.107 C 
BRANCH  11  15
ATOM     15  C   LIG    1      -22.803  80.021  35.579  0.00  0.00    +0.011 A 
ATOM     16  C   LIG    1      -23.484  81.217  35.846  0.00  0.00    +0.129 A 
ATOM     17  F   LIG    1      -22.877  82.387  35.612  0.00  0.00    -0.205 F 
ATOM     18  C   LIG    1      -24.777  81.237  36.368  0.00  0.00    +0.041 A 
ATOM     19  C   LIG    1      -25.416  80.037  36.662  0.00  0.00    +0.041 A 
ATOM     20  C   LIG    1      -24.753  78.840  36.421  0.00  0.00    +0.124 A 
ATOM     21  F   LIG    1      -25.359  77.683  36.715  0.00  0.00    -0.205 F 
ATOM     22  C   LIG    1      -23.466  78.821  35.882  0.00  0.00    +0.046 A 
ENDBRANCH  11  15
ENDBRANCH   4  10
BRANCH   1  25
ATOM     23  N   LIG    1      -24.580  76.148  32.053  0.00  0.00    -0.294 N 
ATOM     24  H   LIG    1      -23.824  76.152  32.735  0.00  0.00    +0.151 HD
ATOM     25  C   LIG    1      -24.272  76.684  30.826  0.00  0.00    +0.250 C 
ATOM     26  O   LIG    1      -25.105  76.925  29.963  0.00  0.00    -0.270 OA
BRANCH  23  28
ATOM     27  C   LIG    1      -26.319  74.469  31.918  0.00  0.00    +0.047 C 
ATOM     28  C   LIG    1      -25.939  75.834  32.514  0.00  0.00    +0.116 C 
ATOM     29  C   LIG    1      -25.971  75.728  34.045  0.00  0.00    +0.047 C 
BRANCH  28  30
ATOM     30  C   LIG    1      -26.977  76.803  32.053  0.00  0.00    +0.088 C 
ATOM     31  N   LIG    1      -27.828  77.509  31.713  0.00  0.00    -0.194 NA
ENDBRANCH  28  30
ENDBRANCH  23  28
ENDBRANCH   1  25
TORSDOF 5
ENDMDL
MODEL 2
REMARK VINA RESULT:      -6.0     18.229     21.245
REMARK  Name = pdb/CHEMBL3675916.pdb
REMARK                            x       y       z     vdW  Elec       q    Type
REMARK                         _______ _______ _______ _____ _____    ______ ____
ROOT
ATOM      1  C   LIG    1      -18.883  85.855  13.201  0.00  0.00    +0.100 A 
ATOM      2  C   LIG    1      -19.046  84.526  13.558  0.00  0.00    +0.170 A 
ATOM      3  N   LIG    1      -20.087  83.842  14.145  0.00  0.00    -0.212 NA
ATOM      4  C   LIG    1      -19.941  82.547  14.354  0.00  0.00    +0.126 A 
ATOM      5  C   LIG    1      -18.680  81.815  13.950  0.00  0.00    +0.063 A 
ATOM      6  C   LIG    1      -17.699  82.531  13.393  0.00  0.00    +0.118 A 
ATOM      7  N   LIG    1      -17.859  83.889  13.191  0.00  0.00    -0.221 N 
ATOM      8  N   LIG    1      -16.963  84.740  12.644  0.00  0.00    -0.173 NA
ATOM      9  C   LIG    1      -17.589  85.914  12.643  0.00  0.00    +0.150 A 
ENDROOT
BRANCH   4  10
ATOM     10  N   LIG    1      -20.962  81.822  14.964  0.00  0.00    -0.308 N 
ATOM     11  C   LIG    1      -22.254  82.431  15.322  0.00  0.00    +0.108 C 
ATOM     12  C   LIG    1      -22.535  81.864  16.721  0.00  0.00    +0.029 C 
ATOM     13  C   LIG    1      -21.953  80.463  16.654  0.00  0.00    +0.021 C 
ATOM     14  C   LIG    1      -20.687  80.668  15.832  0.00  0.00    +0.107 C 
BRANCH  11  15
ATOM     15  C   LIG    1      -23.343  82.096  14.317  0.00  0.00    +0.011 A 
ATOM     16  C   LIG    1      -23.524  82.934  13.208  0.00  0.00    +0.129 A 
ATOM     17  F   LIG    1      -22.747  84.015  13.065  0.00  0.00    -0.205 F 
ATOM     18  C   LIG    1      -24.504  82.695  12.246  0.00  0.00    +0.041 A 
ATOM     19  C   LIG    1      -25.355  81.604  12.391  0.00  0.00    +0.041 A 
ATOM     20  C   LIG    1      -25.205  80.770  13.492  0.00  0.00    +0.124 A 
ATOM     21  F   LIG    1      -26.030  79.726  13.642  0.00  0.00    -0.205 F 
ATOM     22  C   LIG    1      -24.212  81.001  14.445  0.00  0.00    +0.046 A 
ENDBRANCH  11  15
ENDBRANCH   4  10
BRANCH   1  25
ATOM     23  N   LIG    1      -21.045  86.764  12.788  0.00  0.00    -0.294 N 
ATOM     24  H   LIG    1      -21.252  85.805  12.514  0.00  0.00    +0.151 HD
ATOM     25  C   LIG    1      -19.800  86.967  13.331  0.00  0.00    +0.250 C 
ATOM     26  O   LIG    1      -19.460  88.007  13.878  0.00  0.00    -0.270 OA
BRANCH  23  28
ATOM     27  C   LIG    1      -21.693  88.967  12.022  0.00  0.00    +0.047 C 
ATOM     28  C   LIG    1      -22.145  87.737  12.825  0.00  0.00    +0.116 C 
ATOM     29  C   LIG    1      -23.398  87.149  12.160  0.00  0.00    +0.047 C 
BRANCH  28  30
ATOM     30  C   LIG    1      -22.482  88.223  14.196  0.00  0.00    +0.088 C 
ATOM     31  N   LIG    1      -22.677  88.613  15.267  0.00  0.00    -0.194 NA
ENDBRANCH  28  30
ENDBRANCH  23  28
ENDBRANCH   1  25
TORSDOF 5
ENDMDL
MODEL 3
REMARK VINA RESULT:      -5.7     18.243     21.236
REMARK  Name = pdb/CHEMBL3675916.pdb
REMARK                            x       y       z     vdW  Elec       q    Type
REMARK                         _______ _______ _______ _____ _____    ______ ____
ROOT
ATOM      1  C   LIG    1      -40.216  69.256  21.501  0.00  0.00    +0.100 A 
ATOM      2  C   LIG    1      -39.531  69.882  22.530  0.00  0.00    +0.170 A 
ATOM      3  N   LIG    1      -39.891  70.866  23.423  0.00  0.00    -0.212 NA
ATOM      4  C   LIG    1      -38.999  71.255  24.314  0.00  0.00    +0.126 A 
ATOM      5  C   LIG    1      -37.620  70.635  24.377  0.00  0.00    +0.063 A 
ATOM      6  C   LIG    1      -37.322  69.692  23.480  0.00  0.00    +0.118 A 
ATOM      7  N   LIG    1      -38.261  69.301  22.545  0.00  0.00    -0.221 N 
ATOM      8  N   LIG    1      -38.108  68.367  21.580  0.00  0.00    -0.173 NA
ATOM      9  C   LIG    1      -39.288  68.338  20.966  0.00  0.00    +0.150 A 
ENDROOT
BRANCH   4  10
ATOM     10  N   LIG    1      -39.315  72.262  25.222  0.00  0.00    -0.308 N 
ATOM     11  C   LIG    1      -38.586  73.541  25.263  0.00  0.00    +0.108 C 
ATOM     12  C   LIG    1      -38.392  73.788  26.766  0.00  0.00    +0.029 C 
ATOM     13  C   LIG    1      -39.658  73.215  27.381  0.00  0.00    +0.021 C 
ATOM     14  C   LIG    1      -39.902  71.970  26.538  0.00  0.00    +0.107 C 
BRANCH  11  15
ATOM     15  C   LIG    1      -39.351  74.658  24.573  0.00  0.00    +0.011 A 
ATOM     16  C   LIG    1      -38.776  75.935  24.510  0.00  0.00    +0.129 A 
ATOM     17  F   LIG    1      -37.577  76.147  25.068  0.00  0.00    -0.205 F 
ATOM     18  C   LIG    1      -39.417  77.012  23.898  0.00  0.00    +0.041 A 
ATOM     19  C   LIG    1      -40.683  76.832  23.348  0.00  0.00    +0.041 A 
ATOM     20  C   LIG    1      -41.279  75.579  23.414  0.00  0.00    +0.124 A 
ATOM     21  F   LIG    1      -42.502  75.405  22.898  0.00  0.00    -0.205 F 
ATOM     22  C   LIG    1      -40.627  74.499  24.012  0.00  0.00    +0.046 A 
ENDBRANCH  11  15
ENDBRANCH   4  10
BRANCH   1  25
ATOM     23  N   LIG    1      -42.042  70.737  21.122  0.00  0.00    -0.294 N 
ATOM     24  H   LIG    1      -41.338  71.446  21.320  0.00  0.00    +0.151 HD
ATOM     25  C   LIG    1      -41.576  69.447  21.044  0.00  0.00    +0.250 C 
ATOM     26  O   LIG    1      -42.245  68.508  20.635  0.00  0.00    -0.270 OA
BRANCH  23  28
ATOM     27  C   LIG    1      -44.404  70.413  21.544  0.00  0.00    +0.047 C 
ATOM     28  C   LIG    1      -43.377  71.174  20.691  0.00  0.00    +0.116 C 
ATOM     29  C   LIG    1      -43.550  72.679  20.939  0.00  0.00    +0.047 C 
BRANCH  28  30
ATOM     30  C   LIG    1      -43.689  70.858  19.265  0.00  0.00    +0.088 C 
ATOM     31  N   LIG    1      -43.868  70.592  18.154  0.00  0.00    -0.194 NA
ENDBRANCH  28  30
ENDBRANCH  23  28
ENDBRANCH   1  25
TORSDOF 5
ENDMDL
MODEL 4
REMARK VINA RESULT:      -5.7     16.349     20.144
REMARK  Name = pdb/CHEMBL3675916.pdb
REMARK                            x       y       z     vdW  Elec       q    Type
REMARK                         _______ _______ _______ _____ _____    ______ ____
ROOT
ATOM      1  C   LIG    1      -35.367  67.615  23.265  0.00  0.00    +0.100 A 
ATOM      2  C   LIG    1      -36.460  68.007  22.510  0.00  0.00    +0.170 A 
ATOM      3  N   LIG    1      -37.598  68.718  22.819  0.00  0.00    -0.212 NA
ATOM      4  C   LIG    1      -38.471  68.945  21.856  0.00  0.00    +0.126 A 
ATOM      5  C   LIG    1      -38.237  68.460  20.442  0.00  0.00    +0.063 A 
ATOM      6  C   LIG    1      -37.120  67.767  20.202  0.00  0.00    +0.118 A 
ATOM      7  N   LIG    1      -36.219  67.526  21.221  0.00  0.00    -0.221 N 
ATOM      8  N   LIG    1      -35.054  66.845  21.132  0.00  0.00    -0.173 NA
ATOM      9  C   LIG    1      -34.544  66.913  22.359  0.00  0.00    +0.150 A 
ENDROOT
BRANCH   4  10
ATOM     10  N   LIG    1      -39.644  69.642  22.132  0.00  0.00    -0.308 N 
ATOM     11  C   LIG    1      -40.053  69.984  23.505  0.00  0.00    +0.108 C 
ATOM     12  C   LIG    1      -41.557  69.674  23.513  0.00  0.00    +0.029 C 
ATOM     13  C   LIG    1      -41.996  70.038  22.105  0.00  0.00    +0.021 C 
ATOM     14  C   LIG    1      -40.824  69.560  21.258  0.00  0.00    +0.107 C 
BRANCH  11  15
ATOM     15  C   LIG    1      -39.744  71.430  23.851  0.00  0.00    +0.011 A 
ATOM     16  C   LIG    1      -38.607  71.716  24.620  0.00  0.00    +0.129 A 
ATOM     17  F   LIG    1      -37.829  70.713  25.044  0.00  0.00    -0.205 F 
ATOM     18  C   LIG    1      -38.260  73.018  24.982  0.00  0.00    +0.041 A 
ATOM     19  C   LIG    1      -39.074  74.077  24.592  0.00  0.00    +0.041 A 
ATOM     20  C   LIG    1      -40.215  73.815  23.844  0.00  0.00    +0.124 A 
ATOM     21  F   LIG    1      -41.008  74.830  23.479  0.00  0.00    -0.205 F 
ATOM     22  C   LIG    1      -40.551  72.513  23.468  0.00  0.00    +0.046 A 
ENDBRANCH  11  15
ENDBRANCH   4  10
BRANCH   1  25
ATOM     23  N   LIG    1      -35.087  69.173  25.044  0.00  0.00    -0.294 N 
ATOM     24  H   LIG    1      -35.470  69.823  24.360  0.00  0.00    +0.151 HD
ATOM     25  C   LIG    1      -35.075  67.854  24.663  0.00  0.00    +0.250 C 
ATOM     26  O   LIG    1      -34.825  66.930  25.425  0.00  0.00    -0.270 OA
BRANCH  23  28
ATOM     27  C   LIG    1      -33.439  69.191  26.818  0.00  0.00    +0.047 C 
ATOM     28  C   LIG    1      -34.847  69.653  26.412  0.00  0.00    +0.116 C 
ATOM     29  C   LIG    1      -34.892  71.187  26.453  0.00  0.00    +0.047 C 
BRANCH  28  30
ATOM     30  C   LIG    1      -35.789  69.093  27.426  0.00  0.00    +0.088 C 
ATOM     31  N   LIG    1      -36.559  68.641  28.162  0.00  0.00    -0.194 NA
ENDBRANCH  28  30
ENDBRANCH  23  28
ENDBRANCH   1  25
TORSDOF 5
ENDMDL
MODEL 5
REMARK VINA RESULT:      -5.7     17.129     20.183
REMARK  Name = pdb/CHEMBL3675916.pdb
REMARK                            x       y       z     vdW  Elec       q    Type
REMARK                         _______ _______ _______ _____ _____    ______ ____
ROOT
ATOM      1  C   LIG    1      -38.057  68.640  22.449  0.00  0.00    +0.100 A 
ATOM      2  C   LIG    1      -39.049  69.565  22.735  0.00  0.00    +0.170 A 
ATOM      3  N   LIG    1      -39.185  70.503  23.733  0.00  0.00    -0.212 NA
ATOM      4  C   LIG    1      -40.265  71.261  23.732  0.00  0.00    +0.126 A 
ATOM      5  C   LIG    1      -41.326  71.129  22.661  0.00  0.00    +0.063 A 
ATOM      6  C   LIG    1      -41.145  70.196  21.722  0.00  0.00    +0.118 A 
ATOM      7  N   LIG    1      -40.016  69.400  21.741  0.00  0.00    -0.221 N 
ATOM      8  N   LIG    1      -39.696  68.420  20.866  0.00  0.00    -0.173 NA
ATOM      9  C   LIG    1      -38.516  67.978  21.291  0.00  0.00    +0.150 A 
ENDROOT
BRANCH   4  10
ATOM     10  N   LIG    1      -40.452  72.207  24.736  0.00  0.00    -0.308 N 
ATOM     11  C   LIG    1      -39.436  73.224  25.058  0.00  0.00    +0.108 C 
ATOM     12  C   LIG    1      -39.425  73.237  26.594  0.00  0.00    +0.029 C 
ATOM     13  C   LIG    1      -40.875  72.968  26.956  0.00  0.00    +0.021 C 
ATOM     14  C   LIG    1      -41.294  71.942  25.912  0.00  0.00    +0.107 C 
BRANCH  11  15
ATOM     15  C   LIG    1      -39.771  74.579  24.457  0.00  0.00    +0.011 A 
ATOM     16  C   LIG    1      -38.850  75.627  24.590  0.00  0.00    +0.129 A 
ATOM     17  F   LIG    1      -37.705  75.418  25.252  0.00  0.00    -0.205 F 
ATOM     18  C   LIG    1      -39.087  76.899  24.069  0.00  0.00    +0.041 A 
ATOM     19  C   LIG    1      -40.287  77.157  23.413  0.00  0.00    +0.041 A 
ATOM     20  C   LIG    1      -41.222  76.138  23.285  0.00  0.00    +0.124 A 
ATOM     21  F   LIG    1      -42.383  76.386  22.667  0.00  0.00    -0.205 F 
ATOM     22  C   LIG    1      -40.975  74.861  23.791  0.00  0.00    +0.046 A 
ENDBRANCH  11  15
ENDBRANCH   4  10
BRANCH   1  25
ATOM     23  N   LIG    1      -36.907  68.269  24.500  0.00  0.00    -0.294 N 
ATOM     24  H   LIG    1      -37.854  68.204  24.869  0.00  0.00    +0.151 HD
ATOM     25  C   LIG    1      -36.810  68.379  23.135  0.00  0.00    +0.250 C 
ATOM     26  O   LIG    1      -35.757  68.281  22.519  0.00  0.00    -0.270 OA
BRANCH  23  28
ATOM     27  C   LIG    1      -36.326  68.013  26.837  0.00  0.00    +0.047 C 
ATOM     28  C   LIG    1      -35.782  67.979  25.400  0.00  0.00    +0.116 C 
ATOM     29  C   LIG    1      -35.223  66.577  25.119  0.00  0.00    +0.047 C 
BRANCH  28  30
ATOM     30  C   LIG    1      -34.679  68.984  25.338  0.00  0.00    +0.088 C 
ATOM     31  N   LIG    1      -33.822  69.760  25.358  0.00  0.00    -0.194 NA
ENDBRANCH  28  30
ENDBRANCH  23  28
ENDBRANCH   1  25
TORSDOF 5
ENDMDL
MODEL 6
REMARK VINA RESULT:      -5.7     12.938     17.231
REMARK  Name = pdb/CHEMBL3675916.pdb
REMARK                            x       y       z     vdW  Elec       q    Type
REMARK                         _______ _______ _______ _____ _____    ______ ____
ROOT
ATOM      1  C   LIG    1      -37.541  76.080  25.748  0.00  0.00    +0.100 A 
ATOM      2  C   LIG    1      -38.046  74.845  25.377  0.00  0.00    +0.170 A 
ATOM      3  N   LIG    1      -37.660  73.556  25.669  0.00  0.00    -0.212 NA
ATOM      4  C   LIG    1      -38.367  72.564  25.161  0.00  0.00    +0.126 A 
ATOM      5  C   LIG    1      -39.581  72.818  24.295  0.00  0.00    +0.063 A 
ATOM      6  C   LIG    1      -39.904  74.088  24.037  0.00  0.00    +0.118 A 
ATOM      7  N   LIG    1      -39.149  75.118  24.565  0.00  0.00    -0.221 N 
ATOM      8  N   LIG    1      -39.350  76.444  24.393  0.00  0.00    -0.173 NA
ATOM      9  C   LIG    1      -38.388  77.014  25.115  0.00  0.00    +0.150 A 
ENDROOT
BRANCH   4  10
ATOM     10  N   LIG    1      -37.997  71.246  25.414  0.00  0.00    -0.308 N 
ATOM     11  C   LIG    1      -36.610  70.774  25.258  0.00  0.00    +0.108 C 
ATOM     12  C   LIG    1      -36.778  69.415  24.560  0.00  0.00    +0.029 C 
ATOM     13  C   LIG    1      -38.070  68.877  25.148  0.00  0.00    +0.021 C 
ATOM     14  C   LIG    1      -38.936  70.126  25.248  0.00  0.00    +0.107 C 
BRANCH  11  15
ATOM     15  C   LIG    1      -35.887  70.671  26.589  0.00  0.00    +0.011 A 
ATOM     16  C   LIG    1      -34.547  70.258  26.603  0.00  0.00    +0.129 A 
ATOM     17  F   LIG    1      -33.939  69.952  25.450  0.00  0.00    -0.205 F 
ATOM     18  C   LIG    1      -33.818  70.135  27.786  0.00  0.00    +0.041 A 
ATOM     19  C   LIG    1      -34.435  70.405  29.003  0.00  0.00    +0.041 A 
ATOM     20  C   LIG    1      -35.768  70.798  29.014  0.00  0.00    +0.124 A 
ATOM     21  F   LIG    1      -36.370  71.045  30.184  0.00  0.00    -0.205 F 
ATOM     22  C   LIG    1      -36.491  70.938  27.828  0.00  0.00    +0.046 A 
ENDBRANCH  11  15
ENDBRANCH   4  10
BRANCH   1  25
ATOM     23  N   LIG    1      -35.679  75.323  27.025  0.00  0.00    -0.294 N 
ATOM     24  H   LIG    1      -35.889  74.439  26.564  0.00  0.00    +0.151 HD
ATOM     25  C   LIG    1      -36.414  76.402  26.598  0.00  0.00    +0.250 C 
ATOM     26  O   LIG    1      -36.165  77.558  26.909  0.00  0.00    -0.270 OA
BRANCH  23  28
ATOM     27  C   LIG    1      -34.930  75.903  29.254  0.00  0.00    +0.047 C 
ATOM     28  C   LIG    1      -34.480  75.407  27.870  0.00  0.00    +0.116 C 
ATOM     29  C   LIG    1      -33.843  74.019  28.029  0.00  0.00    +0.047 C 
BRANCH  28  30
ATOM     30  C   LIG    1      -33.458  76.379  27.381  0.00  0.00    +0.088 C 
ATOM     31  N   LIG    1      -32.692  77.125  26.940  0.00  0.00    -0.194 NA
ENDBRANCH  28  30
ENDBRANCH  23  28
ENDBRANCH   1  25
TORSDOF 5
ENDMDL
MODEL 7
REMARK VINA RESULT:      -5.6     13.960     18.916
REMARK  Name = pdb/CHEMBL3675916.pdb
REMARK                            x       y       z     vdW  Elec       q    Type
REMARK                         _______ _______ _______ _____ _____    ______ ____
ROOT
ATOM      1  C   LIG    1      -37.540  76.245  25.970  0.00  0.00    +0.100 A 
ATOM      2  C   LIG    1      -38.012  75.039  25.475  0.00  0.00    +0.170 A 
ATOM      3  N   LIG    1      -37.529  73.752  25.544  0.00  0.00    -0.212 NA
ATOM      4  C   LIG    1      -38.228  72.793  24.967  0.00  0.00    +0.126 A 
ATOM      5  C   LIG    1      -39.534  73.080  24.260  0.00  0.00    +0.063 A 
ATOM      6  C   LIG    1      -39.950  74.348  24.216  0.00  0.00    +0.118 A 
ATOM      7  N   LIG    1      -39.204  75.345  24.814  0.00  0.00    -0.221 N 
ATOM      8  N   LIG    1      -39.492  76.666  24.852  0.00  0.00    -0.173 NA
ATOM      9  C   LIG    1      -38.496  77.196  25.557  0.00  0.00    +0.150 A 
ENDROOT
BRANCH   4  10
ATOM     10  N   LIG    1      -37.764  71.481  24.996  0.00  0.00    -0.308 N 
ATOM     11  C   LIG    1      -38.664  70.325  24.844  0.00  0.00    +0.108 C 
ATOM     12  C   LIG    1      -38.160  69.343  25.913  0.00  0.00    +0.029 C 
ATOM     13  C   LIG    1      -36.661  69.584  25.929  0.00  0.00    +0.021 C 
ATOM     14  C   LIG    1      -36.564  71.094  25.752  0.00  0.00    +0.107 C 
BRANCH  11  15
ATOM     15  C   LIG    1      -38.620  69.745  23.440  0.00  0.00    +0.011 A 
ATOM     16  C   LIG    1      -39.804  69.691  22.691  0.00  0.00    +0.129 A 
ATOM     17  F   LIG    1      -40.946  70.135  23.230  0.00  0.00    -0.205 F 
ATOM     18  C   LIG    1      -39.844  69.170  21.398  0.00  0.00    +0.041 A 
ATOM     19  C   LIG    1      -38.681  68.661  20.828  0.00  0.00    +0.041 A 
ATOM     20  C   LIG    1      -37.500  68.689  21.559  0.00  0.00    +0.124 A 
ATOM     21  F   LIG    1      -36.382  68.188  21.020  0.00  0.00    -0.205 F 
ATOM     22  C   LIG    1      -37.458  69.227  22.846  0.00  0.00    +0.046 A 
ENDBRANCH  11  15
ENDBRANCH   4  10
BRANCH   1  25
ATOM     23  N   LIG    1      -35.628  75.417  27.124  0.00  0.00    -0.294 N 
ATOM     24  H   LIG    1      -35.894  74.545  26.670  0.00  0.00    +0.151 HD
ATOM     25  C   LIG    1      -36.354  76.522  26.751  0.00  0.00    +0.250 C 
ATOM     26  O   LIG    1      -36.049  77.668  27.055  0.00  0.00    -0.270 OA
BRANCH  23  28
ATOM     27  C   LIG    1      -34.730  75.916  29.317  0.00  0.00    +0.047 C 
ATOM     28  C   LIG    1      -34.377  75.456  27.894  0.00  0.00    +0.116 C 
ATOM     29  C   LIG    1      -33.756  74.054  27.970  0.00  0.00    +0.047 C 
BRANCH  28  30
ATOM     30  C   LIG    1      -33.370  76.426  27.370  0.00  0.00    +0.088 C 
ATOM     31  N   LIG    1      -32.638  77.203  26.924  0.00  0.00    -0.194 NA
ENDBRANCH  28  30
ENDBRANCH  23  28
ENDBRANCH   1  25
TORSDOF 5
ENDMDL
MODEL 8
REMARK VINA RESULT:      -5.6     18.670     21.860
REMARK  Name = pdb/CHEMBL3675916.pdb
REMARK                            x       y       z     vdW  Elec       q    Type
REMARK                         _______ _______ _______ _____ _____    ______ ____
ROOT
ATOM      1  C   LIG    1      -24.420  82.033  12.955  0.00  0.00    +0.100 A 
ATOM      2  C   LIG    1      -24.209  83.226  12.284  0.00  0.00    +0.170 A 
ATOM      3  N   LIG    1      -23.554  84.386  12.631  0.00  0.00    -0.212 NA
ATOM      4  C   LIG    1      -23.516  85.367  11.750  0.00  0.00    +0.126 A 
ATOM      5  C   LIG    1      -24.154  85.233  10.385  0.00  0.00    +0.063 A 
ATOM      6  C   LIG    1      -24.784  84.089  10.105  0.00  0.00    +0.118 A 
ATOM      7  N   LIG    1      -24.827  83.073  11.041  0.00  0.00    -0.221 N 
ATOM      8  N   LIG    1      -25.423  81.867  10.904  0.00  0.00    -0.173 NA
ATOM      9  C   LIG    1      -25.164  81.245  12.052  0.00  0.00    +0.150 A 
ENDROOT
BRANCH   4  10
ATOM     10  N   LIG    1      -22.882  86.565  12.070  0.00  0.00    -0.308 N 
ATOM     11  C   LIG    1      -22.121  86.743  13.319  0.00  0.00    +0.108 C 
ATOM     12  C   LIG    1      -22.550  88.138  13.797  0.00  0.00    +0.029 C 
ATOM     13  C   LIG    1      -22.747  88.907  12.502  0.00  0.00    +0.021 C 
ATOM     14  C   LIG    1      -23.377  87.863  11.589  0.00  0.00    +0.107 C 
BRANCH  11  15
ATOM     15  C   LIG    1      -20.622  86.628  13.097  0.00  0.00    +0.011 A 
ATOM     16  C   LIG    1      -19.967  85.452  13.488  0.00  0.00    +0.129 A 
ATOM     17  F   LIG    1      -20.669  84.465  14.059  0.00  0.00    -0.205 F 
ATOM     18  C   LIG    1      -18.594  85.273  13.321  0.00  0.00    +0.041 A 
ATOM     19  C   LIG    1      -17.832  86.299  12.770  0.00  0.00    +0.041 A 
ATOM     20  C   LIG    1      -18.458  87.480  12.391  0.00  0.00    +0.124 A 
ATOM     21  F   LIG    1      -17.726  88.474  11.873  0.00  0.00    -0.205 F 
ATOM     22  C   LIG    1      -19.835  87.650  12.543  0.00  0.00    +0.046 A 
ENDBRANCH  11  15
ENDBRANCH   4  10
BRANCH   1  25
ATOM     23  N   LIG    1      -22.690  81.948  14.589  0.00  0.00    -0.294 N 
ATOM     24  H   LIG    1      -22.229  82.588  13.945  0.00  0.00    +0.151 HD
ATOM     25  C   LIG    1      -23.987  81.625  14.275  0.00  0.00    +0.250 C 
ATOM     26  O   LIG    1      -24.739  81.025  15.031  0.00  0.00    -0.270 OA
BRANCH  23  28
ATOM     27  C   LIG    1      -22.515  80.270  16.326  0.00  0.00    +0.047 C 
ATOM     28  C   LIG    1      -22.042  81.661  15.877  0.00  0.00    +0.116 C 
ATOM     29  C   LIG    1      -20.516  81.632  15.710  0.00  0.00    +0.047 C 
BRANCH  28  30
ATOM     30  C   LIG    1      -22.413  82.610  16.968  0.00  0.00    +0.088 C 
ATOM     31  N   LIG    1      -22.690  83.295  17.858  0.00  0.00    -0.194 NA
ENDBRANCH  28  30
ENDBRANCH  23  28
ENDBRANCH   1  25
TORSDOF 5
ENDMDL
MODEL 9
REMARK VINA RESULT:      -5.5      1.761      2.123
REMARK  Name = pdb/CHEMBL3675916.pdb
REMARK                            x       y       z     vdW  Elec       q    Type
REMARK                         _______ _______ _______ _____ _____    ______ ____
ROOT
ATOM      1  C   LIG    1      -20.980  77.194  31.250  0.00  0.00    +0.100 A 
ATOM      2  C   LIG    1      -20.332  77.869  32.272  0.00  0.00    +0.170 A 
ATOM      3  N   LIG    1      -20.789  78.495  33.410  0.00  0.00    -0.212 NA
ATOM      4  C   LIG    1      -19.903  79.053  34.212  0.00  0.00    +0.126 A 
ATOM      5  C   LIG    1      -18.421  79.000  33.916  0.00  0.00    +0.063 A 
ATOM      6  C   LIG    1      -18.034  78.388  32.793  0.00  0.00    +0.118 A 
ATOM      7  N   LIG    1      -18.973  77.818  31.955  0.00  0.00    -0.221 N 
ATOM      8  N   LIG    1      -18.737  77.170  30.792  0.00  0.00    -0.173 NA
ATOM      9  C   LIG    1      -19.944  76.789  30.382  0.00  0.00    +0.150 A 
ENDROOT
BRANCH   4  10
ATOM     10  N   LIG    1      -20.326  79.714  35.362  0.00  0.00    -0.308 N 
ATOM     11  C   LIG    1      -21.426  80.694  35.347  0.00  0.00    +0.108 C 
ATOM     12  C   LIG    1      -20.899  81.829  36.238  0.00  0.00    +0.029 C 
ATOM     13  C   LIG    1      -20.082  81.098  37.289  0.00  0.00    +0.021 C 
ATOM     14  C   LIG    1      -19.415  79.992  36.482  0.00  0.00    +0.107 C 
BRANCH  11  15
ATOM     15  C   LIG    1      -22.729  80.099  35.855  0.00  0.00    +0.011 A 
ATOM     16  C   LIG    1      -23.759  79.842  34.939  0.00  0.00    +0.129 A 
ATOM     17  F   LIG    1      -23.580  80.136  33.645  0.00  0.00    -0.205 F 
ATOM     18  C   LIG    1      -24.984  79.301  35.328  0.00  0.00    +0.041 A 
ATOM     19  C   LIG    1      -25.215  79.026  36.673  0.00  0.00    +0.041 A 
ATOM     20  C   LIG    1      -24.214  79.290  37.600  0.00  0.00    +0.124 A 
ATOM     21  F   LIG    1      -24.437  79.039  38.896  0.00  0.00    -0.205 F 
ATOM     22  C   LIG    1      -22.982  79.814  37.205  0.00  0.00    +0.046 A 
ENDBRANCH  11  15
ENDBRANCH   4  10
BRANCH   1  25
ATOM     23  N   LIG    1      -23.064  76.552  32.207  0.00  0.00    -0.294 N 
ATOM     24  H   LIG    1      -22.553  76.678  33.079  0.00  0.00    +0.151 HD
ATOM     25  C   LIG    1      -22.390  76.923  31.069  0.00  0.00    +0.250 C 
ATOM     26  O   LIG    1      -22.916  77.012  29.968  0.00  0.00    -0.270 OA
BRANCH  23  28
ATOM     27  C   LIG    1      -24.848  75.994  33.745  0.00  0.00    +0.047 C 
ATOM     28  C   LIG    1      -24.501  76.256  32.271  0.00  0.00    +0.116 C 
ATOM     29  C   LIG    1      -25.316  77.461  31.781  0.00  0.00    +0.047 C 
BRANCH  28  30
ATOM     30  C   LIG    1      -24.905  75.033  31.515  0.00  0.00    +0.088 C 
ATOM     31  N   LIG    1      -25.215  74.051  30.987  0.00  0.00    -0.194 NA
ENDBRANCH  28  30
ENDBRANCH  23  28
ENDBRANCH   1  25
TORSDOF 5
ENDMDL
