MODEL 1
REMARK VINA RESULT:      -6.8      0.000      0.000
REMARK  Name = pdb/CHEMBL3673442.pdb
REMARK                            x       y       z     vdW  Elec       q    Type
REMARK                         _______ _______ _______ _____ _____    ______ ____
ROOT
ATOM      1  N   LIG    1      -20.078  82.145  38.463  0.00  0.00    -0.326 N 
ATOM      2  C   LIG    1      -20.431  81.567  37.271  0.00  0.00    +0.069 A 
ATOM      3  C   LIG    1      -21.408  81.837  36.307  0.00  0.00    +0.028 A 
ATOM      4  C   LIG    1      -21.456  80.989  35.190  0.00  0.00    +0.011 A 
ATOM      5  C   LIG    1      -20.591  79.893  35.039  0.00  0.00    -0.013 A 
ATOM      6  C   LIG    1      -19.629  79.640  36.023  0.00  0.00    +0.038 A 
ATOM      7  C   LIG    1      -19.543  80.504  37.125  0.00  0.00    +0.090 A 
ATOM      8  N   LIG    1      -18.657  80.467  38.190  0.00  0.00    -0.236 NA
ATOM      9  C   LIG    1      -18.995  81.445  38.935  0.00  0.00    +0.200 A 
ENDROOT
BRANCH   5  10
ATOM     10  C   LIG    1      -20.697  79.026  33.880  0.00  0.00    +0.020 A 
ATOM     11  C   LIG    1      -21.753  78.168  33.632  0.00  0.00    +0.117 A 
ATOM     12  N   LIG    1      -21.483  77.508  32.467  0.00  0.00    -0.268 N 
ATOM     13  N   LIG    1      -20.341  77.938  31.891  0.00  0.00    -0.179 NA
ATOM     14  C   LIG    1      -19.866  78.848  32.751  0.00  0.00    +0.142 A 
BRANCH  12  15
ATOM     15  C   LIG    1      -22.331  76.531  31.784  0.00  0.00    +0.110 C 
ATOM     16  C   LIG    1      -21.699  75.922  30.516  0.00  0.00    +0.042 C 
ATOM     17  C   LIG    1      -21.681  76.915  29.356  0.00  0.00    +0.083 C 
ATOM     18  N   LIG    1      -23.022  77.418  29.074  0.00  0.00    -0.316 NA
ATOM     19  H   LIG    1      -22.978  78.089  28.307  0.00  0.00    +0.122 HD
ATOM     20  C   LIG    1      -23.612  78.072  30.245  0.00  0.00    +0.083 C 
ATOM     21  C   LIG    1      -23.711  77.100  31.417  0.00  0.00    +0.042 C 
ENDBRANCH  12  15
ENDBRANCH   5  10
BRANCH   1  22
ATOM     22  C   LIG    1      -20.778  83.186  39.225  0.00  0.00    +0.158 C 
BRANCH  22  26
ATOM     23  C   LIG    1      -18.837  87.057  39.347  0.00  0.00    +0.162 A 
ATOM     24  C   LIG    1      -19.973  86.794  40.146  0.00  0.00    +0.162 A 
ATOM     25  C   LIG    1      -20.602  85.545  40.042  0.00  0.00    +0.054 A 
ATOM     26  C   LIG    1      -20.097  84.530  39.231  0.00  0.00    -0.024 A 
ATOM     27  C   LIG    1      -19.001  84.810  38.420  0.00  0.00    +0.009 A 
ATOM     28  C   LIG    1      -18.415  86.076  38.439  0.00  0.00    +0.050 A 
BRANCH  24  29
ATOM     29  O   LIG    1      -20.440  87.764  41.006  0.00  0.00    -0.491 OA
ATOM     30  C   LIG    1      -21.803  88.174  40.812  0.00  0.00    +0.277 C 
ENDBRANCH  24  29
BRANCH  23  31
ATOM     31  O   LIG    1      -18.185  88.260  39.492  0.00  0.00    -0.484 OA
BRANCH  31  32
ATOM     32  C   LIG    1      -17.295  88.705  38.450  0.00  0.00    +0.266 C 
BRANCH  32  36
ATOM     33  C   LIG    1      -19.194  91.491  35.855  0.00  0.00    +0.214 A 
ATOM     34  N   LIG    1      -19.532  91.485  37.159  0.00  0.00    -0.221 NA
ATOM     35  C   LIG    1      -18.911  90.582  37.950  0.00  0.00    +0.121 A 
ATOM     36  C   LIG    1      -17.946  89.685  37.508  0.00  0.00    +0.008 A 
ATOM     37  C   LIG    1      -17.573  89.770  36.161  0.00  0.00    +0.013 A 
ATOM     38  C   LIG    1      -18.218  90.670  35.315  0.00  0.00    +0.067 A 
BRANCH  33  40
ATOM     39  C   LIG    1      -20.299  93.531  35.645  0.00  0.00    +0.279 C 
ATOM     40  O   LIG    1      -19.843  92.349  34.989  0.00  0.00    -0.480 OA
ENDBRANCH  33  40
ENDBRANCH  32  36
ENDBRANCH  31  32
ENDBRANCH  23  31
ENDBRANCH  22  26
ENDBRANCH   1  22
TORSDOF 9
ENDMDL
MODEL 2
REMARK VINA RESULT:      -6.7      5.752     11.775
REMARK  Name = pdb/CHEMBL3673442.pdb
REMARK                            x       y       z     vdW  Elec       q    Type
REMARK                         _______ _______ _______ _____ _____    ______ ____
ROOT
ATOM      1  N   LIG    1      -19.819  77.044  30.587  0.00  0.00    -0.326 N 
ATOM      2  C   LIG    1      -20.019  77.673  31.788  0.00  0.00    +0.069 A 
ATOM      3  C   LIG    1      -21.145  78.167  32.455  0.00  0.00    +0.028 A 
ATOM      4  C   LIG    1      -20.936  78.766  33.707  0.00  0.00    +0.011 A 
ATOM      5  C   LIG    1      -19.658  78.903  34.271  0.00  0.00    -0.013 A 
ATOM      6  C   LIG    1      -18.547  78.409  33.577  0.00  0.00    +0.038 A 
ATOM      7  C   LIG    1      -18.747  77.771  32.344  0.00  0.00    +0.090 A 
ATOM      8  N   LIG    1      -17.809  77.184  31.509  0.00  0.00    -0.236 NA
ATOM      9  C   LIG    1      -18.477  76.763  30.508  0.00  0.00    +0.200 A 
ENDROOT
BRANCH   5  10
ATOM     10  C   LIG    1      -19.486  79.556  35.556  0.00  0.00    +0.020 A 
ATOM     11  C   LIG    1      -20.184  80.675  35.970  0.00  0.00    +0.117 A 
ATOM     12  N   LIG    1      -19.733  81.006  37.216  0.00  0.00    -0.268 N 
ATOM     13  N   LIG    1      -18.827  80.120  37.680  0.00  0.00    -0.179 NA
ATOM     14  C   LIG    1      -18.675  79.252  36.673  0.00  0.00    +0.142 A 
BRANCH  12  15
ATOM     15  C   LIG    1      -20.207  82.094  38.072  0.00  0.00    +0.110 C 
ATOM     16  C   LIG    1      -21.047  81.629  39.278  0.00  0.00    +0.042 C 
ATOM     17  C   LIG    1      -22.443  81.174  38.858  0.00  0.00    +0.083 C 
ATOM     18  N   LIG    1      -23.137  82.224  38.118  0.00  0.00    -0.316 NA
ATOM     19  H   LIG    1      -24.059  81.888  37.838  0.00  0.00    +0.122 HD
ATOM     20  C   LIG    1      -22.393  82.626  36.923  0.00  0.00    +0.083 C 
ATOM     21  C   LIG    1      -21.010  83.150  37.295  0.00  0.00    +0.042 C 
ENDBRANCH  12  15
ENDBRANCH   5  10
BRANCH   1  22
ATOM     22  C   LIG    1      -20.767  76.840  29.484  0.00  0.00    +0.158 C 
BRANCH  22  26
ATOM     23  C   LIG    1      -24.836  76.150  30.800  0.00  0.00    +0.162 A 
ATOM     24  C   LIG    1      -23.845  75.155  30.968  0.00  0.00    +0.162 A 
ATOM     25  C   LIG    1      -22.551  75.399  30.485  0.00  0.00    +0.054 A 
ATOM     26  C   LIG    1      -22.194  76.619  29.912  0.00  0.00    -0.024 A 
ATOM     27  C   LIG    1      -23.184  77.577  29.717  0.00  0.00    +0.009 A 
ATOM     28  C   LIG    1      -24.500  77.321  30.107  0.00  0.00    +0.050 A 
BRANCH  24  29
ATOM     29  O   LIG    1      -24.167  73.973  31.597  0.00  0.00    -0.491 OA
ATOM     30  C   LIG    1      -24.323  72.828  30.744  0.00  0.00    +0.277 C 
ENDBRANCH  24  29
BRANCH  23  31
ATOM     31  O   LIG    1      -26.089  75.936  31.325  0.00  0.00    -0.484 OA
BRANCH  31  32
ATOM     32  C   LIG    1      -26.622  76.879  32.276  0.00  0.00    +0.266 C 
BRANCH  32  36
ATOM     33  C   LIG    1      -24.280  77.106  35.820  0.00  0.00    +0.214 A 
ATOM     34  N   LIG    1      -24.904  75.948  35.528  0.00  0.00    -0.221 NA
ATOM     35  C   LIG    1      -25.642  75.917  34.397  0.00  0.00    +0.121 A 
ATOM     36  C   LIG    1      -25.781  76.987  33.521  0.00  0.00    +0.008 A 
ATOM     37  C   LIG    1      -25.062  78.150  33.824  0.00  0.00    +0.013 A 
ATOM     38  C   LIG    1      -24.316  78.221  35.000  0.00  0.00    +0.067 A 
BRANCH  33  40
ATOM     39  C   LIG    1      -22.158  77.096  36.781  0.00  0.00    +0.279 C 
ATOM     40  O   LIG    1      -23.564  77.214  36.996  0.00  0.00    -0.480 OA
ENDBRANCH  33  40
ENDBRANCH  32  36
ENDBRANCH  31  32
ENDBRANCH  23  31
ENDBRANCH  22  26
ENDBRANCH   1  22
TORSDOF 9
ENDMDL
MODEL 3
REMARK VINA RESULT:      -6.6      9.714     15.269
REMARK  Name = pdb/CHEMBL3673442.pdb
REMARK                            x       y       z     vdW  Elec       q    Type
REMARK                         _______ _______ _______ _____ _____    ______ ____
ROOT
ATOM      1  N   LIG    1      -28.498  91.682  33.937  0.00  0.00    -0.326 N 
ATOM      2  C   LIG    1      -27.389  91.439  34.705  0.00  0.00    +0.069 A 
ATOM      3  C   LIG    1      -27.074  90.500  35.693  0.00  0.00    +0.028 A 
ATOM      4  C   LIG    1      -25.795  90.578  36.266  0.00  0.00    +0.011 A 
ATOM      5  C   LIG    1      -24.867  91.566  35.900  0.00  0.00    -0.013 A 
ATOM      6  C   LIG    1      -25.212  92.500  34.916  0.00  0.00    +0.038 A 
ATOM      7  C   LIG    1      -26.472  92.407  34.306  0.00  0.00    +0.090 A 
ATOM      8  N   LIG    1      -27.007  93.193  33.297  0.00  0.00    -0.236 NA
ATOM      9  C   LIG    1      -28.179  92.728  33.105  0.00  0.00    +0.200 A 
ENDROOT
BRANCH   5  10
ATOM     10  C   LIG    1      -23.565  91.627  36.540  0.00  0.00    +0.020 A 
ATOM     11  C   LIG    1      -22.524  90.751  36.291  0.00  0.00    +0.117 A 
ATOM     12  N   LIG    1      -21.480  91.112  37.094  0.00  0.00    -0.268 N 
ATOM     13  N   LIG    1      -21.748  92.227  37.807  0.00  0.00    -0.179 NA
ATOM     14  C   LIG    1      -23.010  92.529  37.475  0.00  0.00    +0.142 A 
BRANCH  12  15
ATOM     15  C   LIG    1      -20.151  90.503  37.150  0.00  0.00    +0.110 C 
ATOM     16  C   LIG    1      -19.018  91.488  37.502  0.00  0.00    +0.042 C 
ATOM     17  C   LIG    1      -18.689  92.417  36.334  0.00  0.00    +0.083 C 
ATOM     18  N   LIG    1      -18.358  91.654  35.134  0.00  0.00    -0.316 NA
ATOM     19  H   LIG    1      -18.158  92.298  34.368  0.00  0.00    +0.122 HD
ATOM     20  C   LIG    1      -19.453  90.767  34.736  0.00  0.00    +0.083 C 
ATOM     21  C   LIG    1      -19.780  89.775  35.848  0.00  0.00    +0.042 C 
ENDBRANCH  12  15
ENDBRANCH   5  10
BRANCH   1  22
ATOM     22  C   LIG    1      -29.842  91.103  34.048  0.00  0.00    +0.158 C 
BRANCH  22  26
ATOM     23  C   LIG    1      -30.620  87.821  31.329  0.00  0.00    +0.162 A 
ATOM     24  C   LIG    1      -31.396  89.002  31.275  0.00  0.00    +0.162 A 
ATOM     25  C   LIG    1      -31.144  90.022  32.204  0.00  0.00    +0.054 A 
ATOM     26  C   LIG    1      -30.104  89.937  33.130  0.00  0.00    -0.024 A 
ATOM     27  C   LIG    1      -29.372  88.757  33.200  0.00  0.00    +0.009 A 
ATOM     28  C   LIG    1      -29.665  87.693  32.346  0.00  0.00    +0.050 A 
BRANCH  24  29
ATOM     29  O   LIG    1      -32.379  89.128  30.319  0.00  0.00    -0.491 OA
ATOM     30  C   LIG    1      -33.223  90.284  30.433  0.00  0.00    +0.277 C 
ENDBRANCH  24  29
BRANCH  23  31
ATOM     31  O   LIG    1      -30.827  86.846  30.382  0.00  0.00    -0.484 OA
BRANCH  31  32
ATOM     32  C   LIG    1      -31.430  85.598  30.779  0.00  0.00    +0.266 C 
BRANCH  32  36
ATOM     33  C   LIG    1      -35.066  84.722  28.751  0.00  0.00    +0.214 A 
ATOM     34  N   LIG    1      -34.622  83.861  29.688  0.00  0.00    -0.221 NA
ATOM     35  C   LIG    1      -33.461  84.171  30.306  0.00  0.00    +0.121 A 
ATOM     36  C   LIG    1      -32.718  85.317  30.049  0.00  0.00    +0.008 A 
ATOM     37  C   LIG    1      -33.248  86.220  29.119  0.00  0.00    +0.013 A 
ATOM     38  C   LIG    1      -34.428  85.912  28.443  0.00  0.00    +0.067 A 
BRANCH  33  40
ATOM     39  C   LIG    1      -36.185  84.961  26.722  0.00  0.00    +0.279 C 
ATOM     40  O   LIG    1      -36.214  84.423  28.043  0.00  0.00    -0.480 OA
ENDBRANCH  33  40
ENDBRANCH  32  36
ENDBRANCH  31  32
ENDBRANCH  23  31
ENDBRANCH  22  26
ENDBRANCH   1  22
TORSDOF 9
ENDMDL
MODEL 4
REMARK VINA RESULT:      -6.6      5.554     11.338
REMARK  Name = pdb/CHEMBL3673442.pdb
REMARK                            x       y       z     vdW  Elec       q    Type
REMARK                         _______ _______ _______ _____ _____    ______ ____
ROOT
ATOM      1  N   LIG    1      -18.399  76.704  32.423  0.00  0.00    -0.326 N 
ATOM      2  C   LIG    1      -18.944  77.652  33.249  0.00  0.00    +0.069 A 
ATOM      3  C   LIG    1      -20.083  78.462  33.187  0.00  0.00    +0.028 A 
ATOM      4  C   LIG    1      -20.306  79.337  34.262  0.00  0.00    +0.011 A 
ATOM      5  C   LIG    1      -19.421  79.434  35.348  0.00  0.00    -0.013 A 
ATOM      6  C   LIG    1      -18.283  78.620  35.380  0.00  0.00    +0.038 A 
ATOM      7  C   LIG    1      -18.071  77.712  34.332  0.00  0.00    +0.090 A 
ATOM      8  N   LIG    1      -17.043  76.795  34.174  0.00  0.00    -0.236 NA
ATOM      9  C   LIG    1      -17.281  76.222  33.059  0.00  0.00    +0.200 A 
ENDROOT
BRANCH   5  10
ATOM     10  C   LIG    1      -19.677  80.375  36.424  0.00  0.00    +0.020 A 
ATOM     11  C   LIG    1      -20.635  81.372  36.386  0.00  0.00    +0.117 A 
ATOM     12  N   LIG    1      -20.559  82.060  37.564  0.00  0.00    -0.268 N 
ATOM     13  N   LIG    1      -19.654  81.525  38.409  0.00  0.00    -0.179 NA
ATOM     14  C   LIG    1      -19.119  80.513  37.714  0.00  0.00    +0.142 A 
BRANCH  12  15
ATOM     15  C   LIG    1      -21.403  83.175  37.996  0.00  0.00    +0.110 C 
ATOM     16  C   LIG    1      -21.236  83.556  39.480  0.00  0.00    +0.042 C 
ATOM     17  C   LIG    1      -21.886  82.531  40.408  0.00  0.00    +0.083 C 
ATOM     18  N   LIG    1      -23.296  82.344  40.077  0.00  0.00    -0.316 NA
ATOM     19  H   LIG    1      -23.700  81.644  40.700  0.00  0.00    +0.122 HD
ATOM     20  C   LIG    1      -23.474  81.905  38.691  0.00  0.00    +0.083 C 
ATOM     21  C   LIG    1      -22.895  82.929  37.719  0.00  0.00    +0.042 C 
ENDBRANCH  12  15
ENDBRANCH   5  10
BRANCH   1  22
ATOM     22  C   LIG    1      -18.778  76.350  31.050  0.00  0.00    +0.158 C 
BRANCH  22  26
ATOM     23  C   LIG    1      -23.059  76.015  30.477  0.00  0.00    +0.162 A 
ATOM     24  C   LIG    1      -22.402  75.257  31.474  0.00  0.00    +0.162 A 
ATOM     25  C   LIG    1      -21.009  75.358  31.596  0.00  0.00    +0.054 A 
ATOM     26  C   LIG    1      -20.261  76.237  30.813  0.00  0.00    -0.024 A 
ATOM     27  C   LIG    1      -20.910  76.951  29.810  0.00  0.00    +0.009 A 
ATOM     28  C   LIG    1      -22.282  76.797  29.610  0.00  0.00    +0.050 A 
BRANCH  24  29
ATOM     29  O   LIG    1      -23.139  74.437  32.301  0.00  0.00    -0.491 OA
ATOM     30  C   LIG    1      -22.950  74.634  33.711  0.00  0.00    +0.277 C 
ENDBRANCH  24  29
BRANCH  23  31
ATOM     31  O   LIG    1      -24.431  75.961  30.395  0.00  0.00    -0.484 OA
BRANCH  31  32
ATOM     32  C   LIG    1      -25.197  77.153  30.661  0.00  0.00    +0.266 C 
BRANCH  32  36
ATOM     33  C   LIG    1      -24.919  78.427  34.711  0.00  0.00    +0.214 A 
ATOM     34  N   LIG    1      -25.874  77.537  34.375  0.00  0.00    -0.221 NA
ATOM     35  C   LIG    1      -25.933  77.161  33.078  0.00  0.00    +0.121 A 
ATOM     36  C   LIG    1      -25.070  77.618  32.089  0.00  0.00    +0.008 A 
ATOM     37  C   LIG    1      -24.050  78.488  32.491  0.00  0.00    +0.013 A 
ATOM     38  C   LIG    1      -23.982  78.917  33.817  0.00  0.00    +0.067 A 
BRANCH  33  40
ATOM     39  C   LIG    1      -23.510  78.971  36.484  0.00  0.00    +0.279 C 
ATOM     40  O   LIG    1      -24.853  78.895  36.009  0.00  0.00    -0.480 OA
ENDBRANCH  33  40
ENDBRANCH  32  36
ENDBRANCH  31  32
ENDBRANCH  23  31
ENDBRANCH  22  26
ENDBRANCH   1  22
TORSDOF 9
ENDMDL
MODEL 5
REMARK VINA RESULT:      -6.5     18.634     25.083
REMARK  Name = pdb/CHEMBL3673442.pdb
REMARK                            x       y       z     vdW  Elec       q    Type
REMARK                         _______ _______ _______ _____ _____    ______ ____
ROOT
ATOM      1  N   LIG    1      -40.918  70.466  22.891  0.00  0.00    -0.326 N 
ATOM      2  C   LIG    1      -39.702  69.835  22.928  0.00  0.00    +0.069 A 
ATOM      3  C   LIG    1      -38.716  69.675  23.907  0.00  0.00    +0.028 A 
ATOM      4  C   LIG    1      -37.574  68.941  23.551  0.00  0.00    +0.011 A 
ATOM      5  C   LIG    1      -37.394  68.408  22.264  0.00  0.00    -0.013 A 
ATOM      6  C   LIG    1      -38.392  68.592  21.300  0.00  0.00    +0.038 A 
ATOM      7  C   LIG    1      -39.557  69.288  21.656  0.00  0.00    +0.090 A 
ATOM      8  N   LIG    1      -40.677  69.557  20.884  0.00  0.00    -0.236 NA
ATOM      9  C   LIG    1      -41.447  70.231  21.645  0.00  0.00    +0.200 A 
ENDROOT
BRANCH   5  10
ATOM     10  C   LIG    1      -36.183  67.680  21.932  0.00  0.00    +0.020 A 
ATOM     11  C   LIG    1      -35.969  67.009  20.741  0.00  0.00    +0.117 A 
ATOM     12  N   LIG    1      -34.733  66.432  20.809  0.00  0.00    -0.268 N 
ATOM     13  N   LIG    1      -34.085  66.749  21.950  0.00  0.00    -0.179 NA
ATOM     14  C   LIG    1      -34.967  67.495  22.628  0.00  0.00    +0.142 A 
BRANCH  12  15
ATOM     15  C   LIG    1      -34.057  65.656  19.768  0.00  0.00    +0.110 C 
ATOM     16  C   LIG    1      -32.522  65.805  19.765  0.00  0.00    +0.042 C 
ATOM     17  C   LIG    1      -32.084  67.164  19.222  0.00  0.00    +0.083 C 
ATOM     18  N   LIG    1      -32.630  67.398  17.888  0.00  0.00    -0.316 NA
ATOM     19  H   LIG    1      -32.334  68.316  17.557  0.00  0.00    +0.122 HD
ATOM     20  C   LIG    1      -34.093  67.338  17.884  0.00  0.00    +0.083 C 
ATOM     21  C   LIG    1      -34.583  65.974  18.359  0.00  0.00    +0.042 C 
ENDBRANCH  12  15
ENDBRANCH   5  10
BRANCH   1  22
ATOM     22  C   LIG    1      -41.517  71.373  23.878  0.00  0.00    +0.158 C 
BRANCH  22  26
ATOM     23  C   LIG    1      -39.617  75.245  24.287  0.00  0.00    +0.162 A 
ATOM     24  C   LIG    1      -40.868  75.120  23.639  0.00  0.00    +0.162 A 
ATOM     25  C   LIG    1      -41.427  73.843  23.485  0.00  0.00    +0.054 A 
ATOM     26  C   LIG    1      -40.823  72.703  24.015  0.00  0.00    -0.024 A 
ATOM     27  C   LIG    1      -39.575  72.831  24.617  0.00  0.00    +0.009 A 
ATOM     28  C   LIG    1      -38.957  74.080  24.700  0.00  0.00    +0.050 A 
BRANCH  24  29
ATOM     29  O   LIG    1      -41.510  76.247  23.174  0.00  0.00    -0.491 OA
ATOM     30  C   LIG    1      -42.909  76.099  22.883  0.00  0.00    +0.277 C 
ENDBRANCH  24  29
BRANCH  23  31
ATOM     31  O   LIG    1      -39.096  76.502  24.491  0.00  0.00    -0.484 OA
BRANCH  31  32
ATOM     32  C   LIG    1      -39.223  77.111  25.791  0.00  0.00    +0.266 C 
BRANCH  32  36
ATOM     33  C   LIG    1      -35.443  77.594  27.682  0.00  0.00    +0.214 A 
ATOM     34  N   LIG    1      -35.607  76.580  26.810  0.00  0.00    -0.221 NA
ATOM     35  C   LIG    1      -36.823  76.456  26.234  0.00  0.00    +0.121 A 
ATOM     36  C   LIG    1      -37.893  77.311  26.471  0.00  0.00    +0.008 A 
ATOM     37  C   LIG    1      -37.662  78.392  27.330  0.00  0.00    +0.013 A 
ATOM     38  C   LIG    1      -36.426  78.527  27.963  0.00  0.00    +0.067 A 
BRANCH  33  40
ATOM     39  C   LIG    1      -33.175  77.062  27.673  0.00  0.00    +0.279 C 
ATOM     40  O   LIG    1      -34.240  77.729  28.348  0.00  0.00    -0.480 OA
ENDBRANCH  33  40
ENDBRANCH  32  36
ENDBRANCH  31  32
ENDBRANCH  23  31
ENDBRANCH  22  26
ENDBRANCH   1  22
TORSDOF 9
ENDMDL
MODEL 6
REMARK VINA RESULT:      -6.4     20.580     22.218
REMARK  Name = pdb/CHEMBL3673442.pdb
REMARK                            x       y       z     vdW  Elec       q    Type
REMARK                         _______ _______ _______ _____ _____    ______ ____
ROOT
ATOM      1  N   LIG    1      -19.472  73.384  17.367  0.00  0.00    -0.326 N 
ATOM      2  C   LIG    1      -20.725  73.029  16.940  0.00  0.00    +0.069 A 
ATOM      3  C   LIG    1      -21.375  73.046  15.701  0.00  0.00    +0.028 A 
ATOM      4  C   LIG    1      -22.702  72.589  15.668  0.00  0.00    +0.011 A 
ATOM      5  C   LIG    1      -23.377  72.158  16.820  0.00  0.00    -0.013 A 
ATOM      6  C   LIG    1      -22.707  72.160  18.049  0.00  0.00    +0.038 A 
ATOM      7  C   LIG    1      -21.367  72.575  18.089  0.00  0.00    +0.090 A 
ATOM      8  N   LIG    1      -20.507  72.627  19.175  0.00  0.00    -0.236 NA
ATOM      9  C   LIG    1      -19.414  73.089  18.707  0.00  0.00    +0.200 A 
ENDROOT
BRANCH   5  10
ATOM     10  C   LIG    1      -24.760  71.721  16.743  0.00  0.00    +0.020 A 
ATOM     11  C   LIG    1      -25.261  70.585  17.353  0.00  0.00    +0.117 A 
ATOM     12  N   LIG    1      -26.586  70.498  17.034  0.00  0.00    -0.268 N 
ATOM     13  N   LIG    1      -27.007  71.556  16.309  0.00  0.00    -0.179 NA
ATOM     14  C   LIG    1      -25.899  72.287  16.130  0.00  0.00    +0.142 A 
BRANCH  12  15
ATOM     15  C   LIG    1      -27.542  69.485  17.484  0.00  0.00    +0.110 C 
ATOM     16  C   LIG    1      -29.008  69.964  17.501  0.00  0.00    +0.042 C 
ATOM     17  C   LIG    1      -29.280  70.925  18.657  0.00  0.00    +0.083 C 
ATOM     18  N   LIG    1      -28.917  70.323  19.937  0.00  0.00    -0.316 NA
ATOM     19  H   LIG    1      -29.094  70.991  20.687  0.00  0.00    +0.122 HD
ATOM     20  C   LIG    1      -27.506  69.932  19.970  0.00  0.00    +0.083 C 
ATOM     21  C   LIG    1      -27.196  68.921  18.871  0.00  0.00    +0.042 C 
ENDBRANCH  12  15
ENDBRANCH   5  10
BRANCH   1  22
ATOM     22  C   LIG    1      -18.419  74.102  16.639  0.00  0.00    +0.158 C 
BRANCH  22  26
ATOM     23  C   LIG    1      -19.376  78.245  15.810  0.00  0.00    +0.162 A 
ATOM     24  C   LIG    1      -19.788  77.219  14.929  0.00  0.00    +0.162 A 
ATOM     25  C   LIG    1      -19.417  75.895  15.207  0.00  0.00    +0.054 A 
ATOM     26  C   LIG    1      -18.718  75.553  16.364  0.00  0.00    -0.024 A 
ATOM     27  C   LIG    1      -18.285  76.572  17.206  0.00  0.00    +0.009 A 
ATOM     28  C   LIG    1      -18.563  77.905  16.901  0.00  0.00    +0.050 A 
BRANCH  24  29
ATOM     29  O   LIG    1      -20.541  77.536  13.819  0.00  0.00    -0.491 OA
ATOM     30  C   LIG    1      -21.894  77.056  13.819  0.00  0.00    +0.277 C 
ENDBRANCH  24  29
BRANCH  23  31
ATOM     31  O   LIG    1      -19.789  79.535  15.570  0.00  0.00    -0.484 OA
BRANCH  31  32
ATOM     32  C   LIG    1      -20.815  80.110  16.402  0.00  0.00    +0.266 C 
BRANCH  32  36
ATOM     33  C   LIG    1      -24.369  80.957  14.221  0.00  0.00    +0.214 A 
ATOM     34  N   LIG    1      -23.213  81.521  13.821  0.00  0.00    -0.221 NA
ATOM     35  C   LIG    1      -22.107  81.232  14.542  0.00  0.00    +0.121 A 
ATOM     36  C   LIG    1      -22.089  80.387  15.645  0.00  0.00    +0.008 A 
ATOM     37  C   LIG    1      -23.297  79.767  15.987  0.00  0.00    +0.013 A 
ATOM     38  C   LIG    1      -24.460  80.070  15.280  0.00  0.00    +0.067 A 
BRANCH  33  40
ATOM     39  C   LIG    1      -25.329  82.197  12.498  0.00  0.00    +0.279 C 
ATOM     40  O   LIG    1      -25.541  81.268  13.560  0.00  0.00    -0.480 OA
ENDBRANCH  33  40
ENDBRANCH  32  36
ENDBRANCH  31  32
ENDBRANCH  23  31
ENDBRANCH  22  26
ENDBRANCH   1  22
TORSDOF 9
ENDMDL
MODEL 7
REMARK VINA RESULT:      -6.3      7.671      9.283
REMARK  Name = pdb/CHEMBL3673442.pdb
REMARK                            x       y       z     vdW  Elec       q    Type
REMARK                         _______ _______ _______ _____ _____    ______ ____
ROOT
ATOM      1  N   LIG    1      -26.930  81.379  37.697  0.00  0.00    -0.326 N 
ATOM      2  C   LIG    1      -25.915  80.931  36.892  0.00  0.00    +0.069 A 
ATOM      3  C   LIG    1      -24.743  81.505  36.388  0.00  0.00    +0.028 A 
ATOM      4  C   LIG    1      -23.936  80.700  35.570  0.00  0.00    +0.011 A 
ATOM      5  C   LIG    1      -24.285  79.382  35.234  0.00  0.00    -0.013 A 
ATOM      6  C   LIG    1      -25.468  78.835  35.744  0.00  0.00    +0.038 A 
ATOM      7  C   LIG    1      -26.263  79.616  36.596  0.00  0.00    +0.090 A 
ATOM      8  N   LIG    1      -27.444  79.273  37.237  0.00  0.00    -0.236 NA
ATOM      9  C   LIG    1      -27.788  80.322  37.876  0.00  0.00    +0.200 A 
ENDROOT
BRANCH   5  10
ATOM     10  C   LIG    1      -23.433  78.595  34.361  0.00  0.00    +0.020 A 
ATOM     11  C   LIG    1      -23.891  77.684  33.426  0.00  0.00    +0.117 A 
ATOM     12  N   LIG    1      -22.799  77.131  32.820  0.00  0.00    -0.268 N 
ATOM     13  N   LIG    1      -21.645  77.682  33.250  0.00  0.00    -0.179 NA
ATOM     14  C   LIG    1      -22.032  78.559  34.185  0.00  0.00    +0.142 A 
BRANCH  12  15
ATOM     15  C   LIG    1      -22.789  76.147  31.737  0.00  0.00    +0.110 C 
ATOM     16  C   LIG    1      -21.582  76.268  30.785  0.00  0.00    +0.042 C 
ATOM     17  C   LIG    1      -21.703  77.479  29.863  0.00  0.00    +0.083 C 
ATOM     18  N   LIG    1      -22.954  77.443  29.110  0.00  0.00    -0.316 NA
ATOM     19  H   LIG    1      -23.016  78.270  28.515  0.00  0.00    +0.122 HD
ATOM     20  C   LIG    1      -24.119  77.407  29.997  0.00  0.00    +0.083 C 
ATOM     21  C   LIG    1      -24.077  76.178  30.899  0.00  0.00    +0.042 C 
ENDBRANCH  12  15
ENDBRANCH   5  10
BRANCH   1  22
ATOM     22  C   LIG    1      -27.202  82.744  38.164  0.00  0.00    +0.158 C 
BRANCH  22  26
ATOM     23  C   LIG    1      -28.833  85.383  35.139  0.00  0.00    +0.162 A 
ATOM     24  C   LIG    1      -27.562  85.634  35.707  0.00  0.00    +0.162 A 
ATOM     25  C   LIG    1      -27.090  84.783  36.717  0.00  0.00    +0.054 A 
ATOM     26  C   LIG    1      -27.803  83.657  37.127  0.00  0.00    -0.024 A 
ATOM     27  C   LIG    1      -29.068  83.440  36.590  0.00  0.00    +0.009 A 
ATOM     28  C   LIG    1      -29.597  84.324  35.649  0.00  0.00    +0.050 A 
BRANCH  24  29
ATOM     29  O   LIG    1      -26.816  86.703  35.261  0.00  0.00    -0.491 OA
ATOM     30  C   LIG    1      -27.101  87.969  35.874  0.00  0.00    +0.277 C 
ENDBRANCH  24  29
BRANCH  23  31
ATOM     31  O   LIG    1      -29.271  86.181  34.108  0.00  0.00    -0.484 OA
BRANCH  31  32
ATOM     32  C   LIG    1      -30.654  86.582  34.070  0.00  0.00    +0.266 C 
BRANCH  32  36
ATOM     33  C   LIG    1      -32.511  85.913  30.301  0.00  0.00    +0.214 A 
ATOM     34  N   LIG    1      -32.453  87.170  30.781  0.00  0.00    -0.221 NA
ATOM     35  C   LIG    1      -31.861  87.342  31.984  0.00  0.00    +0.121 A 
ATOM     36  C   LIG    1      -31.300  86.315  32.735  0.00  0.00    +0.008 A 
ATOM     37  C   LIG    1      -31.319  85.034  32.170  0.00  0.00    +0.013 A 
ATOM     38  C   LIG    1      -31.950  84.822  30.945  0.00  0.00    +0.067 A 
BRANCH  33  40
ATOM     39  C   LIG    1      -33.774  86.847  28.581  0.00  0.00    +0.279 C 
ATOM     40  O   LIG    1      -33.161  85.671  29.107  0.00  0.00    -0.480 OA
ENDBRANCH  33  40
ENDBRANCH  32  36
ENDBRANCH  31  32
ENDBRANCH  23  31
ENDBRANCH  22  26
ENDBRANCH   1  22
TORSDOF 9
ENDMDL
MODEL 8
REMARK VINA RESULT:      -6.3     18.174     25.664
REMARK  Name = pdb/CHEMBL3673442.pdb
REMARK                            x       y       z     vdW  Elec       q    Type
REMARK                         _______ _______ _______ _____ _____    ______ ____
ROOT
ATOM      1  N   LIG    1      -41.756  75.713  24.902  0.00  0.00    -0.326 N 
ATOM      2  C   LIG    1      -40.593  76.375  25.199  0.00  0.00    +0.069 A 
ATOM      3  C   LIG    1      -39.510  76.832  24.440  0.00  0.00    +0.028 A 
ATOM      4  C   LIG    1      -38.475  77.483  25.129  0.00  0.00    +0.011 A 
ATOM      5  C   LIG    1      -38.490  77.652  26.523  0.00  0.00    -0.013 A 
ATOM      6  C   LIG    1      -39.581  77.176  27.260  0.00  0.00    +0.038 A 
ATOM      7  C   LIG    1      -40.641  76.560  26.578  0.00  0.00    +0.090 A 
ATOM      8  N   LIG    1      -41.823  76.050  27.092  0.00  0.00    -0.236 NA
ATOM      9  C   LIG    1      -42.446  75.581  26.083  0.00  0.00    +0.200 A 
ENDROOT
BRANCH   5  10
ATOM     10  C   LIG    1      -37.383  78.307  27.197  0.00  0.00    +0.020 A 
ATOM     11  C   LIG    1      -36.204  77.683  27.561  0.00  0.00    +0.117 A 
ATOM     12  N   LIG    1      -35.423  78.612  28.189  0.00  0.00    -0.268 N 
ATOM     13  N   LIG    1      -35.992  79.836  28.193  0.00  0.00    -0.179 NA
ATOM     14  C   LIG    1      -37.177  79.645  27.601  0.00  0.00    +0.142 A 
BRANCH  12  15
ATOM     15  C   LIG    1      -34.069  78.425  28.711  0.00  0.00    +0.110 C 
ATOM     16  C   LIG    1      -33.011  79.345  28.068  0.00  0.00    +0.042 C 
ATOM     17  C   LIG    1      -32.666  78.907  26.646  0.00  0.00    +0.083 C 
ATOM     18  N   LIG    1      -32.227  77.515  26.617  0.00  0.00    -0.316 NA
ATOM     19  H   LIG    1      -32.018  77.245  25.656  0.00  0.00    +0.122 HD
ATOM     20  C   LIG    1      -33.250  76.614  27.153  0.00  0.00    +0.083 C 
ATOM     21  C   LIG    1      -33.586  76.971  28.597  0.00  0.00    +0.042 C 
ENDBRANCH  12  15
ENDBRANCH   5  10
BRANCH   1  22
ATOM     22  C   LIG    1      -42.164  75.087  23.639  0.00  0.00    +0.158 C 
BRANCH  22  26
ATOM     23  C   LIG    1      -40.604  71.079  23.125  0.00  0.00    +0.162 A 
ATOM     24  C   LIG    1      -39.878  72.048  23.856  0.00  0.00    +0.162 A 
ATOM     25  C   LIG    1      -40.394  73.348  23.959  0.00  0.00    +0.054 A 
ATOM     26  C   LIG    1      -41.636  73.693  23.425  0.00  0.00    -0.024 A 
ATOM     27  C   LIG    1      -42.324  72.744  22.676  0.00  0.00    +0.009 A 
ATOM     28  C   LIG    1      -41.786  71.471  22.483  0.00  0.00    +0.050 A 
BRANCH  24  29
ATOM     29  O   LIG    1      -38.684  71.700  24.449  0.00  0.00    -0.491 OA
ATOM     30  C   LIG    1      -38.550  72.035  25.839  0.00  0.00    +0.277 C 
ENDBRANCH  24  29
BRANCH  23  31
ATOM     31  O   LIG    1      -40.127  69.790  23.073  0.00  0.00    -0.484 OA
BRANCH  31  32
ATOM     32  C   LIG    1      -39.601  69.286  21.830  0.00  0.00    +0.266 C 
BRANCH  32  36
ATOM     33  C   LIG    1      -35.664  67.744  22.305  0.00  0.00    +0.214 A 
ATOM     34  N   LIG    1      -36.170  68.539  23.268  0.00  0.00    -0.221 NA
ATOM     35  C   LIG    1      -37.421  69.013  23.079  0.00  0.00    +0.121 A 
ATOM     36  C   LIG    1      -38.211  68.720  21.974  0.00  0.00    +0.008 A 
ATOM     37  C   LIG    1      -37.677  67.835  21.030  0.00  0.00    +0.013 A 
ATOM     38  C   LIG    1      -36.377  67.354  21.184  0.00  0.00    +0.067 A 
BRANCH  33  40
ATOM     39  C   LIG    1      -33.957  66.551  21.263  0.00  0.00    +0.279 C 
ATOM     40  O   LIG    1      -34.367  67.282  22.417  0.00  0.00    -0.480 OA
ENDBRANCH  33  40
ENDBRANCH  32  36
ENDBRANCH  31  32
ENDBRANCH  23  31
ENDBRANCH  22  26
ENDBRANCH   1  22
TORSDOF 9
ENDMDL
MODEL 9
REMARK VINA RESULT:      -6.3      4.102      5.602
REMARK  Name = pdb/CHEMBL3673442.pdb
REMARK                            x       y       z     vdW  Elec       q    Type
REMARK                         _______ _______ _______ _____ _____    ______ ____
ROOT
ATOM      1  N   LIG    1      -19.517  81.631  38.017  0.00  0.00    -0.326 N 
ATOM      2  C   LIG    1      -20.386  81.243  37.030  0.00  0.00    +0.069 A 
ATOM      3  C   LIG    1      -21.406  81.886  36.320  0.00  0.00    +0.028 A 
ATOM      4  C   LIG    1      -22.092  81.128  35.359  0.00  0.00    +0.011 A 
ATOM      5  C   LIG    1      -21.806  79.773  35.125  0.00  0.00    -0.013 A 
ATOM      6  C   LIG    1      -20.787  79.152  35.856  0.00  0.00    +0.038 A 
ATOM      7  C   LIG    1      -20.065  79.909  36.791  0.00  0.00    +0.090 A 
ATOM      8  N   LIG    1      -19.006  79.516  37.594  0.00  0.00    -0.236 NA
ATOM      9  C   LIG    1      -18.710  80.550  38.280  0.00  0.00    +0.200 A 
ENDROOT
BRANCH   5  10
ATOM     10  C   LIG    1      -22.562  79.020  34.140  0.00  0.00    +0.020 A 
ATOM     11  C   LIG    1      -22.103  77.886  33.495  0.00  0.00    +0.117 A 
ATOM     12  N   LIG    1      -23.081  77.480  32.632  0.00  0.00    -0.268 N 
ATOM     13  N   LIG    1      -24.192  78.239  32.727  0.00  0.00    -0.179 NA
ATOM     14  C   LIG    1      -23.871  79.172  33.633  0.00  0.00    +0.142 A 
BRANCH  12  15
ATOM     15  C   LIG    1      -23.065  76.301  31.765  0.00  0.00    +0.110 C 
ATOM     16  C   LIG    1      -21.656  75.878  31.299  0.00  0.00    +0.042 C 
ATOM     17  C   LIG    1      -21.098  76.828  30.241  0.00  0.00    +0.083 C 
ATOM     18  N   LIG    1      -22.008  76.941  29.104  0.00  0.00    -0.316 NA
ATOM     19  H   LIG    1      -21.618  77.592  28.422  0.00  0.00    +0.122 HD
ATOM     20  C   LIG    1      -23.331  77.417  29.514  0.00  0.00    +0.083 C 
ATOM     21  C   LIG    1      -23.960  76.466  30.527  0.00  0.00    +0.042 C 
ENDBRANCH  12  15
ENDBRANCH   5  10
BRANCH   1  22
ATOM     22  C   LIG    1      -19.510  82.870  38.804  0.00  0.00    +0.158 C 
BRANCH  22  26
ATOM     23  C   LIG    1      -23.221  83.734  40.864  0.00  0.00    +0.162 A 
ATOM     24  C   LIG    1      -22.633  84.691  40.005  0.00  0.00    +0.162 A 
ATOM     25  C   LIG    1      -21.407  84.392  39.394  0.00  0.00    +0.054 A 
ATOM     26  C   LIG    1      -20.788  83.152  39.550  0.00  0.00    -0.024 A 
ATOM     27  C   LIG    1      -21.354  82.232  40.427  0.00  0.00    +0.009 A 
ATOM     28  C   LIG    1      -22.526  82.544  41.117  0.00  0.00    +0.050 A 
BRANCH  24  29
ATOM     29  O   LIG    1      -23.271  85.892  39.785  0.00  0.00    -0.491 OA
ATOM     30  C   LIG    1      -22.867  86.982  40.628  0.00  0.00    +0.277 C 
ENDBRANCH  24  29
BRANCH  23  31
ATOM     31  O   LIG    1      -24.451  84.003  41.417  0.00  0.00    -0.484 OA
BRANCH  31  32
ATOM     32  C   LIG    1      -25.602  83.265  40.962  0.00  0.00    +0.266 C 
BRANCH  32  36
ATOM     33  C   LIG    1      -26.591  84.121  36.913  0.00  0.00    +0.214 A 
ATOM     34  N   LIG    1      -26.825  85.061  37.850  0.00  0.00    -0.221 NA
ATOM     35  C   LIG    1      -26.502  84.749  39.125  0.00  0.00    +0.121 A 
ATOM     36  C   LIG    1      -25.936  83.542  39.518  0.00  0.00    +0.008 A 
ATOM     37  C   LIG    1      -25.646  82.620  38.506  0.00  0.00    +0.013 A 
ATOM     38  C   LIG    1      -25.995  82.901  37.186  0.00  0.00    +0.067 A 
BRANCH  33  40
ATOM     39  C   LIG    1      -27.820  85.493  35.487  0.00  0.00    +0.279 C 
ATOM     40  O   LIG    1      -26.960  84.361  35.604  0.00  0.00    -0.480 OA
ENDBRANCH  33  40
ENDBRANCH  32  36
ENDBRANCH  31  32
ENDBRANCH  23  31
ENDBRANCH  22  26
ENDBRANCH   1  22
TORSDOF 9
ENDMDL
