MODEL 1
REMARK VINA RESULT:      -5.8      0.000      0.000
REMARK  Name = pdb/CHEMBL3676025.pdb
REMARK                            x       y       z     vdW  Elec       q    Type
REMARK                         _______ _______ _______ _____ _____    ______ ____
ROOT
ATOM      1  C   LIG    1      -24.766  76.238  33.808  0.00  0.00    +0.126 A 
ATOM      2  N   LIG    1      -23.829  77.160  33.951  0.00  0.00    -0.212 NA
ATOM      3  C   LIG    1      -24.152  78.323  34.621  0.00  0.00    +0.170 A 
ATOM      4  C   LIG    1      -23.422  79.443  34.992  0.00  0.00    +0.100 A 
ATOM      5  C   LIG    1      -24.358  80.288  35.627  0.00  0.00    +0.150 A 
ATOM      6  N   LIG    1      -25.576  79.759  35.697  0.00  0.00    -0.173 NA
ATOM      7  N   LIG    1      -25.443  78.551  35.112  0.00  0.00    -0.221 N 
ATOM      8  C   LIG    1      -26.416  77.582  35.003  0.00  0.00    +0.118 A 
ATOM      9  C   LIG    1      -26.146  76.423  34.399  0.00  0.00    +0.063 A 
ENDROOT
BRANCH   1  11
ATOM     10  C   LIG    1      -24.539  74.927  31.631  0.00  0.00    +0.110 C 
ATOM     11  N   LIG    1      -24.487  75.069  33.103  0.00  0.00    -0.308 N 
ATOM     12  C   LIG    1      -24.417  73.754  33.733  0.00  0.00    +0.107 C 
ATOM     13  C   LIG    1      -25.016  72.821  32.687  0.00  0.00    +0.021 C 
ATOM     14  C   LIG    1      -24.526  73.411  31.377  0.00  0.00    +0.029 C 
BRANCH  10  16
ATOM     15  C   LIG    1      -23.596  76.669  30.044  0.00  0.00    +0.220 A 
ATOM     16  C   LIG    1      -23.382  75.605  30.927  0.00  0.00    +0.037 A 
ATOM     17  C   LIG    1      -22.053  75.180  31.096  0.00  0.00    +0.050 A 
ATOM     18  C   LIG    1      -21.026  75.838  30.434  0.00  0.00    +0.142 A 
ATOM     19  F   LIG    1      -19.759  75.448  30.594  0.00  0.00    -0.204 F 
ATOM     20  C   LIG    1      -21.340  76.899  29.609  0.00  0.00    +0.153 A 
ATOM     21  N   LIG    1      -22.606  77.328  29.394  0.00  0.00    -0.218 NA
BRANCH  15  23
ATOM     22  C   LIG    1      -25.250  78.261  30.513  0.00  0.00    +0.279 C 
ATOM     23  O   LIG    1      -24.901  77.062  29.822  0.00  0.00    -0.479 OA
ENDBRANCH  15  23
ENDBRANCH  10  16
ENDBRANCH   1  11
BRANCH   4  24
ATOM     24  C   LIG    1      -22.023  79.753  34.821  0.00  0.00    +0.249 C 
ATOM     25  N   LIG    1      -21.250  78.765  34.263  0.00  0.00    -0.308 N 
ATOM     26  H   LIG    1      -21.729  77.934  33.926  0.00  0.00    +0.149 HD
ATOM     27  O   LIG    1      -21.566  80.840  35.184  0.00  0.00    -0.270 OA
BRANCH  25  28
ATOM     28  C   LIG    1      -19.834  78.958  34.054  0.00  0.00    +0.076 C 
ATOM     29  C   LIG    1      -19.275  78.159  32.880  0.00  0.00    +0.053 C 
ATOM     30  C   LIG    1      -17.771  78.084  33.159  0.00  0.00    +0.116 C 
ATOM     31  C   LIG    1      -17.582  78.434  34.637  0.00  0.00    +0.033 C 
ATOM     32  C   LIG    1      -18.985  78.446  35.217  0.00  0.00    +0.025 C 
BRANCH  30  33
ATOM     33  O   LIG    1      -17.088  79.027  32.344  0.00  0.00    -0.392 OA
ATOM     34  H   LIG    1      -17.296  78.819  31.417  0.00  0.00    +0.210 HD
ENDBRANCH  30  33
ENDBRANCH  25  28
ENDBRANCH   4  24
TORSDOF 6
ENDMDL
MODEL 2
REMARK VINA RESULT:      -5.6      6.936      8.611
REMARK  Name = pdb/CHEMBL3676025.pdb
REMARK                            x       y       z     vdW  Elec       q    Type
REMARK                         _______ _______ _______ _____ _____    ______ ____
ROOT
ATOM      1  C   LIG    1      -31.672  75.755  31.004  0.00  0.00    +0.126 A 
ATOM      2  N   LIG    1      -30.350  75.818  31.028  0.00  0.00    -0.212 NA
ATOM      3  C   LIG    1      -29.742  76.352  32.146  0.00  0.00    +0.170 A 
ATOM      4  C   LIG    1      -28.416  76.515  32.522  0.00  0.00    +0.100 A 
ATOM      5  C   LIG    1      -28.476  77.161  33.777  0.00  0.00    +0.150 A 
ATOM      6  N   LIG    1      -29.719  77.371  34.198  0.00  0.00    -0.173 NA
ATOM      7  N   LIG    1      -30.489  76.851  33.219  0.00  0.00    -0.221 N 
ATOM      8  C   LIG    1      -31.863  76.755  33.222  0.00  0.00    +0.118 A 
ATOM      9  C   LIG    1      -32.501  76.211  32.183  0.00  0.00    +0.063 A 
ENDROOT
BRANCH   1  11
ATOM     10  C   LIG    1      -33.606  75.760  29.340  0.00  0.00    +0.110 C 
ATOM     11  N   LIG    1      -32.321  75.258  29.875  0.00  0.00    -0.308 N 
ATOM     12  C   LIG    1      -31.986  73.977  29.261  0.00  0.00    +0.107 C 
ATOM     13  C   LIG    1      -33.335  73.432  28.806  0.00  0.00    +0.021 C 
ATOM     14  C   LIG    1      -34.076  74.678  28.355  0.00  0.00    +0.029 C 
BRANCH  10  16
ATOM     15  C   LIG    1      -34.050  78.255  29.202  0.00  0.00    +0.220 A 
ATOM     16  C   LIG    1      -33.479  77.103  28.651  0.00  0.00    +0.037 A 
ATOM     17  C   LIG    1      -32.819  77.250  27.419  0.00  0.00    +0.050 A 
ATOM     18  C   LIG    1      -32.723  78.503  26.830  0.00  0.00    +0.142 A 
ATOM     19  F   LIG    1      -32.091  78.656  25.664  0.00  0.00    -0.204 F 
ATOM     20  C   LIG    1      -33.293  79.583  27.472  0.00  0.00    +0.153 A 
ATOM     21  N   LIG    1      -33.961  79.488  28.645  0.00  0.00    -0.218 NA
BRANCH  15  23
ATOM     22  C   LIG    1      -34.961  79.359  31.057  0.00  0.00    +0.279 C 
ATOM     23  O   LIG    1      -34.751  78.118  30.384  0.00  0.00    -0.479 OA
ENDBRANCH  15  23
ENDBRANCH  10  16
ENDBRANCH   1  11
BRANCH   4  24
ATOM     24  C   LIG    1      -27.195  76.132  31.856  0.00  0.00    +0.249 C 
ATOM     25  N   LIG    1      -26.336  77.154  31.537  0.00  0.00    -0.308 N 
ATOM     26  H   LIG    1      -26.573  78.084  31.874  0.00  0.00    +0.149 HD
ATOM     27  O   LIG    1      -26.968  74.952  31.578  0.00  0.00    -0.270 OA
BRANCH  25  28
ATOM     28  C   LIG    1      -25.088  76.892  30.858  0.00  0.00    +0.076 C 
ATOM     29  C   LIG    1      -23.950  76.504  31.799  0.00  0.00    +0.053 C 
ATOM     30  C   LIG    1      -22.681  76.790  30.990  0.00  0.00    +0.116 C 
ATOM     31  C   LIG    1      -23.094  77.709  29.837  0.00  0.00    +0.033 C 
ATOM     32  C   LIG    1      -24.517  78.127  30.163  0.00  0.00    +0.025 C 
BRANCH  30  33
ATOM     33  O   LIG    1      -22.158  75.571  30.478  0.00  0.00    -0.392 OA
ATOM     34  H   LIG    1      -22.044  74.962  31.228  0.00  0.00    +0.210 HD
ENDBRANCH  30  33
ENDBRANCH  25  28
ENDBRANCH   4  24
TORSDOF 6
ENDMDL
MODEL 3
REMARK VINA RESULT:      -5.5     15.161     17.612
REMARK  Name = pdb/CHEMBL3676025.pdb
REMARK                            x       y       z     vdW  Elec       q    Type
REMARK                         _______ _______ _______ _____ _____    ______ ____
ROOT
ATOM      1  C   LIG    1      -38.239  72.447  25.019  0.00  0.00    +0.126 A 
ATOM      2  N   LIG    1      -37.650  73.528  25.504  0.00  0.00    -0.212 NA
ATOM      3  C   LIG    1      -38.210  74.758  25.223  0.00  0.00    +0.170 A 
ATOM      4  C   LIG    1      -37.898  76.056  25.604  0.00  0.00    +0.100 A 
ATOM      5  C   LIG    1      -38.849  76.863  24.943  0.00  0.00    +0.150 A 
ATOM      6  N   LIG    1      -39.720  76.162  24.224  0.00  0.00    -0.173 NA
ATOM      7  N   LIG    1      -39.349  74.879  24.419  0.00  0.00    -0.221 N 
ATOM      8  C   LIG    1      -39.993  73.758  23.943  0.00  0.00    +0.118 A 
ATOM      9  C   LIG    1      -39.516  72.542  24.216  0.00  0.00    +0.063 A 
ENDROOT
BRANCH   1  11
ATOM     10  C   LIG    1      -38.406  69.906  25.167  0.00  0.00    +0.110 C 
ATOM     11  N   LIG    1      -37.679  71.191  25.249  0.00  0.00    -0.308 N 
ATOM     12  C   LIG    1      -36.391  71.000  25.908  0.00  0.00    +0.107 C 
ATOM     13  C   LIG    1      -36.595  69.739  26.739  0.00  0.00    +0.021 C 
ATOM     14  C   LIG    1      -37.487  68.885  25.856  0.00  0.00    +0.029 C 
BRANCH  10  16
ATOM     15  C   LIG    1      -40.007  69.106  23.367  0.00  0.00    +0.220 A 
ATOM     16  C   LIG    1      -38.715  69.486  23.745  0.00  0.00    +0.037 A 
ATOM     17  C   LIG    1      -37.721  69.423  22.753  0.00  0.00    +0.050 A 
ATOM     18  C   LIG    1      -38.054  69.039  21.463  0.00  0.00    +0.142 A 
ATOM     19  F   LIG    1      -37.119  68.983  20.510  0.00  0.00    -0.204 F 
ATOM     20  C   LIG    1      -39.367  68.715  21.184  0.00  0.00    +0.153 A 
ATOM     21  N   LIG    1      -40.353  68.734  22.111  0.00  0.00    -0.218 NA
BRANCH  15  23
ATOM     22  C   LIG    1      -42.183  69.766  23.935  0.00  0.00    +0.279 C 
ATOM     23  O   LIG    1      -40.984  69.107  24.343  0.00  0.00    -0.479 OA
ENDBRANCH  15  23
ENDBRANCH  10  16
ENDBRANCH   1  11
BRANCH   4  24
ATOM     24  C   LIG    1      -36.867  76.556  26.481  0.00  0.00    +0.249 C 
ATOM     25  N   LIG    1      -35.898  75.656  26.849  0.00  0.00    -0.308 N 
ATOM     26  H   LIG    1      -35.922  74.740  26.407  0.00  0.00    +0.149 HD
ATOM     27  O   LIG    1      -36.888  77.723  26.883  0.00  0.00    -0.270 OA
BRANCH  25  28
ATOM     28  C   LIG    1      -34.822  76.041  27.733  0.00  0.00    +0.076 C 
ATOM     29  C   LIG    1      -33.729  76.855  27.046  0.00  0.00    +0.053 C 
ATOM     30  C   LIG    1      -32.511  76.695  27.961  0.00  0.00    +0.116 C 
ATOM     31  C   LIG    1      -32.796  75.491  28.862  0.00  0.00    +0.033 C 
ATOM     32  C   LIG    1      -34.036  74.846  28.270  0.00  0.00    +0.025 C 
BRANCH  30  33
ATOM     33  O   LIG    1      -32.352  77.867  28.750  0.00  0.00    -0.392 OA
ATOM     34  H   LIG    1      -32.401  77.601  29.684  0.00  0.00    +0.210 HD
ENDBRANCH  30  33
ENDBRANCH  25  28
ENDBRANCH   4  24
TORSDOF 6
ENDMDL
MODEL 4
REMARK VINA RESULT:      -5.4     17.758     20.964
REMARK  Name = pdb/CHEMBL3676025.pdb
REMARK                            x       y       z     vdW  Elec       q    Type
REMARK                         _______ _______ _______ _____ _____    ______ ____
ROOT
ATOM      1  C   LIG    1      -20.088  81.321  14.081  0.00  0.00    +0.126 A 
ATOM      2  N   LIG    1      -19.838  82.620  14.046  0.00  0.00    -0.212 NA
ATOM      3  C   LIG    1      -18.751  83.057  13.316  0.00  0.00    +0.170 A 
ATOM      4  C   LIG    1      -18.243  84.315  13.024  0.00  0.00    +0.100 A 
ATOM      5  C   LIG    1      -17.087  84.066  12.253  0.00  0.00    +0.150 A 
ATOM      6  N   LIG    1      -16.875  82.772  12.032  0.00  0.00    -0.173 NA
ATOM      7  N   LIG    1      -17.905  82.160  12.653  0.00  0.00    -0.221 N 
ATOM      8  C   LIG    1      -18.178  80.810  12.650  0.00  0.00    +0.118 A 
ATOM      9  C   LIG    1      -19.239  80.338  13.308  0.00  0.00    +0.063 A 
ENDROOT
BRANCH   1  11
ATOM     10  C   LIG    1      -22.583  81.110  14.570  0.00  0.00    +0.110 C 
ATOM     11  N   LIG    1      -21.153  80.841  14.840  0.00  0.00    -0.308 N 
ATOM     12  C   LIG    1      -20.991  80.277  16.177  0.00  0.00    +0.107 C 
ATOM     13  C   LIG    1      -22.234  80.752  16.921  0.00  0.00    +0.021 C 
ATOM     14  C   LIG    1      -23.315  80.698  15.857  0.00  0.00    +0.029 C 
BRANCH  10  16
ATOM     15  C   LIG    1      -23.227  80.955  12.120  0.00  0.00    +0.220 A 
ATOM     16  C   LIG    1      -23.116  80.347  13.375  0.00  0.00    +0.037 A 
ATOM     17  C   LIG    1      -23.555  79.016  13.475  0.00  0.00    +0.050 A 
ATOM     18  C   LIG    1      -24.029  78.357  12.349  0.00  0.00    +0.142 A 
ATOM     19  F   LIG    1      -24.441  77.089  12.430  0.00  0.00    -0.204 F 
ATOM     20  C   LIG    1      -24.067  79.037  11.149  0.00  0.00    +0.153 A 
ATOM     21  N   LIG    1      -23.681  80.327  11.008  0.00  0.00    -0.218 NA
BRANCH  15  23
ATOM     22  C   LIG    1      -22.113  82.564  10.830  0.00  0.00    +0.279 C 
ATOM     23  O   LIG    1      -22.854  82.281  12.017  0.00  0.00    -0.479 OA
ENDBRANCH  15  23
ENDBRANCH  10  16
ENDBRANCH   1  11
BRANCH   4  24
ATOM     24  C   LIG    1      -18.727  85.629  13.374  0.00  0.00    +0.249 C 
ATOM     25  N   LIG    1      -20.044  85.706  13.753  0.00  0.00    -0.308 N 
ATOM     26  H   LIG    1      -20.552  84.830  13.852  0.00  0.00    +0.149 HD
ATOM     27  O   LIG    1      -17.988  86.615  13.306  0.00  0.00    -0.270 OA
BRANCH  25  28
ATOM     28  C   LIG    1      -20.641  86.971  14.115  0.00  0.00    +0.076 C 
ATOM     29  C   LIG    1      -21.863  86.833  15.020  0.00  0.00    +0.053 C 
ATOM     30  C   LIG    1      -22.612  88.157  14.842  0.00  0.00    +0.116 C 
ATOM     31  C   LIG    1      -22.067  88.800  13.564  0.00  0.00    +0.033 C 
ATOM     32  C   LIG    1      -21.219  87.721  12.916  0.00  0.00    +0.025 C 
BRANCH  30  33
ATOM     33  O   LIG    1      -22.360  89.001  15.957  0.00  0.00    -0.392 OA
ATOM     34  H   LIG    1      -23.197  89.437  16.191  0.00  0.00    +0.210 HD
ENDBRANCH  30  33
ENDBRANCH  25  28
ENDBRANCH   4  24
TORSDOF 6
ENDMDL
MODEL 5
REMARK VINA RESULT:      -5.4     12.467     15.213
REMARK  Name = pdb/CHEMBL3676025.pdb
REMARK                            x       y       z     vdW  Elec       q    Type
REMARK                         _______ _______ _______ _____ _____    ______ ____
ROOT
ATOM      1  C   LIG    1      -36.249  71.679  26.754  0.00  0.00    +0.126 A 
ATOM      2  N   LIG    1      -35.537  72.719  27.157  0.00  0.00    -0.212 NA
ATOM      3  C   LIG    1      -34.618  72.528  28.168  0.00  0.00    +0.170 A 
ATOM      4  C   LIG    1      -33.689  73.358  28.780  0.00  0.00    +0.100 A 
ATOM      5  C   LIG    1      -33.082  72.552  29.767  0.00  0.00    +0.150 A 
ATOM      6  N   LIG    1      -33.542  71.305  29.780  0.00  0.00    -0.173 NA
ATOM      7  N   LIG    1      -34.455  71.283  28.786  0.00  0.00    -0.221 N 
ATOM      8  C   LIG    1      -35.163  70.185  28.348  0.00  0.00    +0.118 A 
ATOM      9  C   LIG    1      -36.037  70.305  27.347  0.00  0.00    +0.063 A 
ENDROOT
BRANCH   1  11
ATOM     10  C   LIG    1      -38.482  72.590  25.920  0.00  0.00    +0.110 C 
ATOM     11  N   LIG    1      -37.215  71.843  25.762  0.00  0.00    -0.308 N 
ATOM     12  C   LIG    1      -37.254  71.038  24.545  0.00  0.00    +0.107 C 
ATOM     13  C   LIG    1      -38.744  70.844  24.289  0.00  0.00    +0.021 C 
ATOM     14  C   LIG    1      -39.343  72.171  24.718  0.00  0.00    +0.029 C 
BRANCH  10  16
ATOM     15  C   LIG    1      -38.395  74.811  27.145  0.00  0.00    +0.220 A 
ATOM     16  C   LIG    1      -38.287  74.092  25.950  0.00  0.00    +0.037 A 
ATOM     17  C   LIG    1      -38.026  74.834  24.786  0.00  0.00    +0.050 A 
ATOM     18  C   LIG    1      -37.848  76.208  24.866  0.00  0.00    +0.142 A 
ATOM     19  F   LIG    1      -37.591  76.923  23.767  0.00  0.00    -0.204 F 
ATOM     20  C   LIG    1      -37.943  76.819  26.100  0.00  0.00    +0.153 A 
ATOM     21  N   LIG    1      -38.218  76.151  27.244  0.00  0.00    -0.218 NA
BRANCH  15  23
ATOM     22  C   LIG    1      -37.818  74.372  29.374  0.00  0.00    +0.279 C 
ATOM     23  O   LIG    1      -38.708  74.105  28.290  0.00  0.00    -0.479 OA
ENDBRANCH  15  23
ENDBRANCH  10  16
ENDBRANCH   1  11
BRANCH   4  24
ATOM     24  C   LIG    1      -33.347  74.736  28.523  0.00  0.00    +0.249 C 
ATOM     25  N   LIG    1      -34.097  75.377  27.568  0.00  0.00    -0.308 N 
ATOM     26  H   LIG    1      -34.891  74.871  27.184  0.00  0.00    +0.149 HD
ATOM     27  O   LIG    1      -32.415  75.280  29.122  0.00  0.00    -0.270 OA
BRANCH  25  28
ATOM     28  C   LIG    1      -33.837  76.755  27.219  0.00  0.00    +0.076 C 
ATOM     29  C   LIG    1      -32.411  77.003  26.735  0.00  0.00    +0.053 C 
ATOM     30  C   LIG    1      -32.205  78.508  26.933  0.00  0.00    +0.116 C 
ATOM     31  C   LIG    1      -33.301  78.978  27.893  0.00  0.00    +0.033 C 
ATOM     32  C   LIG    1      -33.935  77.700  28.415  0.00  0.00    +0.025 C 
BRANCH  30  33
ATOM     33  O   LIG    1      -32.334  79.174  25.684  0.00  0.00    -0.392 OA
ATOM     34  H   LIG    1      -33.257  79.078  25.393  0.00  0.00    +0.210 HD
ENDBRANCH  30  33
ENDBRANCH  25  28
ENDBRANCH   4  24
TORSDOF 6
ENDMDL
MODEL 6
REMARK VINA RESULT:      -5.3     17.483     20.133
REMARK  Name = pdb/CHEMBL3676025.pdb
REMARK                            x       y       z     vdW  Elec       q    Type
REMARK                         _______ _______ _______ _____ _____    ______ ____
ROOT
ATOM      1  C   LIG    1      -19.758  81.589  14.434  0.00  0.00    +0.126 A 
ATOM      2  N   LIG    1      -19.588  82.895  14.303  0.00  0.00    -0.212 NA
ATOM      3  C   LIG    1      -18.614  83.343  13.433  0.00  0.00    +0.170 A 
ATOM      4  C   LIG    1      -18.214  84.606  13.020  0.00  0.00    +0.100 A 
ATOM      5  C   LIG    1      -17.137  84.371  12.138  0.00  0.00    +0.150 A 
ATOM      6  N   LIG    1      -16.877  83.079  11.963  0.00  0.00    -0.173 NA
ATOM      7  N   LIG    1      -17.796  82.453  12.728  0.00  0.00    -0.221 N 
ATOM      8  C   LIG    1      -17.990  81.093  12.827  0.00  0.00    +0.118 A 
ATOM      9  C   LIG    1      -18.944  80.606  13.624  0.00  0.00    +0.063 A 
ENDROOT
BRANCH   1  11
ATOM     10  C   LIG    1      -21.415  79.809  15.205  0.00  0.00    +0.110 C 
ATOM     11  N   LIG    1      -20.704  81.100  15.333  0.00  0.00    -0.308 N 
ATOM     12  C   LIG    1      -21.352  81.933  16.342  0.00  0.00    +0.107 C 
ATOM     13  C   LIG    1      -22.776  81.393  16.395  0.00  0.00    +0.021 C 
ATOM     14  C   LIG    1      -22.586  79.900  16.195  0.00  0.00    +0.029 C 
BRANCH  10  16
ATOM     15  C   LIG    1      -20.705  77.401  14.836  0.00  0.00    +0.220 A 
ATOM     16  C   LIG    1      -20.536  78.614  15.511  0.00  0.00    +0.037 A 
ATOM     17  C   LIG    1      -19.543  78.654  16.504  0.00  0.00    +0.050 A 
ATOM     18  C   LIG    1      -18.759  77.534  16.744  0.00  0.00    +0.142 A 
ATOM     19  F   LIG    1      -17.806  77.563  17.680  0.00  0.00    -0.204 F 
ATOM     20  C   LIG    1      -18.984  76.394  15.999  0.00  0.00    +0.153 A 
ATOM     21  N   LIG    1      -19.945  76.299  15.051  0.00  0.00    -0.218 NA
BRANCH  15  23
ATOM     22  C   LIG    1      -22.671  76.306  14.182  0.00  0.00    +0.279 C 
ATOM     23  O   LIG    1      -21.715  77.326  13.897  0.00  0.00    -0.479 OA
ENDBRANCH  15  23
ENDBRANCH  10  16
ENDBRANCH   1  11
BRANCH   4  24
ATOM     24  C   LIG    1      -18.731  85.911  13.352  0.00  0.00    +0.249 C 
ATOM     25  N   LIG    1      -20.049  85.959  13.734  0.00  0.00    -0.308 N 
ATOM     26  H   LIG    1      -20.533  85.073  13.847  0.00  0.00    +0.149 HD
ATOM     27  O   LIG    1      -18.019  86.915  13.269  0.00  0.00    -0.270 OA
BRANCH  25  28
ATOM     28  C   LIG    1      -20.678  87.214  14.079  0.00  0.00    +0.076 C 
ATOM     29  C   LIG    1      -21.886  87.058  14.999  0.00  0.00    +0.053 C 
ATOM     30  C   LIG    1      -22.675  88.357  14.804  0.00  0.00    +0.116 C 
ATOM     31  C   LIG    1      -22.160  88.992  13.510  0.00  0.00    +0.033 C 
ATOM     32  C   LIG    1      -21.288  87.925  12.872  0.00  0.00    +0.025 C 
BRANCH  30  33
ATOM     33  O   LIG    1      -22.435  89.228  15.902  0.00  0.00    -0.392 OA
ATOM     34  H   LIG    1      -23.063  88.991  16.607  0.00  0.00    +0.210 HD
ENDBRANCH  30  33
ENDBRANCH  25  28
ENDBRANCH   4  24
TORSDOF 6
ENDMDL
MODEL 7
REMARK VINA RESULT:      -5.3     13.274     16.445
REMARK  Name = pdb/CHEMBL3676025.pdb
REMARK                            x       y       z     vdW  Elec       q    Type
REMARK                         _______ _______ _______ _____ _____    ______ ____
ROOT
ATOM      1  C   LIG    1      -34.647  80.015  28.332  0.00  0.00    +0.126 A 
ATOM      2  N   LIG    1      -35.242  80.792  27.442  0.00  0.00    -0.212 NA
ATOM      3  C   LIG    1      -35.760  81.998  27.870  0.00  0.00    +0.170 A 
ATOM      4  C   LIG    1      -36.382  83.053  27.217  0.00  0.00    +0.100 A 
ATOM      5  C   LIG    1      -36.698  83.972  28.241  0.00  0.00    +0.150 A 
ATOM      6  N   LIG    1      -36.294  83.575  29.444  0.00  0.00    -0.173 NA
ATOM      7  N   LIG    1      -35.696  82.388  29.213  0.00  0.00    -0.221 N 
ATOM      8  C   LIG    1      -35.044  81.605  30.140  0.00  0.00    +0.118 A 
ATOM      9  C   LIG    1      -34.491  80.448  29.772  0.00  0.00    +0.063 A 
ENDROOT
BRANCH   1  11
ATOM     10  C   LIG    1      -34.666  77.465  28.398  0.00  0.00    +0.110 C 
ATOM     11  N   LIG    1      -34.147  78.773  27.944  0.00  0.00    -0.308 N 
ATOM     12  C   LIG    1      -32.852  78.602  27.292  0.00  0.00    +0.107 C 
ATOM     13  C   LIG    1      -32.326  77.295  27.873  0.00  0.00    +0.021 C 
ATOM     14  C   LIG    1      -33.580  76.450  28.009  0.00  0.00    +0.029 C 
BRANCH  10  16
ATOM     15  C   LIG    1      -37.203  77.395  28.418  0.00  0.00    +0.220 A 
ATOM     16  C   LIG    1      -35.997  77.103  27.772  0.00  0.00    +0.037 A 
ATOM     17  C   LIG    1      -36.084  76.430  26.541  0.00  0.00    +0.050 A 
ATOM     18  C   LIG    1      -37.328  76.126  26.006  0.00  0.00    +0.142 A 
ATOM     19  F   LIG    1      -37.423  75.494  24.833  0.00  0.00    -0.204 F 
ATOM     20  C   LIG    1      -38.459  76.488  26.708  0.00  0.00    +0.153 A 
ATOM     21  N   LIG    1      -38.426  77.112  27.908  0.00  0.00    -0.218 NA
BRANCH  15  23
ATOM     22  C   LIG    1      -37.708  77.219  30.700  0.00  0.00    +0.279 C 
ATOM     23  O   LIG    1      -37.134  78.005  29.655  0.00  0.00    -0.479 OA
ENDBRANCH  15  23
ENDBRANCH  10  16
ENDBRANCH   1  11
BRANCH   4  24
ATOM     24  C   LIG    1      -36.668  83.255  25.817  0.00  0.00    +0.249 C 
ATOM     25  N   LIG    1      -37.930  82.905  25.403  0.00  0.00    -0.308 N 
ATOM     26  H   LIG    1      -38.593  82.624  26.120  0.00  0.00    +0.149 HD
ATOM     27  O   LIG    1      -35.807  83.695  25.051  0.00  0.00    -0.270 OA
BRANCH  25  28
ATOM     28  C   LIG    1      -38.326  83.053  24.022  0.00  0.00    +0.076 C 
ATOM     29  C   LIG    1      -38.872  84.439  23.688  0.00  0.00    +0.053 C 
ATOM     30  C   LIG    1      -39.687  84.223  22.409  0.00  0.00    +0.116 C 
ATOM     31  C   LIG    1      -39.944  82.717  22.302  0.00  0.00    +0.033 C 
ATOM     32  C   LIG    1      -39.498  82.151  23.639  0.00  0.00    +0.025 C 
BRANCH  30  33
ATOM     33  O   LIG    1      -38.938  84.669  21.286  0.00  0.00    -0.392 OA
ATOM     34  H   LIG    1      -38.242  84.012  21.116  0.00  0.00    +0.210 HD
ENDBRANCH  30  33
ENDBRANCH  25  28
ENDBRANCH   4  24
TORSDOF 6
ENDMDL
MODEL 8
REMARK VINA RESULT:      -5.3      2.677      6.269
REMARK  Name = pdb/CHEMBL3676025.pdb
REMARK                            x       y       z     vdW  Elec       q    Type
REMARK                         _______ _______ _______ _____ _____    ______ ____
ROOT
ATOM      1  C   LIG    1      -20.462  77.160  31.263  0.00  0.00    +0.126 A 
ATOM      2  N   LIG    1      -21.460  77.665  31.970  0.00  0.00    -0.212 NA
ATOM      3  C   LIG    1      -22.736  77.580  31.452  0.00  0.00    +0.170 A 
ATOM      4  C   LIG    1      -23.986  77.944  31.934  0.00  0.00    +0.100 A 
ATOM      5  C   LIG    1      -24.882  77.614  30.894  0.00  0.00    +0.150 A 
ATOM      6  N   LIG    1      -24.284  77.058  29.845  0.00  0.00    -0.173 NA
ATOM      7  N   LIG    1      -22.982  77.010  30.198  0.00  0.00    -0.221 N 
ATOM      8  C   LIG    1      -21.957  76.445  29.471  0.00  0.00    +0.118 A 
ATOM      9  C   LIG    1      -20.709  76.465  29.943  0.00  0.00    +0.063 A 
ENDROOT
BRANCH   1  11
ATOM     10  C   LIG    1      -18.741  78.015  32.941  0.00  0.00    +0.110 C 
ATOM     11  N   LIG    1      -19.155  77.262  31.736  0.00  0.00    -0.308 N 
ATOM     12  C   LIG    1      -17.986  76.909  30.937  0.00  0.00    +0.107 C 
ATOM     13  C   LIG    1      -16.945  77.945  31.345  0.00  0.00    +0.021 C 
ATOM     14  C   LIG    1      -17.213  78.138  32.826  0.00  0.00    +0.029 C 
BRANCH  10  16
ATOM     15  C   LIG    1      -19.588  78.070  35.332  0.00  0.00    +0.220 A 
ATOM     16  C   LIG    1      -19.135  77.332  34.234  0.00  0.00    +0.037 A 
ATOM     17  C   LIG    1      -19.031  75.941  34.405  0.00  0.00    +0.050 A 
ATOM     18  C   LIG    1      -19.411  75.361  35.607  0.00  0.00    +0.142 A 
ATOM     19  F   LIG    1      -19.325  74.039  35.777  0.00  0.00    -0.204 F 
ATOM     20  C   LIG    1      -19.877  76.176  36.619  0.00  0.00    +0.153 A 
ATOM     21  N   LIG    1      -19.969  77.521  36.512  0.00  0.00    -0.218 NA
BRANCH  15  23
ATOM     22  C   LIG    1      -19.505  80.131  36.445  0.00  0.00    +0.279 C 
ATOM     23  O   LIG    1      -19.641  79.444  35.201  0.00  0.00    -0.479 OA
ENDBRANCH  15  23
ENDBRANCH  10  16
ENDBRANCH   1  11
BRANCH   4  24
ATOM     24  C   LIG    1      -24.375  78.519  33.199  0.00  0.00    +0.249 C 
ATOM     25  N   LIG    1      -23.418  79.266  33.842  0.00  0.00    -0.308 N 
ATOM     26  H   LIG    1      -22.549  79.437  33.343  0.00  0.00    +0.149 HD
ATOM     27  O   LIG    1      -25.498  78.320  33.667  0.00  0.00    -0.270 OA
BRANCH  25  28
ATOM     28  C   LIG    1      -23.691  79.881  35.120  0.00  0.00    +0.076 C 
ATOM     29  C   LIG    1      -22.952  81.200  35.333  0.00  0.00    +0.053 C 
ATOM     30  C   LIG    1      -22.949  81.387  36.853  0.00  0.00    +0.116 C 
ATOM     31  C   LIG    1      -23.271  80.020  37.463  0.00  0.00    +0.033 C 
ATOM     32  C   LIG    1      -23.195  79.047  36.300  0.00  0.00    +0.025 C 
BRANCH  30  33
ATOM     33  O   LIG    1      -23.947  82.331  37.219  0.00  0.00    -0.392 OA
ATOM     34  H   LIG    1      -24.752  81.834  37.445  0.00  0.00    +0.210 HD
ENDBRANCH  30  33
ENDBRANCH  25  28
ENDBRANCH   4  24
TORSDOF 6
ENDMDL
MODEL 9
REMARK VINA RESULT:      -5.3     18.287     21.815
REMARK  Name = pdb/CHEMBL3676025.pdb
REMARK                            x       y       z     vdW  Elec       q    Type
REMARK                         _______ _______ _______ _____ _____    ______ ____
ROOT
ATOM      1  C   LIG    1      -23.400  85.896  12.015  0.00  0.00    +0.126 A 
ATOM      2  N   LIG    1      -23.873  84.669  12.159  0.00  0.00    -0.212 NA
ATOM      3  C   LIG    1      -24.581  84.115  11.113  0.00  0.00    +0.170 A 
ATOM      4  C   LIG    1      -25.155  82.868  10.905  0.00  0.00    +0.100 A 
ATOM      5  C   LIG    1      -25.762  82.958   9.634  0.00  0.00    +0.150 A 
ATOM      6  N   LIG    1      -25.577  84.138   9.049  0.00  0.00    -0.173 NA
ATOM      7  N   LIG    1      -24.833  84.831   9.936  0.00  0.00    -0.221 N 
ATOM      8  C   LIG    1      -24.311  86.093   9.760  0.00  0.00    +0.118 A 
ATOM      9  C   LIG    1      -23.586  86.662  10.724  0.00  0.00    +0.063 A 
ENDROOT
BRANCH   1  11
ATOM     10  C   LIG    1      -22.296  85.828  14.314  0.00  0.00    +0.110 C 
ATOM     11  N   LIG    1      -22.714  86.503  13.065  0.00  0.00    -0.308 N 
ATOM     12  C   LIG    1      -22.597  87.951  13.212  0.00  0.00    +0.107 C 
ATOM     13  C   LIG    1      -22.675  88.167  14.719  0.00  0.00    +0.021 C 
ATOM     14  C   LIG    1      -21.931  86.967  15.278  0.00  0.00    +0.029 C 
BRANCH  10  16
ATOM     15  C   LIG    1      -21.211  83.539  14.481  0.00  0.00    +0.220 A 
ATOM     16  C   LIG    1      -21.125  84.888  14.117  0.00  0.00    +0.037 A 
ATOM     17  C   LIG    1      -19.894  85.326  13.600  0.00  0.00    +0.050 A 
ATOM     18  C   LIG    1      -18.852  84.424  13.433  0.00  0.00    +0.142 A 
ATOM     19  F   LIG    1      -17.681  84.828  12.935  0.00  0.00    -0.204 F 
ATOM     20  C   LIG    1      -19.051  83.107  13.793  0.00  0.00    +0.153 A 
ATOM     21  N   LIG    1      -20.208  82.643  14.319  0.00  0.00    -0.218 NA
BRANCH  15  23
ATOM     22  C   LIG    1      -22.264  82.754  16.422  0.00  0.00    +0.279 C 
ATOM     23  O   LIG    1      -22.395  83.104  15.044  0.00  0.00    -0.479 OA
ENDBRANCH  15  23
ENDBRANCH  10  16
ENDBRANCH   1  11
BRANCH   4  24
ATOM     24  C   LIG    1      -25.166  81.688  11.736  0.00  0.00    +0.249 C 
ATOM     25  N   LIG    1      -24.087  81.527  12.570  0.00  0.00    -0.308 N 
ATOM     26  H   LIG    1      -23.414  82.288  12.612  0.00  0.00    +0.149 HD
ATOM     27  O   LIG    1      -26.090  80.874  11.668  0.00  0.00    -0.270 OA
BRANCH  25  28
ATOM     28  C   LIG    1      -23.984  80.377  13.439  0.00  0.00    +0.076 C 
ATOM     29  C   LIG    1      -24.614  80.592  14.813  0.00  0.00    +0.053 C 
ATOM     30  C   LIG    1      -23.954  79.530  15.698  0.00  0.00    +0.116 C 
ATOM     31  C   LIG    1      -22.702  79.058  14.955  0.00  0.00    +0.033 C 
ATOM     32  C   LIG    1      -22.540  80.034  13.803  0.00  0.00    +0.025 C 
BRANCH  30  33
ATOM     33  O   LIG    1      -24.850  78.442  15.884  0.00  0.00    -0.392 OA
ATOM     34  H   LIG    1      -24.375  77.752  16.379  0.00  0.00    +0.210 HD
ENDBRANCH  30  33
ENDBRANCH  25  28
ENDBRANCH   4  24
TORSDOF 6
ENDMDL
