MODEL 1
REMARK VINA RESULT:      -7.2      0.000      0.000
REMARK  Name = pdb/CHEMBL3955841.pdb
REMARK                            x       y       z     vdW  Elec       q    Type
REMARK                         _______ _______ _______ _____ _____    ______ ____
ROOT
ATOM      1  C   LIG    1      -32.666  92.229  26.158  0.00  0.00    +0.105 A 
ATOM      2  C   LIG    1      -33.197  93.513  26.060  0.00  0.00    +0.145 A 
ATOM      3  N   LIG    1      -33.024  94.358  25.003  0.00  0.00    -0.201 NA
ATOM      4  C   LIG    1      -32.280  93.876  23.992  0.00  0.00    +0.323 A 
ATOM      5  N   LIG    1      -31.715  92.658  23.976  0.00  0.00    -0.201 NA
ATOM      6  C   LIG    1      -31.887  91.896  25.069  0.00  0.00    +0.145 A 
ENDROOT
BRANCH   1   8
ATOM      7  C   LIG    1      -33.782  90.495  27.339  0.00  0.00    +0.285 C 
ATOM      8  N   LIG    1      -32.871  91.432  27.295  0.00  0.00    -0.196 NA
BRANCH   7   9
ATOM      9  O   LIG    1      -34.591  90.283  26.286  0.00  0.00    -0.481 OA
ATOM     10  H   LIG    1      -34.739  89.333  26.137  0.00  0.00    +0.295 HD
ENDBRANCH   7   9
BRANCH   7  11
ATOM     11  N   LIG    1      -34.080  89.643  28.348  0.00  0.00    -0.267 N 
ATOM     12  H   LIG    1      -35.037  89.649  28.714  0.00  0.00    +0.157 HD
BRANCH  11  13
ATOM     13  C   LIG    1      -33.373  88.540  28.876  0.00  0.00    +0.061 A 
ATOM     14  C   LIG    1      -33.868  87.220  28.711  0.00  0.00    +0.087 A 
ATOM     15  C   LIG    1      -33.192  86.130  29.279  0.00  0.00    +0.030 A 
ATOM     16  C   LIG    1      -32.032  86.336  30.030  0.00  0.00    +0.014 A 
ATOM     17  C   LIG    1      -31.550  87.631  30.248  0.00  0.00    +0.057 A 
ATOM     18  C   LIG    1      -32.232  88.715  29.674  0.00  0.00    +0.037 A 
BRANCH  14  19
ATOM     19  N   LIG    1      -35.065  86.973  27.971  0.00  0.00    -0.238 N 
ATOM     20  N   LIG    1      -36.207  87.697  28.193  0.00  0.00    -0.175 NA
ATOM     21  C   LIG    1      -37.089  87.200  27.323  0.00  0.00    +0.135 A 
ATOM     22  C   LIG    1      -36.584  86.107  26.606  0.00  0.00    +0.041 A 
ATOM     23  C   LIG    1      -35.280  85.993  27.023  0.00  0.00    +0.114 A 
ENDBRANCH  14  19
BRANCH  17  24
ATOM     24  C   LIG    1      -30.317  87.864  31.087  0.00  0.00    +0.417 C 
ATOM     25  F   LIG    1      -30.325  89.087  31.685  0.00  0.00    -0.166 F 
ATOM     26  F   LIG    1      -29.175  87.814  30.350  0.00  0.00    -0.166 F 
ATOM     27  F   LIG    1      -30.154  86.958  32.091  0.00  0.00    -0.166 F 
ENDBRANCH  17  24
ENDBRANCH  11  13
ENDBRANCH   7  11
ENDBRANCH   1   8
BRANCH   4  28
ATOM     28  O   LIG    1      -32.094  94.694  22.878  0.00  0.00    -0.424 OA
BRANCH  28  29
ATOM     29  C   LIG    1      -32.209  94.092  21.636  0.00  0.00    +0.132 A 
ATOM     30  C   LIG    1      -33.473  93.701  21.188  0.00  0.00    +0.047 A 
ATOM     31  C   LIG    1      -33.625  93.148  19.903  0.00  0.00    +0.013 A 
ATOM     32  C   LIG    1      -32.522  92.978  19.051  0.00  0.00    +0.001 A 
ATOM     33  C   LIG    1      -31.275  93.410  19.504  0.00  0.00    +0.013 A 
ATOM     34  C   LIG    1      -31.117  93.942  20.780  0.00  0.00    +0.047 A 
BRANCH  32  35
ATOM     35  C   LIG    1      -32.682  92.416  17.705  0.00  0.00    +0.073 A 
ATOM     36  N   LIG    1      -33.107  91.127  17.381  0.00  0.00    -0.299 N 
ATOM     37  C   LIG    1      -33.560  90.071  18.182  0.00  0.00    +0.093 A 
ATOM     38  C   LIG    1      -33.842  88.880  17.628  0.00  0.00    +0.018 A 
ATOM     39  C   LIG    1      -33.708  88.724  16.193  0.00  0.00    +0.005 A 
ATOM     40  C   LIG    1      -33.322  89.751  15.412  0.00  0.00    +0.047 A 
ATOM     41  C   LIG    1      -33.007  91.012  15.992  0.00  0.00    +0.138 A 
ATOM     42  N   LIG    1      -32.630  92.139  15.432  0.00  0.00    -0.235 NA
ATOM     43  C   LIG    1      -32.432  93.004  16.474  0.00  0.00    +0.139 A 
ENDBRANCH  32  35
ENDBRANCH  28  29
ENDBRANCH   4  28
TORSDOF 9
ENDMDL
MODEL 2
REMARK VINA RESULT:      -7.1     18.452     21.907
REMARK  Name = pdb/CHEMBL3955841.pdb
REMARK                            x       y       z     vdW  Elec       q    Type
REMARK                         _______ _______ _______ _____ _____    ______ ____
ROOT
ATOM      1  C   LIG    1      -38.148  68.424  21.925  0.00  0.00    +0.105 A 
ATOM      2  C   LIG    1      -37.890  68.857  20.627  0.00  0.00    +0.145 A 
ATOM      3  N   LIG    1      -37.125  68.194  19.713  0.00  0.00    -0.201 NA
ATOM      4  C   LIG    1      -36.598  67.031  20.134  0.00  0.00    +0.323 A 
ATOM      5  N   LIG    1      -36.774  66.515  21.361  0.00  0.00    -0.201 NA
ATOM      6  C   LIG    1      -37.500  67.242  22.225  0.00  0.00    +0.145 A 
ENDROOT
BRANCH   1   8
ATOM      7  C   LIG    1      -38.425  70.132  23.554  0.00  0.00    +0.285 C 
ATOM      8  N   LIG    1      -38.928  69.180  22.814  0.00  0.00    -0.196 NA
BRANCH   7   9
ATOM      9  O   LIG    1      -37.108  70.402  23.512  0.00  0.00    -0.481 OA
ATOM     10  H   LIG    1      -36.586  69.601  23.329  0.00  0.00    +0.295 HD
ENDBRANCH   7   9
BRANCH   7  11
ATOM     11  N   LIG    1      -39.050  70.950  24.433  0.00  0.00    -0.267 N 
ATOM     12  H   LIG    1      -39.004  70.710  25.428  0.00  0.00    +0.157 HD
BRANCH  11  13
ATOM     13  C   LIG    1      -39.590  72.246  24.279  0.00  0.00    +0.061 A 
ATOM     14  C   LIG    1      -40.862  72.432  23.677  0.00  0.00    +0.087 A 
ATOM     15  C   LIG    1      -41.374  73.722  23.478  0.00  0.00    +0.030 A 
ATOM     16  C   LIG    1      -40.627  74.841  23.854  0.00  0.00    +0.014 A 
ATOM     17  C   LIG    1      -39.350  74.687  24.406  0.00  0.00    +0.057 A 
ATOM     18  C   LIG    1      -38.848  73.392  24.602  0.00  0.00    +0.037 A 
BRANCH  14  19
ATOM     19  N   LIG    1      -41.644  71.312  23.256  0.00  0.00    -0.238 N 
ATOM     20  N   LIG    1      -42.080  70.368  24.148  0.00  0.00    -0.175 NA
ATOM     21  C   LIG    1      -42.775  69.504  23.402  0.00  0.00    +0.135 A 
ATOM     22  C   LIG    1      -42.722  69.807  22.035  0.00  0.00    +0.041 A 
ATOM     23  C   LIG    1      -42.010  70.980  21.968  0.00  0.00    +0.114 A 
ENDBRANCH  14  19
BRANCH  17  24
ATOM     24  C   LIG    1      -38.523  75.892  24.782  0.00  0.00    +0.417 C 
ATOM     25  F   LIG    1      -38.831  76.984  24.029  0.00  0.00    -0.166 F 
ATOM     26  F   LIG    1      -37.191  75.678  24.606  0.00  0.00    -0.166 F 
ATOM     27  F   LIG    1      -38.670  76.279  26.080  0.00  0.00    -0.166 F 
ENDBRANCH  17  24
ENDBRANCH  11  13
ENDBRANCH   7  11
ENDBRANCH   1   8
BRANCH   4  28
ATOM     28  O   LIG    1      -35.827  66.304  19.227  0.00  0.00    -0.424 OA
BRANCH  28  29
ATOM     29  C   LIG    1      -34.530  66.745  19.019  0.00  0.00    +0.132 A 
ATOM     30  C   LIG    1      -33.549  66.428  19.961  0.00  0.00    +0.047 A 
ATOM     31  C   LIG    1      -32.212  66.807  19.739  0.00  0.00    +0.013 A 
ATOM     32  C   LIG    1      -31.837  67.503  18.579  0.00  0.00    +0.001 A 
ATOM     33  C   LIG    1      -32.827  67.775  17.634  0.00  0.00    +0.013 A 
ATOM     34  C   LIG    1      -34.153  67.418  17.856  0.00  0.00    +0.047 A 
BRANCH  32  35
ATOM     35  C   LIG    1      -30.441  67.885  18.340  0.00  0.00    +0.073 A 
ATOM     36  N   LIG    1      -29.941  69.176  18.176  0.00  0.00    -0.299 N 
ATOM     37  C   LIG    1      -30.563  70.429  18.266  0.00  0.00    +0.093 A 
ATOM     38  C   LIG    1      -29.871  71.544  17.982  0.00  0.00    +0.018 A 
ATOM     39  C   LIG    1      -28.470  71.431  17.626  0.00  0.00    +0.005 A 
ATOM     40  C   LIG    1      -27.854  70.233  17.590  0.00  0.00    +0.047 A 
ATOM     41  C   LIG    1      -28.584  69.045  17.873  0.00  0.00    +0.138 A 
ATOM     42  N   LIG    1      -28.193  67.791  17.910  0.00  0.00    -0.235 NA
ATOM     43  C   LIG    1      -29.322  67.075  18.199  0.00  0.00    +0.139 A 
ENDBRANCH  32  35
ENDBRANCH  28  29
ENDBRANCH   4  28
TORSDOF 9
ENDMDL
MODEL 3
REMARK VINA RESULT:      -7.0     19.123     22.354
REMARK  Name = pdb/CHEMBL3955841.pdb
REMARK                            x       y       z     vdW  Elec       q    Type
REMARK                         _______ _______ _______ _____ _____    ______ ____
ROOT
ATOM      1  C   LIG    1      -38.193  68.402  21.538  0.00  0.00    +0.105 A 
ATOM      2  C   LIG    1      -38.071  67.016  21.599  0.00  0.00    +0.145 A 
ATOM      3  N   LIG    1      -37.332  66.252  20.745  0.00  0.00    -0.201 NA
ATOM      4  C   LIG    1      -36.680  66.926  19.782  0.00  0.00    +0.323 A 
ATOM      5  N   LIG    1      -36.725  68.259  19.621  0.00  0.00    -0.201 NA
ATOM      6  C   LIG    1      -37.509  68.945  20.469  0.00  0.00    +0.145 A 
ENDROOT
BRANCH   1   8
ATOM      7  C   LIG    1      -40.152  69.622  22.107  0.00  0.00    +0.285 C 
ATOM      8  N   LIG    1      -38.996  69.112  22.444  0.00  0.00    -0.196 NA
BRANCH   7   9
ATOM      9  O   LIG    1      -40.603  69.510  20.845  0.00  0.00    -0.481 OA
ATOM     10  H   LIG    1      -41.149  70.275  20.593  0.00  0.00    +0.295 HD
ENDBRANCH   7   9
BRANCH   7  11
ATOM     11  N   LIG    1      -41.035  70.309  22.870  0.00  0.00    -0.267 N 
ATOM     12  H   LIG    1      -41.604  69.780  23.537  0.00  0.00    +0.157 HD
BRANCH  11  13
ATOM     13  C   LIG    1      -41.183  71.693  23.107  0.00  0.00    +0.061 A 
ATOM     14  C   LIG    1      -42.289  72.403  22.572  0.00  0.00    +0.087 A 
ATOM     15  C   LIG    1      -42.408  73.788  22.764  0.00  0.00    +0.030 A 
ATOM     16  C   LIG    1      -41.427  74.485  23.471  0.00  0.00    +0.014 A 
ATOM     17  C   LIG    1      -40.302  73.818  23.968  0.00  0.00    +0.057 A 
ATOM     18  C   LIG    1      -40.193  72.433  23.771  0.00  0.00    +0.037 A 
BRANCH  14  19
ATOM     19  N   LIG    1      -43.300  71.727  21.821  0.00  0.00    -0.238 N 
ATOM     20  N   LIG    1      -43.066  71.274  20.550  0.00  0.00    -0.175 NA
ATOM     21  C   LIG    1      -44.214  70.697  20.187  0.00  0.00    +0.135 A 
ATOM     22  C   LIG    1      -45.222  70.846  21.149  0.00  0.00    +0.041 A 
ATOM     23  C   LIG    1      -44.607  71.491  22.195  0.00  0.00    +0.114 A 
ENDBRANCH  14  19
BRANCH  17  24
ATOM     24  C   LIG    1      -39.220  74.572  24.702  0.00  0.00    +0.417 C 
ATOM     25  F   LIG    1      -39.474  74.668  26.037  0.00  0.00    -0.166 F 
ATOM     26  F   LIG    1      -39.086  75.849  24.253  0.00  0.00    -0.166 F 
ATOM     27  F   LIG    1      -37.985  74.008  24.596  0.00  0.00    -0.166 F 
ENDBRANCH  17  24
ENDBRANCH  11  13
ENDBRANCH   7  11
ENDBRANCH   1   8
BRANCH   4  28
ATOM     28  O   LIG    1      -35.891  66.191  18.896  0.00  0.00    -0.424 OA
BRANCH  28  29
ATOM     29  C   LIG    1      -34.559  66.555  18.799  0.00  0.00    +0.132 A 
ATOM     30  C   LIG    1      -34.131  67.267  17.677  0.00  0.00    +0.047 A 
ATOM     31  C   LIG    1      -32.798  67.707  17.586  0.00  0.00    +0.013 A 
ATOM     32  C   LIG    1      -31.876  67.443  18.612  0.00  0.00    +0.001 A 
ATOM     33  C   LIG    1      -32.334  66.763  19.742  0.00  0.00    +0.013 A 
ATOM     34  C   LIG    1      -33.647  66.312  19.828  0.00  0.00    +0.047 A 
BRANCH  32  35
ATOM     35  C   LIG    1      -30.489  67.914  18.526  0.00  0.00    +0.073 A 
ATOM     36  N   LIG    1      -30.061  69.225  18.318  0.00  0.00    -0.299 N 
ATOM     37  C   LIG    1      -30.773  70.428  18.217  0.00  0.00    +0.093 A 
ATOM     38  C   LIG    1      -30.126  71.569  17.932  0.00  0.00    +0.018 A 
ATOM     39  C   LIG    1      -28.685  71.540  17.774  0.00  0.00    +0.005 A 
ATOM     40  C   LIG    1      -27.990  70.396  17.921  0.00  0.00    +0.047 A 
ATOM     41  C   LIG    1      -28.669  69.178  18.207  0.00  0.00    +0.138 A 
ATOM     42  N   LIG    1      -28.203  67.966  18.403  0.00  0.00    -0.235 NA
ATOM     43  C   LIG    1      -29.309  67.187  18.602  0.00  0.00    +0.139 A 
ENDBRANCH  32  35
ENDBRANCH  28  29
ENDBRANCH   4  28
TORSDOF 9
ENDMDL
MODEL 4
REMARK VINA RESULT:      -7.0     10.916     16.071
REMARK  Name = pdb/CHEMBL3955841.pdb
REMARK                            x       y       z     vdW  Elec       q    Type
REMARK                         _______ _______ _______ _____ _____    ______ ____
ROOT
ATOM      1  C   LIG    1      -27.667  83.694  36.844  0.00  0.00    +0.105 A 
ATOM      2  C   LIG    1      -26.292  83.805  36.652  0.00  0.00    +0.145 A 
ATOM      3  N   LIG    1      -25.400  82.778  36.741  0.00  0.00    -0.201 NA
ATOM      4  C   LIG    1      -25.927  81.576  37.034  0.00  0.00    +0.323 A 
ATOM      5  N   LIG    1      -27.234  81.348  37.242  0.00  0.00    -0.201 NA
ATOM      6  C   LIG    1      -28.050  82.413  37.185  0.00  0.00    +0.145 A 
ENDROOT
BRANCH   1   8
ATOM      7  C   LIG    1      -29.087  85.172  35.640  0.00  0.00    +0.285 C 
ATOM      8  N   LIG    1      -28.516  84.809  36.758  0.00  0.00    -0.196 NA
BRANCH   7   9
ATOM      9  O   LIG    1      -28.849  84.493  34.503  0.00  0.00    -0.481 OA
ATOM     10  H   LIG    1      -29.568  83.868  34.305  0.00  0.00    +0.295 HD
ENDBRANCH   7   9
BRANCH   7  11
ATOM     11  N   LIG    1      -29.935  86.202  35.411  0.00  0.00    -0.267 N 
ATOM     12  H   LIG    1      -30.808  86.232  35.945  0.00  0.00    +0.157 HD
BRANCH  11  13
ATOM     13  C   LIG    1      -29.756  87.420  34.719  0.00  0.00    +0.061 A 
ATOM     14  C   LIG    1      -30.373  87.633  33.459  0.00  0.00    +0.087 A 
ATOM     15  C   LIG    1      -30.153  88.822  32.749  0.00  0.00    +0.030 A 
ATOM     16  C   LIG    1      -29.308  89.805  33.269  0.00  0.00    +0.014 A 
ATOM     17  C   LIG    1      -28.649  89.600  34.487  0.00  0.00    +0.057 A 
ATOM     18  C   LIG    1      -28.877  88.407  35.189  0.00  0.00    +0.037 A 
BRANCH  14  19
ATOM     19  N   LIG    1      -31.225  86.640  32.883  0.00  0.00    -0.238 N 
ATOM     20  N   LIG    1      -32.304  86.140  33.563  0.00  0.00    -0.175 NA
ATOM     21  C   LIG    1      -32.852  85.264  32.718  0.00  0.00    +0.135 A 
ATOM     22  C   LIG    1      -32.104  85.106  31.543  0.00  0.00    +0.041 A 
ATOM     23  C   LIG    1      -31.078  86.012  31.663  0.00  0.00    +0.114 A 
ENDBRANCH  14  19
BRANCH  17  24
ATOM     24  C   LIG    1      -27.707  90.642  35.038  0.00  0.00    +0.417 C 
ATOM     25  F   LIG    1      -26.519  90.106  35.433  0.00  0.00    -0.166 F 
ATOM     26  F   LIG    1      -28.217  91.272  36.131  0.00  0.00    -0.166 F 
ATOM     27  F   LIG    1      -27.395  91.629  34.152  0.00  0.00    -0.166 F 
ENDBRANCH  17  24
ENDBRANCH  11  13
ENDBRANCH   7  11
ENDBRANCH   1   8
BRANCH   4  28
ATOM     28  O   LIG    1      -25.056  80.489  37.113  0.00  0.00    -0.424 OA
BRANCH  28  29
ATOM     29  C   LIG    1      -24.797  79.811  35.933  0.00  0.00    +0.132 A 
ATOM     30  C   LIG    1      -25.668  78.797  35.529  0.00  0.00    +0.047 A 
ATOM     31  C   LIG    1      -25.464  78.140  34.302  0.00  0.00    +0.013 A 
ATOM     32  C   LIG    1      -24.392  78.486  33.463  0.00  0.00    +0.001 A 
ATOM     33  C   LIG    1      -23.558  79.528  33.868  0.00  0.00    +0.013 A 
ATOM     34  C   LIG    1      -23.745  80.169  35.088  0.00  0.00    +0.047 A 
BRANCH  32  35
ATOM     35  C   LIG    1      -24.188  77.812  32.176  0.00  0.00    +0.073 A 
ATOM     36  N   LIG    1      -22.968  77.453  31.602  0.00  0.00    -0.299 N 
ATOM     37  C   LIG    1      -21.655  77.544  32.083  0.00  0.00    +0.093 A 
ATOM     38  C   LIG    1      -20.625  77.198  31.294  0.00  0.00    +0.018 A 
ATOM     39  C   LIG    1      -20.899  76.692  29.962  0.00  0.00    +0.005 A 
ATOM     40  C   LIG    1      -22.162  76.553  29.515  0.00  0.00    +0.047 A 
ATOM     41  C   LIG    1      -23.259  76.934  30.338  0.00  0.00    +0.138 A 
ATOM     42  N   LIG    1      -24.552  76.874  30.118  0.00  0.00    -0.235 NA
ATOM     43  C   LIG    1      -25.128  77.407  31.239  0.00  0.00    +0.139 A 
ENDBRANCH  32  35
ENDBRANCH  28  29
ENDBRANCH   4  28
TORSDOF 9
ENDMDL
MODEL 5
REMARK VINA RESULT:      -6.9      1.829      2.761
REMARK  Name = pdb/CHEMBL3955841.pdb
REMARK                            x       y       z     vdW  Elec       q    Type
REMARK                         _______ _______ _______ _____ _____    ______ ____
ROOT
ATOM      1  C   LIG    1      -32.549  92.427  25.860  0.00  0.00    +0.105 A 
ATOM      2  C   LIG    1      -33.236  93.629  25.706  0.00  0.00    +0.145 A 
ATOM      3  N   LIG    1      -33.192  94.424  24.599  0.00  0.00    -0.201 NA
ATOM      4  C   LIG    1      -32.419  93.976  23.594  0.00  0.00    +0.323 A 
ATOM      5  N   LIG    1      -31.710  92.837  23.629  0.00  0.00    -0.201 NA
ATOM      6  C   LIG    1      -31.761  92.126  24.768  0.00  0.00    +0.145 A 
ENDROOT
BRANCH   1   8
ATOM      7  C   LIG    1      -33.493  90.712  27.208  0.00  0.00    +0.285 C 
ATOM      8  N   LIG    1      -32.629  91.680  27.046  0.00  0.00    -0.196 NA
BRANCH   7   9
ATOM      9  O   LIG    1      -34.374  90.417  26.236  0.00  0.00    -0.481 OA
ATOM     10  H   LIG    1      -34.371  91.091  25.535  0.00  0.00    +0.295 HD
ENDBRANCH   7   9
BRANCH   7  11
ATOM     11  N   LIG    1      -33.673  89.901  28.277  0.00  0.00    -0.267 N 
ATOM     12  H   LIG    1      -34.337  89.126  28.185  0.00  0.00    +0.157 HD
BRANCH  11  13
ATOM     13  C   LIG    1      -32.936  89.759  29.473  0.00  0.00    +0.061 A 
ATOM     14  C   LIG    1      -33.029  90.735  30.499  0.00  0.00    +0.087 A 
ATOM     15  C   LIG    1      -32.257  90.620  31.665  0.00  0.00    +0.030 A 
ATOM     16  C   LIG    1      -31.375  89.549  31.820  0.00  0.00    +0.014 A 
ATOM     17  C   LIG    1      -31.229  88.598  30.804  0.00  0.00    +0.057 A 
ATOM     18  C   LIG    1      -32.006  88.722  29.642  0.00  0.00    +0.037 A 
BRANCH  14  19
ATOM     19  N   LIG    1      -33.902  91.858  30.364  0.00  0.00    -0.238 N 
ATOM     20  N   LIG    1      -35.260  91.702  30.273  0.00  0.00    -0.175 NA
ATOM     21  C   LIG    1      -35.731  92.948  30.174  0.00  0.00    +0.135 A 
ATOM     22  C   LIG    1      -34.712  93.907  30.101  0.00  0.00    +0.041 A 
ATOM     23  C   LIG    1      -33.550  93.187  30.246  0.00  0.00    +0.114 A 
ENDBRANCH  14  19
BRANCH  17  24
ATOM     24  C   LIG    1      -30.251  87.457  30.950  0.00  0.00    +0.417 C 
ATOM     25  F   LIG    1      -30.276  86.914  32.199  0.00  0.00    -0.166 F 
ATOM     26  F   LIG    1      -28.965  87.850  30.738  0.00  0.00    -0.166 F 
ATOM     27  F   LIG    1      -30.473  86.426  30.089  0.00  0.00    -0.166 F 
ENDBRANCH  17  24
ENDBRANCH  11  13
ENDBRANCH   7  11
ENDBRANCH   1   8
BRANCH   4  28
ATOM     28  O   LIG    1      -32.360  94.744  22.431  0.00  0.00    -0.424 OA
BRANCH  28  29
ATOM     29  C   LIG    1      -32.478  94.063  21.230  0.00  0.00    +0.132 A 
ATOM     30  C   LIG    1      -33.733  93.590  20.840  0.00  0.00    +0.047 A 
ATOM     31  C   LIG    1      -33.891  92.955  19.595  0.00  0.00    +0.013 A 
ATOM     32  C   LIG    1      -32.802  92.785  18.724  0.00  0.00    +0.001 A 
ATOM     33  C   LIG    1      -31.566  93.300  19.117  0.00  0.00    +0.013 A 
ATOM     34  C   LIG    1      -31.401  93.913  20.354  0.00  0.00    +0.047 A 
BRANCH  32  35
ATOM     35  C   LIG    1      -32.969  92.137  17.418  0.00  0.00    +0.073 A 
ATOM     36  N   LIG    1      -33.227  90.787  17.179  0.00  0.00    -0.299 N 
ATOM     37  C   LIG    1      -33.471  89.721  18.055  0.00  0.00    +0.093 A 
ATOM     38  C   LIG    1      -33.616  88.476  17.574  0.00  0.00    +0.018 A 
ATOM     39  C   LIG    1      -33.556  88.265  16.140  0.00  0.00    +0.005 A 
ATOM     40  C   LIG    1      -33.374  89.294  15.291  0.00  0.00    +0.047 A 
ATOM     41  C   LIG    1      -33.203  90.615  15.793  0.00  0.00    +0.138 A 
ATOM     42  N   LIG    1      -33.028  91.753  15.161  0.00  0.00    -0.235 NA
ATOM     43  C   LIG    1      -32.887  92.689  16.148  0.00  0.00    +0.139 A 
ENDBRANCH  32  35
ENDBRANCH  28  29
ENDBRANCH   4  28
TORSDOF 9
ENDMDL
MODEL 6
REMARK VINA RESULT:      -6.8      9.942     16.117
REMARK  Name = pdb/CHEMBL3955841.pdb
REMARK                            x       y       z     vdW  Elec       q    Type
REMARK                         _______ _______ _______ _____ _____    ______ ____
ROOT
ATOM      1  C   LIG    1      -28.350  84.227  36.240  0.00  0.00    +0.105 A 
ATOM      2  C   LIG    1      -27.025  84.618  36.065  0.00  0.00    +0.145 A 
ATOM      3  N   LIG    1      -25.934  83.899  36.455  0.00  0.00    -0.201 NA
ATOM      4  C   LIG    1      -26.198  82.721  37.047  0.00  0.00    +0.323 A 
ATOM      5  N   LIG    1      -27.432  82.242  37.272  0.00  0.00    -0.201 NA
ATOM      6  C   LIG    1      -28.461  83.023  36.905  0.00  0.00    +0.145 A 
ENDROOT
BRANCH   1   8
ATOM      7  C   LIG    1      -29.993  84.910  34.664  0.00  0.00    +0.285 C 
ATOM      8  N   LIG    1      -29.419  85.040  35.831  0.00  0.00    -0.196 NA
BRANCH   7   9
ATOM      9  O   LIG    1      -29.546  83.996  33.784  0.00  0.00    -0.481 OA
ATOM     10  H   LIG    1      -29.191  83.211  34.236  0.00  0.00    +0.295 HD
ENDBRANCH   7   9
BRANCH   7  11
ATOM     11  N   LIG    1      -31.034  85.602  34.144  0.00  0.00    -0.267 N 
ATOM     12  H   LIG    1      -31.751  85.945  34.789  0.00  0.00    +0.157 HD
BRANCH  11  13
ATOM     13  C   LIG    1      -31.231  86.168  32.865  0.00  0.00    +0.061 A 
ATOM     14  C   LIG    1      -30.631  87.409  32.525  0.00  0.00    +0.087 A 
ATOM     15  C   LIG    1      -30.869  87.996  31.273  0.00  0.00    +0.030 A 
ATOM     16  C   LIG    1      -31.714  87.371  30.354  0.00  0.00    +0.014 A 
ATOM     17  C   LIG    1      -32.355  86.171  30.682  0.00  0.00    +0.057 A 
ATOM     18  C   LIG    1      -32.110  85.592  31.936  0.00  0.00    +0.037 A 
BRANCH  14  19
ATOM     19  N   LIG    1      -29.781  88.090  33.450  0.00  0.00    -0.238 N 
ATOM     20  N   LIG    1      -28.486  87.694  33.657  0.00  0.00    -0.175 NA
ATOM     21  C   LIG    1      -28.015  88.559  34.559  0.00  0.00    +0.135 A 
ATOM     22  C   LIG    1      -28.996  89.448  35.019  0.00  0.00    +0.041 A 
ATOM     23  C   LIG    1      -30.113  89.142  34.279  0.00  0.00    +0.114 A 
ENDBRANCH  14  19
BRANCH  17  24
ATOM     24  C   LIG    1      -33.297  85.509  29.706  0.00  0.00    +0.417 C 
ATOM     25  F   LIG    1      -34.595  85.863  29.922  0.00  0.00    -0.166 F 
ATOM     26  F   LIG    1      -33.259  84.151  29.794  0.00  0.00    -0.166 F 
ATOM     27  F   LIG    1      -33.041  85.806  28.402  0.00  0.00    -0.166 F 
ENDBRANCH  17  24
ENDBRANCH  11  13
ENDBRANCH   7  11
ENDBRANCH   1   8
BRANCH   4  28
ATOM     28  O   LIG    1      -25.113  81.938  37.442  0.00  0.00    -0.424 OA
BRANCH  28  29
ATOM     29  C   LIG    1      -24.520  81.157  36.465  0.00  0.00    +0.132 A 
ATOM     30  C   LIG    1      -23.259  81.517  35.983  0.00  0.00    +0.047 A 
ATOM     31  C   LIG    1      -22.607  80.703  35.039  0.00  0.00    +0.013 A 
ATOM     32  C   LIG    1      -23.202  79.523  34.564  0.00  0.00    +0.001 A 
ATOM     33  C   LIG    1      -24.444  79.163  35.087  0.00  0.00    +0.013 A 
ATOM     34  C   LIG    1      -25.101  79.973  36.008  0.00  0.00    +0.047 A 
BRANCH  32  35
ATOM     35  C   LIG    1      -22.515  78.665  33.591  0.00  0.00    +0.073 A 
ATOM     36  N   LIG    1      -23.077  78.053  32.471  0.00  0.00    -0.299 N 
ATOM     37  C   LIG    1      -24.363  78.129  31.920  0.00  0.00    +0.093 A 
ATOM     38  C   LIG    1      -24.687  77.368  30.862  0.00  0.00    +0.018 A 
ATOM     39  C   LIG    1      -23.676  76.506  30.281  0.00  0.00    +0.005 A 
ATOM     40  C   LIG    1      -22.424  76.468  30.775  0.00  0.00    +0.047 A 
ATOM     41  C   LIG    1      -22.077  77.259  31.906  0.00  0.00    +0.138 A 
ATOM     42  N   LIG    1      -20.932  77.389  32.537  0.00  0.00    -0.235 NA
ATOM     43  C   LIG    1      -21.191  78.251  33.568  0.00  0.00    +0.139 A 
ENDBRANCH  32  35
ENDBRANCH  28  29
ENDBRANCH   4  28
TORSDOF 9
ENDMDL
MODEL 7
REMARK VINA RESULT:      -6.8     10.759     16.363
REMARK  Name = pdb/CHEMBL3955841.pdb
REMARK                            x       y       z     vdW  Elec       q    Type
REMARK                         _______ _______ _______ _____ _____    ______ ____
ROOT
ATOM      1  C   LIG    1      -27.537  83.763  36.845  0.00  0.00    +0.105 A 
ATOM      2  C   LIG    1      -28.071  82.495  37.063  0.00  0.00    +0.145 A 
ATOM      3  N   LIG    1      -27.350  81.341  37.148  0.00  0.00    -0.201 NA
ATOM      4  C   LIG    1      -26.019  81.478  37.010  0.00  0.00    +0.323 A 
ATOM      5  N   LIG    1      -25.393  82.646  36.794  0.00  0.00    -0.201 NA
ATOM      6  C   LIG    1      -26.168  83.736  36.674  0.00  0.00    +0.145 A 
ENDROOT
BRANCH   1   8
ATOM      7  C   LIG    1      -28.830  85.325  35.605  0.00  0.00    +0.285 C 
ATOM      8  N   LIG    1      -28.355  84.900  36.746  0.00  0.00    -0.196 NA
BRANCH   7   9
ATOM      9  O   LIG    1      -28.518  84.693  34.460  0.00  0.00    -0.481 OA
ATOM     10  H   LIG    1      -28.891  83.795  34.436  0.00  0.00    +0.295 HD
ENDBRANCH   7   9
BRANCH   7  11
ATOM     11  N   LIG    1      -29.637  86.384  35.359  0.00  0.00    -0.267 N 
ATOM     12  H   LIG    1      -29.997  86.909  36.162  0.00  0.00    +0.157 HD
BRANCH  11  13
ATOM     13  C   LIG    1      -29.919  87.083  34.165  0.00  0.00    +0.061 A 
ATOM     14  C   LIG    1      -29.309  88.338  33.903  0.00  0.00    +0.087 A 
ATOM     15  C   LIG    1      -29.629  89.056  32.741  0.00  0.00    +0.030 A 
ATOM     16  C   LIG    1      -30.565  88.550  31.837  0.00  0.00    +0.014 A 
ATOM     17  C   LIG    1      -31.216  87.338  32.096  0.00  0.00    +0.057 A 
ATOM     18  C   LIG    1      -30.889  86.628  33.260  0.00  0.00    +0.037 A 
BRANCH  14  19
ATOM     19  N   LIG    1      -28.365  88.899  34.817  0.00  0.00    -0.238 N 
ATOM     20  N   LIG    1      -27.200  88.250  35.132  0.00  0.00    -0.175 NA
ATOM     21  C   LIG    1      -26.584  89.071  35.986  0.00  0.00    +0.135 A 
ATOM     22  C   LIG    1      -27.359  90.193  36.311  0.00  0.00    +0.041 A 
ATOM     23  C   LIG    1      -28.486  90.072  35.535  0.00  0.00    +0.114 A 
ENDBRANCH  14  19
BRANCH  17  24
ATOM     24  C   LIG    1      -32.256  86.803  31.141  0.00  0.00    +0.417 C 
ATOM     25  F   LIG    1      -31.864  85.639  30.553  0.00  0.00    -0.166 F 
ATOM     26  F   LIG    1      -32.516  87.668  30.124  0.00  0.00    -0.166 F 
ATOM     27  F   LIG    1      -33.458  86.540  31.724  0.00  0.00    -0.166 F 
ENDBRANCH  17  24
ENDBRANCH  11  13
ENDBRANCH   7  11
ENDBRANCH   1   8
BRANCH   4  28
ATOM     28  O   LIG    1      -25.236  80.329  37.112  0.00  0.00    -0.424 OA
BRANCH  28  29
ATOM     29  C   LIG    1      -24.941  79.669  35.931  0.00  0.00    +0.132 A 
ATOM     30  C   LIG    1      -25.789  78.649  35.495  0.00  0.00    +0.047 A 
ATOM     31  C   LIG    1      -25.549  78.010  34.265  0.00  0.00    +0.013 A 
ATOM     32  C   LIG    1      -24.462  78.379  33.456  0.00  0.00    +0.001 A 
ATOM     33  C   LIG    1      -23.649  79.426  33.893  0.00  0.00    +0.013 A 
ATOM     34  C   LIG    1      -23.873  80.050  35.116  0.00  0.00    +0.047 A 
BRANCH  32  35
ATOM     35  C   LIG    1      -24.219  77.723  32.166  0.00  0.00    +0.073 A 
ATOM     36  N   LIG    1      -22.981  77.424  31.598  0.00  0.00    -0.299 N 
ATOM     37  C   LIG    1      -21.676  77.572  32.088  0.00  0.00    +0.093 A 
ATOM     38  C   LIG    1      -20.626  77.278  31.303  0.00  0.00    +0.018 A 
ATOM     39  C   LIG    1      -20.869  76.769  29.967  0.00  0.00    +0.005 A 
ATOM     40  C   LIG    1      -22.121  76.576  29.510  0.00  0.00    +0.047 A 
ATOM     41  C   LIG    1      -23.239  76.900  30.329  0.00  0.00    +0.138 A 
ATOM     42  N   LIG    1      -24.527  76.783  30.100  0.00  0.00    -0.235 NA
ATOM     43  C   LIG    1      -25.134  77.281  31.220  0.00  0.00    +0.139 A 
ENDBRANCH  32  35
ENDBRANCH  28  29
ENDBRANCH   4  28
TORSDOF 9
ENDMDL
MODEL 8
REMARK VINA RESULT:      -6.5      9.119     13.290
REMARK  Name = pdb/CHEMBL3955841.pdb
REMARK                            x       y       z     vdW  Elec       q    Type
REMARK                         _______ _______ _______ _____ _____    ______ ____
ROOT
ATOM      1  C   LIG    1      -37.153  82.317  27.489  0.00  0.00    +0.105 A 
ATOM      2  C   LIG    1      -37.200  83.164  28.594  0.00  0.00    +0.145 A 
ATOM      3  N   LIG    1      -36.708  84.435  28.634  0.00  0.00    -0.201 NA
ATOM      4  C   LIG    1      -36.145  84.874  27.495  0.00  0.00    +0.323 A 
ATOM      5  N   LIG    1      -36.039  84.149  26.369  0.00  0.00    -0.201 NA
ATOM      6  C   LIG    1      -36.502  82.889  26.415  0.00  0.00    +0.145 A 
ENDROOT
BRANCH   1   8
ATOM      7  C   LIG    1      -36.888  79.958  27.590  0.00  0.00    +0.285 C 
ATOM      8  N   LIG    1      -37.662  81.010  27.540  0.00  0.00    -0.196 NA
BRANCH   7   9
ATOM      9  O   LIG    1      -35.550  80.094  27.561  0.00  0.00    -0.481 OA
ATOM     10  H   LIG    1      -35.179  79.780  26.718  0.00  0.00    +0.295 HD
ENDBRANCH   7   9
BRANCH   7  11
ATOM     11  N   LIG    1      -37.232  78.650  27.660  0.00  0.00    -0.267 N 
ATOM     12  H   LIG    1      -37.388  78.244  28.587  0.00  0.00    +0.157 HD
BRANCH  11  13
ATOM     13  C   LIG    1      -37.658  77.744  26.664  0.00  0.00    +0.061 A 
ATOM     14  C   LIG    1      -36.892  76.587  26.365  0.00  0.00    +0.087 A 
ATOM     15  C   LIG    1      -37.289  75.715  25.341  0.00  0.00    +0.030 A 
ATOM     16  C   LIG    1      -38.436  75.987  24.591  0.00  0.00    +0.014 A 
ATOM     17  C   LIG    1      -39.182  77.146  24.833  0.00  0.00    +0.057 A 
ATOM     18  C   LIG    1      -38.777  78.011  25.861  0.00  0.00    +0.037 A 
BRANCH  14  19
ATOM     19  N   LIG    1      -35.700  76.289  27.094  0.00  0.00    -0.238 N 
ATOM     20  N   LIG    1      -34.601  77.105  27.035  0.00  0.00    -0.175 NA
ATOM     21  C   LIG    1      -33.710  76.520  27.840  0.00  0.00    +0.135 A 
ATOM     22  C   LIG    1      -34.162  75.294  28.346  0.00  0.00    +0.041 A 
ATOM     23  C   LIG    1      -35.447  75.177  27.872  0.00  0.00    +0.114 A 
ENDBRANCH  14  19
BRANCH  17  24
ATOM     24  C   LIG    1      -40.402  77.464  24.003  0.00  0.00    +0.417 C 
ATOM     25  F   LIG    1      -41.499  77.707  24.772  0.00  0.00    -0.166 F 
ATOM     26  F   LIG    1      -40.743  76.441  23.175  0.00  0.00    -0.166 F 
ATOM     27  F   LIG    1      -40.256  78.558  23.204  0.00  0.00    -0.166 F 
ENDBRANCH  17  24
ENDBRANCH  11  13
ENDBRANCH   7  11
ENDBRANCH   1   8
BRANCH   4  28
ATOM     28  O   LIG    1      -35.647  86.177  27.479  0.00  0.00    -0.424 OA
BRANCH  28  29
ATOM     29  C   LIG    1      -34.516  86.421  28.239  0.00  0.00    +0.132 A 
ATOM     30  C   LIG    1      -34.192  87.739  28.567  0.00  0.00    +0.047 A 
ATOM     31  C   LIG    1      -33.086  88.008  29.394  0.00  0.00    +0.013 A 
ATOM     32  C   LIG    1      -32.290  86.969  29.903  0.00  0.00    +0.001 A 
ATOM     33  C   LIG    1      -32.654  85.658  29.593  0.00  0.00    +0.013 A 
ATOM     34  C   LIG    1      -33.737  85.388  28.762  0.00  0.00    +0.047 A 
BRANCH  32  35
ATOM     35  C   LIG    1      -31.146  87.247  30.777  0.00  0.00    +0.073 A 
ATOM     36  N   LIG    1      -31.130  87.218  32.172  0.00  0.00    -0.299 N 
ATOM     37  C   LIG    1      -32.114  86.857  33.102  0.00  0.00    +0.093 A 
ATOM     38  C   LIG    1      -31.875  86.991  34.417  0.00  0.00    +0.018 A 
ATOM     39  C   LIG    1      -30.578  87.473  34.851  0.00  0.00    +0.005 A 
ATOM     40  C   LIG    1      -29.612  87.772  33.962  0.00  0.00    +0.047 A 
ATOM     41  C   LIG    1      -29.861  87.648  32.566  0.00  0.00    +0.138 A 
ATOM     42  N   LIG    1      -29.075  87.866  31.536  0.00  0.00    -0.235 NA
ATOM     43  C   LIG    1      -29.853  87.620  30.438  0.00  0.00    +0.139 A 
ENDBRANCH  32  35
ENDBRANCH  28  29
ENDBRANCH   4  28
TORSDOF 9
ENDMDL
MODEL 9
REMARK VINA RESULT:      -6.5     15.592     19.047
REMARK  Name = pdb/CHEMBL3955841.pdb
REMARK                            x       y       z     vdW  Elec       q    Type
REMARK                         _______ _______ _______ _____ _____    ______ ____
ROOT
ATOM      1  C   LIG    1      -22.489  83.998  14.923  0.00  0.00    +0.105 A 
ATOM      2  C   LIG    1      -22.568  83.536  16.234  0.00  0.00    +0.145 A 
ATOM      3  N   LIG    1      -22.605  82.224  16.606  0.00  0.00    -0.201 NA
ATOM      4  C   LIG    1      -22.556  81.335  15.598  0.00  0.00    +0.323 A 
ATOM      5  N   LIG    1      -22.482  81.662  14.298  0.00  0.00    -0.201 NA
ATOM      6  C   LIG    1      -22.496  82.971  14.001  0.00  0.00    +0.145 A 
ENDROOT
BRANCH   1   8
ATOM      7  C   LIG    1      -21.392  86.004  14.273  0.00  0.00    +0.285 C 
ATOM      8  N   LIG    1      -22.480  85.370  14.624  0.00  0.00    -0.196 NA
BRANCH   7   9
ATOM      9  O   LIG    1      -20.215  85.356  14.218  0.00  0.00    -0.481 OA
ATOM     10  H   LIG    1      -20.316  84.465  13.841  0.00  0.00    +0.295 HD
ENDBRANCH   7   9
BRANCH   7  11
ATOM     11  N   LIG    1      -21.235  87.307  13.941  0.00  0.00    -0.267 N 
ATOM     12  H   LIG    1      -20.632  87.884  14.535  0.00  0.00    +0.157 HD
BRANCH  11  13
ATOM     13  C   LIG    1      -21.565  88.015  12.765  0.00  0.00    +0.061 A 
ATOM     14  C   LIG    1      -20.644  88.096  11.688  0.00  0.00    +0.087 A 
ATOM     15  C   LIG    1      -20.952  88.843  10.541  0.00  0.00    +0.030 A 
ATOM     16  C   LIG    1      -22.166  89.528  10.454  0.00  0.00    +0.014 A 
ATOM     17  C   LIG    1      -23.071  89.504  11.521  0.00  0.00    +0.057 A 
ATOM     18  C   LIG    1      -22.754  88.754  12.663  0.00  0.00    +0.037 A 
BRANCH  14  19
ATOM     19  N   LIG    1      -19.382  87.429  11.751  0.00  0.00    -0.238 N 
ATOM     20  N   LIG    1      -18.504  87.651  12.780  0.00  0.00    -0.175 NA
ATOM     21  C   LIG    1      -17.466  86.857  12.507  0.00  0.00    +0.135 A 
ATOM     22  C   LIG    1      -17.600  86.195  11.279  0.00  0.00    +0.041 A 
ATOM     23  C   LIG    1      -18.844  86.560  10.823  0.00  0.00    +0.114 A 
ENDBRANCH  14  19
BRANCH  17  24
ATOM     24  C   LIG    1      -24.369  90.271  11.448  0.00  0.00    +0.417 C 
ATOM     25  F   LIG    1      -25.223  89.754  10.522  0.00  0.00    -0.166 F 
ATOM     26  F   LIG    1      -24.179  91.572  11.098  0.00  0.00    -0.166 F 
ATOM     27  F   LIG    1      -25.061  90.299  12.621  0.00  0.00    -0.166 F 
ENDBRANCH  17  24
ENDBRANCH  11  13
ENDBRANCH   7  11
ENDBRANCH   1   8
BRANCH   4  28
ATOM     28  O   LIG    1      -22.568  79.980  15.929  0.00  0.00    -0.424 OA
BRANCH  28  29
ATOM     29  C   LIG    1      -23.577  79.212  15.373  0.00  0.00    +0.132 A 
ATOM     30  C   LIG    1      -24.907  79.564  15.615  0.00  0.00    +0.047 A 
ATOM     31  C   LIG    1      -25.949  78.840  15.006  0.00  0.00    +0.013 A 
ATOM     32  C   LIG    1      -25.679  77.760  14.151  0.00  0.00    +0.001 A 
ATOM     33  C   LIG    1      -24.343  77.450  13.893  0.00  0.00    +0.013 A 
ATOM     34  C   LIG    1      -23.310  78.152  14.505  0.00  0.00    +0.047 A 
BRANCH  32  35
ATOM     35  C   LIG    1      -26.765  77.015  13.504  0.00  0.00    +0.073 A 
ATOM     36  N   LIG    1      -27.578  77.456  12.460  0.00  0.00    -0.299 N 
ATOM     37  C   LIG    1      -27.558  78.635  11.704  0.00  0.00    +0.093 A 
ATOM     38  C   LIG    1      -28.515  78.864  10.790  0.00  0.00    +0.018 A 
ATOM     39  C   LIG    1      -29.536  77.857  10.575  0.00  0.00    +0.005 A 
ATOM     40  C   LIG    1      -29.530  76.699  11.262  0.00  0.00    +0.047 A 
ATOM     41  C   LIG    1      -28.529  76.456  12.244  0.00  0.00    +0.138 A 
ATOM     42  N   LIG    1      -28.323  75.410  13.012  0.00  0.00    -0.235 NA
ATOM     43  C   LIG    1      -27.243  75.742  13.783  0.00  0.00    +0.139 A 
ENDBRANCH  32  35
ENDBRANCH  28  29
ENDBRANCH   4  28
TORSDOF 9
ENDMDL
