MODEL 1
REMARK VINA RESULT:      -6.8      0.000      0.000
REMARK  Name = pdb/CHEMBL3961601.pdb
REMARK                            x       y       z     vdW  Elec       q    Type
REMARK                         _______ _______ _______ _____ _____    ______ ____
ROOT
ATOM      1  C   LIG    1      -34.666  79.962  28.033  0.00  0.00    +0.131 A 
ATOM      2  C   LIG    1      -35.989  79.550  28.085  0.00  0.00    +0.183 A 
ATOM      3  N   LIG    1      -36.853  78.985  27.180  0.00  0.00    -0.211 NA
ATOM      4  C   LIG    1      -38.106  78.797  27.541  0.00  0.00    +0.126 A 
ATOM      5  C   LIG    1      -38.591  79.166  28.929  0.00  0.00    +0.063 A 
ATOM      6  C   LIG    1      -37.721  79.717  29.762  0.00  0.00    +0.118 A 
ATOM      7  N   LIG    1      -36.408  79.918  29.371  0.00  0.00    -0.220 N 
ATOM      8  N   LIG    1      -35.429  80.506  30.104  0.00  0.00    -0.171 NA
ATOM      9  C   LIG    1      -34.369  80.488  29.299  0.00  0.00    +0.165 A 
ENDROOT
BRANCH   4  10
ATOM     10  N   LIG    1      -39.022  78.254  26.644  0.00  0.00    -0.308 N 
ATOM     11  C   LIG    1      -39.783  77.032  26.978  0.00  0.00    +0.108 C 
ATOM     12  C   LIG    1      -41.235  77.332  26.563  0.00  0.00    +0.029 C 
ATOM     13  C   LIG    1      -41.257  78.820  26.245  0.00  0.00    +0.021 C 
ATOM     14  C   LIG    1      -39.842  79.094  25.769  0.00  0.00    +0.107 C 
BRANCH  11  15
ATOM     15  C   LIG    1      -39.238  75.811  26.268  0.00  0.00    +0.011 A 
ATOM     16  C   LIG    1      -38.099  75.170  26.771  0.00  0.00    +0.129 A 
ATOM     17  F   LIG    1      -37.485  75.664  27.855  0.00  0.00    -0.205 F 
ATOM     18  C   LIG    1      -37.580  74.020  26.175  0.00  0.00    +0.041 A 
ATOM     19  C   LIG    1      -38.210  73.479  25.057  0.00  0.00    +0.041 A 
ATOM     20  C   LIG    1      -39.344  74.100  24.548  0.00  0.00    +0.124 A 
ATOM     21  F   LIG    1      -39.960  73.577  23.480  0.00  0.00    -0.205 F 
ATOM     22  C   LIG    1      -39.856  75.254  25.136  0.00  0.00    +0.046 A 
ENDBRANCH  11  15
ENDBRANCH   4  10
BRANCH   1  24
ATOM     23  C   LIG    1      -33.082  78.821  26.790  0.00  0.00    +0.239 C 
ATOM     24  N   LIG    1      -33.722  79.931  27.013  0.00  0.00    -0.206 NA
BRANCH  23  28
ATOM     25  C   LIG    1      -30.899  75.945  30.069  0.00  0.00    +0.065 C 
ATOM     26  C   LIG    1      -31.990  76.146  29.055  0.00  0.00    +0.039 A 
ATOM     27  N   LIG    1      -32.031  77.322  28.374  0.00  0.00    -0.247 NA
ATOM     28  C   LIG    1      -33.052  77.486  27.475  0.00  0.00    +0.125 A 
ATOM     29  C   LIG    1      -33.944  76.471  27.172  0.00  0.00    +0.033 A 
ATOM     30  C   LIG    1      -33.897  75.289  27.892  0.00  0.00    +0.004 A 
ATOM     31  C   LIG    1      -32.916  75.125  28.858  0.00  0.00    +0.023 A 
ENDBRANCH  23  28
BRANCH  23  32
ATOM     32  O   LIG    1      -32.304  78.783  25.675  0.00  0.00    -0.491 OA
ATOM     33  H   LIG    1      -32.440  79.581  25.132  0.00  0.00    +0.294 HD
ENDBRANCH  23  32
ENDBRANCH   1  24
TORSDOF 5
ENDMDL
MODEL 2
REMARK VINA RESULT:      -6.6      2.555      6.918
REMARK  Name = pdb/CHEMBL3961601.pdb
REMARK                            x       y       z     vdW  Elec       q    Type
REMARK                         _______ _______ _______ _____ _____    ______ ____
ROOT
ATOM      1  C   LIG    1      -38.901  78.337  26.565  0.00  0.00    +0.131 A 
ATOM      2  C   LIG    1      -37.840  78.190  27.444  0.00  0.00    +0.183 A 
ATOM      3  N   LIG    1      -36.476  78.298  27.328  0.00  0.00    -0.211 NA
ATOM      4  C   LIG    1      -35.731  77.993  28.371  0.00  0.00    +0.126 A 
ATOM      5  C   LIG    1      -36.350  77.558  29.684  0.00  0.00    +0.063 A 
ATOM      6  C   LIG    1      -37.670  77.460  29.742  0.00  0.00    +0.118 A 
ATOM      7  N   LIG    1      -38.445  77.774  28.638  0.00  0.00    -0.220 N 
ATOM      8  N   LIG    1      -39.796  77.679  28.548  0.00  0.00    -0.171 NA
ATOM      9  C   LIG    1      -40.063  78.063  27.302  0.00  0.00    +0.165 A 
ENDROOT
BRANCH   4  10
ATOM     10  N   LIG    1      -34.342  78.062  28.286  0.00  0.00    -0.308 N 
ATOM     11  C   LIG    1      -33.578  77.076  27.494  0.00  0.00    +0.108 C 
ATOM     12  C   LIG    1      -32.559  77.904  26.690  0.00  0.00    +0.029 C 
ATOM     13  C   LIG    1      -32.981  79.353  26.888  0.00  0.00    +0.021 C 
ATOM     14  C   LIG    1      -33.630  79.341  28.260  0.00  0.00    +0.107 C 
BRANCH  11  15
ATOM     15  C   LIG    1      -32.895  76.048  28.373  0.00  0.00    +0.011 A 
ATOM     16  C   LIG    1      -33.393  74.739  28.418  0.00  0.00    +0.129 A 
ATOM     17  F   LIG    1      -34.485  74.421  27.710  0.00  0.00    -0.205 F 
ATOM     18  C   LIG    1      -32.778  73.746  29.182  0.00  0.00    +0.041 A 
ATOM     19  C   LIG    1      -31.632  74.049  29.913  0.00  0.00    +0.041 A 
ATOM     20  C   LIG    1      -31.123  75.341  29.874  0.00  0.00    +0.124 A 
ATOM     21  F   LIG    1      -30.014  75.636  30.566  0.00  0.00    -0.205 F 
ATOM     22  C   LIG    1      -31.742  76.336  29.121  0.00  0.00    +0.046 A 
ENDBRANCH  11  15
ENDBRANCH   4  10
BRANCH   1  24
ATOM     23  C   LIG    1      -39.060  77.719  24.340  0.00  0.00    +0.239 C 
ATOM     24  N   LIG    1      -38.952  78.674  25.216  0.00  0.00    -0.206 NA
BRANCH  23  28
ATOM     25  C   LIG    1      -41.488  73.563  23.556  0.00  0.00    +0.065 C 
ATOM     26  C   LIG    1      -40.245  74.258  24.034  0.00  0.00    +0.039 A 
ATOM     27  N   LIG    1      -40.215  75.617  24.014  0.00  0.00    -0.247 NA
ATOM     28  C   LIG    1      -39.059  76.222  24.432  0.00  0.00    +0.125 A 
ATOM     29  C   LIG    1      -37.997  75.507  24.962  0.00  0.00    +0.033 A 
ATOM     30  C   LIG    1      -38.041  74.123  24.954  0.00  0.00    +0.004 A 
ATOM     31  C   LIG    1      -39.173  73.485  24.471  0.00  0.00    +0.023 A 
ENDBRANCH  23  28
BRANCH  23  32
ATOM     32  O   LIG    1      -39.287  78.100  23.054  0.00  0.00    -0.491 OA
ATOM     33  H   LIG    1      -38.775  77.547  22.435  0.00  0.00    +0.294 HD
ENDBRANCH  23  32
ENDBRANCH   1  24
TORSDOF 5
ENDMDL
MODEL 3
REMARK VINA RESULT:      -6.5      1.721      3.016
REMARK  Name = pdb/CHEMBL3961601.pdb
REMARK                            x       y       z     vdW  Elec       q    Type
REMARK                         _______ _______ _______ _____ _____    ______ ____
ROOT
ATOM      1  C   LIG    1      -34.674  79.852  27.973  0.00  0.00    +0.131 A 
ATOM      2  C   LIG    1      -35.913  79.233  28.041  0.00  0.00    +0.183 A 
ATOM      3  N   LIG    1      -36.632  78.431  27.190  0.00  0.00    -0.211 NA
ATOM      4  C   LIG    1      -37.854  78.081  27.540  0.00  0.00    +0.126 A 
ATOM      5  C   LIG    1      -38.455  78.523  28.859  0.00  0.00    +0.063 A 
ATOM      6  C   LIG    1      -37.724  79.304  29.641  0.00  0.00    +0.118 A 
ATOM      7  N   LIG    1      -36.444  79.674  29.261  0.00  0.00    -0.220 N 
ATOM      8  N   LIG    1      -35.609  80.498  29.942  0.00  0.00    -0.171 NA
ATOM      9  C   LIG    1      -34.524  80.564  29.173  0.00  0.00    +0.165 A 
ENDROOT
BRANCH   4  10
ATOM     10  N   LIG    1      -38.628  77.291  26.693  0.00  0.00    -0.308 N 
ATOM     11  C   LIG    1      -38.661  77.542  25.237  0.00  0.00    +0.108 C 
ATOM     12  C   LIG    1      -38.520  76.156  24.583  0.00  0.00    +0.029 C 
ATOM     13  C   LIG    1      -38.158  75.215  25.723  0.00  0.00    +0.021 C 
ATOM     14  C   LIG    1      -38.819  75.859  26.928  0.00  0.00    +0.107 C 
BRANCH  11  15
ATOM     15  C   LIG    1      -39.938  78.237  24.809  0.00  0.00    +0.011 A 
ATOM     16  C   LIG    1      -40.044  79.627  24.940  0.00  0.00    +0.129 A 
ATOM     17  F   LIG    1      -39.031  80.322  25.473  0.00  0.00    -0.205 F 
ATOM     18  C   LIG    1      -41.184  80.318  24.526  0.00  0.00    +0.041 A 
ATOM     19  C   LIG    1      -42.244  79.618  23.954  0.00  0.00    +0.041 A 
ATOM     20  C   LIG    1      -42.151  78.239  23.812  0.00  0.00    +0.124 A 
ATOM     21  F   LIG    1      -43.163  77.563  23.253  0.00  0.00    -0.205 F 
ATOM     22  C   LIG    1      -41.019  77.548  24.236  0.00  0.00    +0.046 A 
ENDBRANCH  11  15
ENDBRANCH   4  10
BRANCH   1  24
ATOM     23  C   LIG    1      -32.996  78.777  26.795  0.00  0.00    +0.239 C 
ATOM     24  N   LIG    1      -33.692  79.859  26.989  0.00  0.00    -0.206 NA
BRANCH  23  28
ATOM     25  C   LIG    1      -30.827  76.015  30.179  0.00  0.00    +0.065 C 
ATOM     26  C   LIG    1      -31.880  76.161  29.117  0.00  0.00    +0.039 A 
ATOM     27  N   LIG    1      -31.947  77.333  28.430  0.00  0.00    -0.247 NA
ATOM     28  C   LIG    1      -32.933  77.447  27.486  0.00  0.00    +0.125 A 
ATOM     29  C   LIG    1      -33.763  76.390  27.148  0.00  0.00    +0.033 A 
ATOM     30  C   LIG    1      -33.691  75.213  27.875  0.00  0.00    +0.004 A 
ATOM     31  C   LIG    1      -32.747  75.098  28.884  0.00  0.00    +0.023 A 
ENDBRANCH  23  28
BRANCH  23  32
ATOM     32  O   LIG    1      -32.176  78.771  25.710  0.00  0.00    -0.491 OA
ATOM     33  H   LIG    1      -31.241  78.722  25.984  0.00  0.00    +0.294 HD
ENDBRANCH  23  32
ENDBRANCH   1  24
TORSDOF 5
ENDMDL
MODEL 4
REMARK VINA RESULT:      -6.3      1.879      3.122
REMARK  Name = pdb/CHEMBL3961601.pdb
REMARK                            x       y       z     vdW  Elec       q    Type
REMARK                         _______ _______ _______ _____ _____    ______ ____
ROOT
ATOM      1  C   LIG    1      -34.823  78.530  27.969  0.00  0.00    +0.131 A 
ATOM      2  C   LIG    1      -35.952  77.733  28.079  0.00  0.00    +0.183 A 
ATOM      3  N   LIG    1      -36.477  76.706  27.333  0.00  0.00    -0.211 NA
ATOM      4  C   LIG    1      -37.649  76.215  27.679  0.00  0.00    +0.126 A 
ATOM      5  C   LIG    1      -38.401  76.741  28.886  0.00  0.00    +0.063 A 
ATOM      6  C   LIG    1      -37.856  77.738  29.567  0.00  0.00    +0.118 A 
ATOM      7  N   LIG    1      -36.627  78.254  29.191  0.00  0.00    -0.220 N 
ATOM      8  N   LIG    1      -35.979  79.295  29.771  0.00  0.00    -0.171 NA
ATOM      9  C   LIG    1      -34.868  79.425  29.049  0.00  0.00    +0.165 A 
ENDROOT
BRANCH   4  10
ATOM     10  N   LIG    1      -38.231  75.193  26.932  0.00  0.00    -0.308 N 
ATOM     11  C   LIG    1      -38.000  75.087  25.477  0.00  0.00    +0.108 C 
ATOM     12  C   LIG    1      -37.703  73.598  25.221  0.00  0.00    +0.029 C 
ATOM     13  C   LIG    1      -37.534  72.984  26.604  0.00  0.00    +0.021 C 
ATOM     14  C   LIG    1      -38.425  73.848  27.478  0.00  0.00    +0.107 C 
BRANCH  11  15
ATOM     15  C   LIG    1      -39.192  75.566  24.675  0.00  0.00    +0.011 A 
ATOM     16  C   LIG    1      -39.274  76.913  24.298  0.00  0.00    +0.129 A 
ATOM     17  F   LIG    1      -38.315  77.767  24.679  0.00  0.00    -0.205 F 
ATOM     18  C   LIG    1      -40.333  77.396  23.527  0.00  0.00    +0.041 A 
ATOM     19  C   LIG    1      -41.333  76.523  23.106  0.00  0.00    +0.041 A 
ATOM     20  C   LIG    1      -41.263  75.183  23.468  0.00  0.00    +0.124 A 
ATOM     21  F   LIG    1      -42.217  74.337  23.056  0.00  0.00    -0.205 F 
ATOM     22  C   LIG    1      -40.214  74.702  24.246  0.00  0.00    +0.046 A 
ENDBRANCH  11  15
ENDBRANCH   4  10
BRANCH   1  24
ATOM     23  C   LIG    1      -32.915  77.591  27.054  0.00  0.00    +0.239 C 
ATOM     24  N   LIG    1      -33.789  78.555  27.039  0.00  0.00    -0.206 NA
BRANCH  23  28
ATOM     25  C   LIG    1      -34.075  72.983  28.148  0.00  0.00    +0.065 C 
ATOM     26  C   LIG    1      -33.258  74.209  28.440  0.00  0.00    +0.039 A 
ATOM     27  N   LIG    1      -33.463  75.319  27.681  0.00  0.00    -0.247 NA
ATOM     28  C   LIG    1      -32.685  76.414  27.953  0.00  0.00    +0.125 A 
ATOM     29  C   LIG    1      -31.804  76.450  29.022  0.00  0.00    +0.033 A 
ATOM     30  C   LIG    1      -31.596  75.302  29.768  0.00  0.00    +0.004 A 
ATOM     31  C   LIG    1      -32.320  74.159  29.468  0.00  0.00    +0.023 A 
ENDBRANCH  23  28
BRANCH  23  32
ATOM     32  O   LIG    1      -32.032  77.560  26.020  0.00  0.00    -0.491 OA
ATOM     33  H   LIG    1      -31.114  77.556  26.350  0.00  0.00    +0.294 HD
ENDBRANCH  23  32
ENDBRANCH   1  24
TORSDOF 5
ENDMDL
MODEL 5
REMARK VINA RESULT:      -6.2      1.997      2.872
REMARK  Name = pdb/CHEMBL3961601.pdb
REMARK                            x       y       z     vdW  Elec       q    Type
REMARK                         _______ _______ _______ _____ _____    ______ ____
ROOT
ATOM      1  C   LIG    1      -35.126  78.188  28.043  0.00  0.00    +0.131 A 
ATOM      2  C   LIG    1      -36.319  77.645  27.593  0.00  0.00    +0.183 A 
ATOM      3  N   LIG    1      -36.779  77.220  26.371  0.00  0.00    -0.211 NA
ATOM      4  C   LIG    1      -38.034  76.832  26.272  0.00  0.00    +0.126 A 
ATOM      5  C   LIG    1      -38.954  76.822  27.477  0.00  0.00    +0.063 A 
ATOM      6  C   LIG    1      -38.466  77.250  28.631  0.00  0.00    +0.118 A 
ATOM      7  N   LIG    1      -37.148  77.665  28.724  0.00  0.00    -0.220 N 
ATOM      8  N   LIG    1      -36.535  78.163  29.827  0.00  0.00    -0.171 NA
ATOM      9  C   LIG    1      -35.299  78.435  29.414  0.00  0.00    +0.165 A 
ENDROOT
BRANCH   4  10
ATOM     10  N   LIG    1      -38.548  76.421  25.045  0.00  0.00    -0.308 N 
ATOM     11  C   LIG    1      -39.791  75.626  24.968  0.00  0.00    +0.108 C 
ATOM     12  C   LIG    1      -40.618  76.274  23.842  0.00  0.00    +0.029 C 
ATOM     13  C   LIG    1      -39.891  77.571  23.514  0.00  0.00    +0.021 C 
ATOM     14  C   LIG    1      -38.445  77.252  23.844  0.00  0.00    +0.107 C 
BRANCH  11  15
ATOM     15  C   LIG    1      -39.514  74.163  24.688  0.00  0.00    +0.011 A 
ATOM     16  C   LIG    1      -40.519  73.366  24.125  0.00  0.00    +0.129 A 
ATOM     17  F   LIG    1      -41.723  73.898  23.872  0.00  0.00    -0.205 F 
ATOM     18  C   LIG    1      -40.302  72.023  23.814  0.00  0.00    +0.041 A 
ATOM     19  C   LIG    1      -39.054  71.453  24.053  0.00  0.00    +0.041 A 
ATOM     20  C   LIG    1      -38.046  72.232  24.605  0.00  0.00    +0.124 A 
ATOM     21  F   LIG    1      -36.840  71.692  24.827  0.00  0.00    -0.205 F 
ATOM     22  C   LIG    1      -38.264  73.569  24.927  0.00  0.00    +0.046 A 
ENDBRANCH  11  15
ENDBRANCH   4  10
BRANCH   1  24
ATOM     23  C   LIG    1      -32.963  77.622  27.442  0.00  0.00    +0.239 C 
ATOM     24  N   LIG    1      -33.935  78.485  27.390  0.00  0.00    -0.206 NA
BRANCH  23  28
ATOM     25  C   LIG    1      -34.309  72.957  27.902  0.00  0.00    +0.065 C 
ATOM     26  C   LIG    1      -33.433  74.094  28.345  0.00  0.00    +0.039 A 
ATOM     27  N   LIG    1      -33.602  75.308  27.755  0.00  0.00    -0.247 NA
ATOM     28  C   LIG    1      -32.771  76.320  28.161  0.00  0.00    +0.125 A 
ATOM     29  C   LIG    1      -31.872  76.168  29.204  0.00  0.00    +0.033 A 
ATOM     30  C   LIG    1      -31.702  74.918  29.776  0.00  0.00    +0.004 A 
ATOM     31  C   LIG    1      -32.482  73.860  29.334  0.00  0.00    +0.023 A 
ENDBRANCH  23  28
BRANCH  23  32
ATOM     32  O   LIG    1      -31.890  77.869  26.645  0.00  0.00    -0.491 OA
ATOM     33  H   LIG    1      -31.059  77.648  27.107  0.00  0.00    +0.294 HD
ENDBRANCH  23  32
ENDBRANCH   1  24
TORSDOF 5
ENDMDL
MODEL 6
REMARK VINA RESULT:      -6.1     12.046     15.937
REMARK  Name = pdb/CHEMBL3961601.pdb
REMARK                            x       y       z     vdW  Elec       q    Type
REMARK                         _______ _______ _______ _____ _____    ______ ____
ROOT
ATOM      1  C   LIG    1      -26.348  77.097  32.699  0.00  0.00    +0.131 A 
ATOM      2  C   LIG    1      -25.810  77.511  33.907  0.00  0.00    +0.183 A 
ATOM      3  N   LIG    1      -24.899  78.471  34.272  0.00  0.00    -0.211 NA
ATOM      4  C   LIG    1      -24.532  78.540  35.536  0.00  0.00    +0.126 A 
ATOM      5  C   LIG    1      -25.113  77.606  36.579  0.00  0.00    +0.063 A 
ATOM      6  C   LIG    1      -25.981  76.691  36.175  0.00  0.00    +0.118 A 
ATOM      7  N   LIG    1      -26.355  76.620  34.843  0.00  0.00    -0.220 N 
ATOM      8  N   LIG    1      -27.197  75.712  34.289  0.00  0.00    -0.171 NA
ATOM      9  C   LIG    1      -27.218  76.038  32.998  0.00  0.00    +0.165 A 
ENDROOT
BRANCH   4  10
ATOM     10  N   LIG    1      -23.589  79.480  35.943  0.00  0.00    -0.308 N 
ATOM     11  C   LIG    1      -22.750  80.193  34.958  0.00  0.00    +0.108 C 
ATOM     12  C   LIG    1      -22.778  81.670  35.395  0.00  0.00    +0.029 C 
ATOM     13  C   LIG    1      -23.851  81.744  36.472  0.00  0.00    +0.021 C 
ATOM     14  C   LIG    1      -23.817  80.359  37.092  0.00  0.00    +0.107 C 
BRANCH  11  15
ATOM     15  C   LIG    1      -21.337  79.649  34.915  0.00  0.00    +0.011 A 
ATOM     16  C   LIG    1      -20.942  78.840  33.842  0.00  0.00    +0.129 A 
ATOM     17  F   LIG    1      -21.827  78.530  32.885  0.00  0.00    -0.205 F 
ATOM     18  C   LIG    1      -19.641  78.345  33.736  0.00  0.00    +0.041 A 
ATOM     19  C   LIG    1      -18.700  78.667  34.711  0.00  0.00    +0.041 A 
ATOM     20  C   LIG    1      -19.075  79.473  35.778  0.00  0.00    +0.124 A 
ATOM     21  F   LIG    1      -18.170  79.795  36.712  0.00  0.00    -0.205 F 
ATOM     22  C   LIG    1      -20.375  79.958  35.891  0.00  0.00    +0.046 A 
ENDBRANCH  11  15
ENDBRANCH   4  10
BRANCH   1  24
ATOM     23  C   LIG    1      -25.134  77.087  30.728  0.00  0.00    +0.239 C 
ATOM     24  N   LIG    1      -26.155  77.540  31.394  0.00  0.00    -0.206 NA
BRANCH  23  28
ATOM     25  C   LIG    1      -20.316  76.358  30.513  0.00  0.00    +0.065 C 
ATOM     26  C   LIG    1      -21.671  75.892  30.966  0.00  0.00    +0.039 A 
ATOM     27  N   LIG    1      -22.758  76.637  30.631  0.00  0.00    -0.247 NA
ATOM     28  C   LIG    1      -23.976  76.201  31.080  0.00  0.00    +0.125 A 
ATOM     29  C   LIG    1      -24.133  74.998  31.748  0.00  0.00    +0.033 A 
ATOM     30  C   LIG    1      -23.011  74.264  32.097  0.00  0.00    +0.004 A 
ATOM     31  C   LIG    1      -21.759  74.721  31.715  0.00  0.00    +0.023 A 
ENDBRANCH  23  28
BRANCH  23  32
ATOM     32  O   LIG    1      -25.084  77.404  29.407  0.00  0.00    -0.491 OA
ATOM     33  H   LIG    1      -24.432  76.847  28.942  0.00  0.00    +0.294 HD
ENDBRANCH  23  32
ENDBRANCH   1  24
TORSDOF 5
ENDMDL
MODEL 7
REMARK VINA RESULT:      -6.1      1.601      2.058
REMARK  Name = pdb/CHEMBL3961601.pdb
REMARK                            x       y       z     vdW  Elec       q    Type
REMARK                         _______ _______ _______ _____ _____    ______ ____
ROOT
ATOM      1  C   LIG    1      -34.972  79.048  28.008  0.00  0.00    +0.131 A 
ATOM      2  C   LIG    1      -36.097  78.283  27.743  0.00  0.00    +0.183 A 
ATOM      3  N   LIG    1      -36.469  77.448  26.718  0.00  0.00    -0.211 NA
ATOM      4  C   LIG    1      -37.683  76.936  26.735  0.00  0.00    +0.126 A 
ATOM      5  C   LIG    1      -38.649  77.231  27.866  0.00  0.00    +0.063 A 
ATOM      6  C   LIG    1      -38.246  78.050  28.826  0.00  0.00    +0.118 A 
ATOM      7  N   LIG    1      -36.971  78.590  28.795  0.00  0.00    -0.220 N 
ATOM      8  N   LIG    1      -36.447  79.470  29.686  0.00  0.00    -0.171 NA
ATOM      9  C   LIG    1      -35.221  79.706  29.222  0.00  0.00    +0.165 A 
ENDROOT
BRANCH   4  10
ATOM     10  N   LIG    1      -38.111  76.108  25.701  0.00  0.00    -0.308 N 
ATOM     11  C   LIG    1      -38.912  74.897  25.976  0.00  0.00    +0.108 C 
ATOM     12  C   LIG    1      -40.051  74.920  24.940  0.00  0.00    +0.029 C 
ATOM     13  C   LIG    1      -39.968  76.295  24.291  0.00  0.00    +0.021 C 
ATOM     14  C   LIG    1      -38.493  76.638  24.391  0.00  0.00    +0.107 C 
BRANCH  11  15
ATOM     15  C   LIG    1      -38.086  73.632  25.873  0.00  0.00    +0.011 A 
ATOM     16  C   LIG    1      -37.308  73.225  26.964  0.00  0.00    +0.129 A 
ATOM     17  F   LIG    1      -37.277  73.976  28.073  0.00  0.00    -0.205 F 
ATOM     18  C   LIG    1      -36.558  72.048  26.932  0.00  0.00    +0.041 A 
ATOM     19  C   LIG    1      -36.588  71.243  25.796  0.00  0.00    +0.041 A 
ATOM     20  C   LIG    1      -37.359  71.630  24.708  0.00  0.00    +0.124 A 
ATOM     21  F   LIG    1      -37.400  70.854  23.617  0.00  0.00    -0.205 F 
ATOM     22  C   LIG    1      -38.098  72.810  24.734  0.00  0.00    +0.046 A 
ENDBRANCH  11  15
ENDBRANCH   4  10
BRANCH   1  24
ATOM     23  C   LIG    1      -32.934  78.241  27.262  0.00  0.00    +0.239 C 
ATOM     24  N   LIG    1      -33.783  79.226  27.309  0.00  0.00    -0.206 NA
BRANCH  23  28
ATOM     25  C   LIG    1      -30.986  75.404  30.717  0.00  0.00    +0.065 C 
ATOM     26  C   LIG    1      -31.939  75.562  29.567  0.00  0.00    +0.039 A 
ATOM     27  N   LIG    1      -31.987  76.761  28.926  0.00  0.00    -0.247 NA
ATOM     28  C   LIG    1      -32.885  76.884  27.898  0.00  0.00    +0.125 A 
ATOM     29  C   LIG    1      -33.637  75.815  27.439  0.00  0.00    +0.033 A 
ATOM     30  C   LIG    1      -33.588  74.609  28.119  0.00  0.00    +0.004 A 
ATOM     31  C   LIG    1      -32.739  74.481  29.207  0.00  0.00    +0.023 A 
ENDBRANCH  23  28
BRANCH  23  32
ATOM     32  O   LIG    1      -31.875  78.394  26.424  0.00  0.00    -0.491 OA
ATOM     33  H   LIG    1      -32.101  78.094  25.523  0.00  0.00    +0.294 HD
ENDBRANCH  23  32
ENDBRANCH   1  24
TORSDOF 5
ENDMDL
MODEL 8
REMARK VINA RESULT:      -6.0     18.943     21.239
REMARK  Name = pdb/CHEMBL3961601.pdb
REMARK                            x       y       z     vdW  Elec       q    Type
REMARK                         _______ _______ _______ _____ _____    ______ ____
ROOT
ATOM      1  C   LIG    1      -23.006  86.739  12.906  0.00  0.00    +0.131 A 
ATOM      2  C   LIG    1      -23.371  85.538  12.317  0.00  0.00    +0.183 A 
ATOM      3  N   LIG    1      -23.505  84.249  12.771  0.00  0.00    -0.211 NA
ATOM      4  C   LIG    1      -23.789  83.302  11.900  0.00  0.00    +0.126 A 
ATOM      5  C   LIG    1      -23.992  83.617  10.431  0.00  0.00    +0.063 A 
ATOM      6  C   LIG    1      -23.842  84.874  10.041  0.00  0.00    +0.118 A 
ATOM      7  N   LIG    1      -23.536  85.861  10.963  0.00  0.00    -0.220 N 
ATOM      8  N   LIG    1      -23.315  87.173  10.696  0.00  0.00    -0.171 NA
ATOM      9  C   LIG    1      -23.037  87.702  11.886  0.00  0.00    +0.165 A 
ENDROOT
BRANCH   4  10
ATOM     10  N   LIG    1      -23.905  81.978  12.314  0.00  0.00    -0.308 N 
ATOM     11  C   LIG    1      -24.381  81.644  13.673  0.00  0.00    +0.108 C 
ATOM     12  C   LIG    1      -25.404  80.510  13.477  0.00  0.00    +0.029 C 
ATOM     13  C   LIG    1      -25.635  80.441  11.974  0.00  0.00    +0.021 C 
ATOM     14  C   LIG    1      -24.313  80.912  11.397  0.00  0.00    +0.107 C 
BRANCH  11  15
ATOM     15  C   LIG    1      -23.247  81.223  14.585  0.00  0.00    +0.011 A 
ATOM     16  C   LIG    1      -22.777  82.115  15.557  0.00  0.00    +0.129 A 
ATOM     17  F   LIG    1      -23.312  83.340  15.647  0.00  0.00    -0.205 F 
ATOM     18  C   LIG    1      -21.761  81.762  16.446  0.00  0.00    +0.041 A 
ATOM     19  C   LIG    1      -21.200  80.489  16.382  0.00  0.00    +0.041 A 
ATOM     20  C   LIG    1      -21.659  79.591  15.426  0.00  0.00    +0.124 A 
ATOM     21  F   LIG    1      -21.131  78.362  15.368  0.00  0.00    -0.205 F 
ATOM     22  C   LIG    1      -22.665  79.946  14.532  0.00  0.00    +0.046 A 
ENDBRANCH  11  15
ENDBRANCH   4  10
BRANCH   1  24
ATOM     23  C   LIG    1      -21.454  86.772  14.623  0.00  0.00    +0.239 C 
ATOM     24  N   LIG    1      -22.652  87.065  14.210  0.00  0.00    -0.206 NA
BRANCH  23  28
ATOM     25  C   LIG    1      -19.448  82.456  13.563  0.00  0.00    +0.065 C 
ATOM     26  C   LIG    1      -19.376  83.956  13.515  0.00  0.00    +0.039 A 
ATOM     27  N   LIG    1      -20.378  84.670  14.096  0.00  0.00    -0.247 NA
ATOM     28  C   LIG    1      -20.299  86.035  14.013  0.00  0.00    +0.125 A 
ATOM     29  C   LIG    1      -19.202  86.683  13.470  0.00  0.00    +0.033 A 
ATOM     30  C   LIG    1      -18.204  85.937  12.866  0.00  0.00    +0.004 A 
ATOM     31  C   LIG    1      -18.295  84.554  12.874  0.00  0.00    +0.023 A 
ENDBRANCH  23  28
BRANCH  23  32
ATOM     32  O   LIG    1      -21.094  87.268  15.837  0.00  0.00    -0.491 OA
ATOM     33  H   LIG    1      -20.643  88.128  15.739  0.00  0.00    +0.294 HD
ENDBRANCH  23  32
ENDBRANCH   1  24
TORSDOF 5
ENDMDL
MODEL 9
REMARK VINA RESULT:      -5.9     18.216     21.232
REMARK  Name = pdb/CHEMBL3961601.pdb
REMARK                            x       y       z     vdW  Elec       q    Type
REMARK                         _______ _______ _______ _____ _____    ______ ____
ROOT
ATOM      1  C   LIG    1      -24.642  80.034  12.155  0.00  0.00    +0.131 A 
ATOM      2  C   LIG    1      -24.183  81.269  11.724  0.00  0.00    +0.183 A 
ATOM      3  N   LIG    1      -24.470  82.569  12.061  0.00  0.00    -0.211 NA
ATOM      4  C   LIG    1      -23.901  83.536  11.370  0.00  0.00    +0.126 A 
ATOM      5  C   LIG    1      -22.929  83.238  10.246  0.00  0.00    +0.063 A 
ATOM      6  C   LIG    1      -22.694  81.968   9.953  0.00  0.00    +0.118 A 
ATOM      7  N   LIG    1      -23.303  80.957  10.679  0.00  0.00    -0.220 N 
ATOM      8  N   LIG    1      -23.184  79.623  10.460  0.00  0.00    -0.171 NA
ATOM      9  C   LIG    1      -23.966  79.074  11.387  0.00  0.00    +0.165 A 
ENDROOT
BRANCH   4  10
ATOM     10  N   LIG    1      -24.186  84.868  11.661  0.00  0.00    -0.308 N 
ATOM     11  C   LIG    1      -23.213  85.939  11.358  0.00  0.00    +0.108 C 
ATOM     12  C   LIG    1      -24.037  87.062  10.701  0.00  0.00    +0.029 C 
ATOM     13  C   LIG    1      -25.405  86.448  10.440  0.00  0.00    +0.021 C 
ATOM     14  C   LIG    1      -25.539  85.415  11.543  0.00  0.00    +0.107 C 
BRANCH  11  15
ATOM     15  C   LIG    1      -22.497  86.424  12.601  0.00  0.00    +0.011 A 
ATOM     16  C   LIG    1      -21.266  85.856  12.954  0.00  0.00    +0.129 A 
ATOM     17  F   LIG    1      -20.753  84.869  12.208  0.00  0.00    -0.205 F 
ATOM     18  C   LIG    1      -20.548  86.294  14.068  0.00  0.00    +0.041 A 
ATOM     19  C   LIG    1      -21.053  87.330  14.850  0.00  0.00    +0.041 A 
ATOM     20  C   LIG    1      -22.271  87.907  14.510  0.00  0.00    +0.124 A 
ATOM     21  F   LIG    1      -22.755  88.911  15.252  0.00  0.00    -0.205 F 
ATOM     22  C   LIG    1      -22.993  87.464  13.405  0.00  0.00    +0.046 A 
ENDBRANCH  11  15
ENDBRANCH   4  10
BRANCH   1  24
ATOM     23  C   LIG    1      -25.280  79.871  14.374  0.00  0.00    +0.239 C 
ATOM     24  N   LIG    1      -25.574  79.674  13.123  0.00  0.00    -0.206 NA
BRANCH  23  28
ATOM     25  C   LIG    1      -22.732  83.681  16.039  0.00  0.00    +0.065 C 
ATOM     26  C   LIG    1      -22.866  82.194  15.877  0.00  0.00    +0.039 A 
ATOM     27  N   LIG    1      -23.941  81.712  15.196  0.00  0.00    -0.247 NA
ATOM     28  C   LIG    1      -24.050  80.350  15.087  0.00  0.00    +0.125 A 
ATOM     29  C   LIG    1      -23.065  79.488  15.540  0.00  0.00    +0.033 A 
ATOM     30  C   LIG    1      -21.990  79.999  16.248  0.00  0.00    +0.004 A 
ATOM     31  C   LIG    1      -21.892  81.370  16.434  0.00  0.00    +0.023 A 
ENDBRANCH  23  28
BRANCH  23  32
ATOM     32  O   LIG    1      -26.283  79.674  15.270  0.00  0.00    -0.491 OA
ATOM     33  H   LIG    1      -26.891  78.977  14.960  0.00  0.00    +0.294 HD
ENDBRANCH  23  32
ENDBRANCH   1  24
TORSDOF 5
ENDMDL
