MODEL 1
REMARK VINA RESULT:      -6.5      0.000      0.000
REMARK  Name = pdb/CHEMBL3671471.pdb
REMARK                            x       y       z     vdW  Elec       q    Type
REMARK                         _______ _______ _______ _____ _____    ______ ____
ROOT
ATOM      1  C   LIG    1      -22.012  86.080  15.052  0.00  0.00    +0.197 C 
ATOM      2  O   LIG    1      -22.401  86.539  16.121  0.00  0.00    -0.287 OA
ENDROOT
BRANCH   1   8
ATOM      3  C   LIG    1      -23.912  83.023  11.226  0.00  0.00    +0.214 A 
ATOM      4  N   LIG    1      -23.661  82.292  12.316  0.00  0.00    -0.197 NA
ATOM      5  C   LIG    1      -23.151  83.015  13.325  0.00  0.00    +0.147 A 
ATOM      6  N   LIG    1      -22.809  82.556  14.566  0.00  0.00    -0.325 N 
ATOM      7  C   LIG    1      -22.460  83.602  15.374  0.00  0.00    +0.100 A 
ATOM      8  C   LIG    1      -22.405  84.751  14.600  0.00  0.00    +0.051 A 
ATOM      9  C   LIG    1      -22.870  84.375  13.300  0.00  0.00    +0.048 A 
ATOM     10  C   LIG    1      -23.085  85.015  12.084  0.00  0.00    +0.126 A 
ATOM     11  N   LIG    1      -23.607  84.317  11.047  0.00  0.00    -0.222 NA
BRANCH   6  12
ATOM     12  C   LIG    1      -22.870  81.239  15.020  0.00  0.00    +0.048 C 
ATOM     13  C   LIG    1      -21.930  80.039  14.688  0.00  0.00    +0.032 C 
ATOM     14  C   LIG    1      -22.943  79.558  15.852  0.00  0.00    -0.004 C 
ATOM     15  C   LIG    1      -24.181  80.439  15.322  0.00  0.00    +0.032 C 
ATOM     16  C   LIG    1      -22.512  80.919  16.521  0.00  0.00    +0.032 C 
ENDBRANCH   6  12
BRANCH   3  17
ATOM     17  N   LIG    1      -24.526  82.375  10.174  0.00  0.00    -0.327 N 
ATOM     18  H   LIG    1      -23.862  82.207   9.433  0.00  0.00    +0.145 HD
ATOM     19  H   LIG    1      -25.396  82.832   9.943  0.00  0.00    +0.145 HD
ENDBRANCH   3  17
ENDBRANCH   1   8
BRANCH   1  20
ATOM     20  C   LIG    1      -21.133  86.903  14.184  0.00  0.00    +0.042 A 
ATOM     21  C   LIG    1      -21.591  88.042  13.501  0.00  0.00    +0.038 A 
ATOM     22  C   LIG    1      -20.740  88.753  12.652  0.00  0.00    +0.052 A 
ATOM     23  C   LIG    1      -19.420  88.312  12.583  0.00  0.00    +0.134 A 
ATOM     24  N   LIG    1      -18.934  87.237  13.265  0.00  0.00    -0.261 NA
ATOM     25  C   LIG    1      -19.800  86.554  14.049  0.00  0.00    +0.122 A 
BRANCH  22  26
ATOM     26  N   LIG    1      -21.295  89.840  11.929  0.00  0.00    -0.284 N 
ATOM     27  H   LIG    1      -21.382  90.717  12.427  0.00  0.00    +0.155 HD
ATOM     28  C   LIG    1      -21.772  89.803  10.624  0.00  0.00    +0.222 C 
ATOM     29  O   LIG    1      -21.757  88.806   9.909  0.00  0.00    -0.275 OA
BRANCH  28  30
ATOM     30  C   LIG    1      -22.341  91.147  10.155  0.00  0.00    +0.131 C 
BRANCH  30  31
ATOM     31  C   LIG    1      -23.668  91.503  10.797  0.00  0.00    -0.039 A 
ATOM     32  C   LIG    1      -24.080  92.841  10.869  0.00  0.00    +0.005 A 
ATOM     33  C   LIG    1      -25.326  93.178  11.404  0.00  0.00    +0.019 A 
ATOM     34  C   LIG    1      -26.188  92.178  11.869  0.00  0.00    +0.052 A 
ATOM     35  C   LIG    1      -25.785  90.840  11.803  0.00  0.00    +0.019 A 
ATOM     36  C   LIG    1      -24.535  90.505  11.269  0.00  0.00    +0.005 A 
BRANCH  34  37
ATOM     37  C   LIG    1      -27.470  92.526  12.399  0.00  0.00    +0.099 C 
ATOM     38  N   LIG    1      -28.521  92.814  12.823  0.00  0.00    -0.191 NA
ENDBRANCH  34  37
ENDBRANCH  30  31
ENDBRANCH  28  30
ENDBRANCH  22  26
ENDBRANCH   1  20
TORSDOF 8
ENDMDL
MODEL 2
REMARK VINA RESULT:      -6.5     20.033     23.132
REMARK  Name = pdb/CHEMBL3671471.pdb
REMARK                            x       y       z     vdW  Elec       q    Type
REMARK                         _______ _______ _______ _____ _____    ______ ____
ROOT
ATOM      1  C   LIG    1      -19.515  79.403  35.738  0.00  0.00    +0.197 C 
ATOM      2  O   LIG    1      -18.771  79.697  36.669  0.00  0.00    -0.287 OA
ENDROOT
BRANCH   1   8
ATOM      3  C   LIG    1      -23.697  82.419  36.742  0.00  0.00    +0.214 A 
ATOM      4  N   LIG    1      -24.088  81.175  36.448  0.00  0.00    -0.197 NA
ATOM      5  C   LIG    1      -23.063  80.359  36.160  0.00  0.00    +0.147 A 
ATOM      6  N   LIG    1      -23.141  79.033  35.838  0.00  0.00    -0.325 N 
ATOM      7  C   LIG    1      -21.886  78.496  35.749  0.00  0.00    +0.100 A 
ATOM      8  C   LIG    1      -20.964  79.527  35.846  0.00  0.00    +0.051 A 
ATOM      9  C   LIG    1      -21.718  80.708  36.131  0.00  0.00    +0.048 A 
ATOM     10  C   LIG    1      -21.437  82.050  36.364  0.00  0.00    +0.126 A 
ATOM     11  N   LIG    1      -22.447  82.900  36.666  0.00  0.00    -0.222 NA
BRANCH   6  12
ATOM     12  C   LIG    1      -24.300  78.272  35.691  0.00  0.00    +0.048 C 
ATOM     13  C   LIG    1      -25.476  78.452  34.684  0.00  0.00    +0.032 C 
ATOM     14  C   LIG    1      -25.713  77.059  35.466  0.00  0.00    -0.004 C 
ATOM     15  C   LIG    1      -25.085  77.577  36.853  0.00  0.00    +0.032 C 
ATOM     16  C   LIG    1      -24.201  76.816  35.094  0.00  0.00    +0.032 C 
ENDBRANCH   6  12
BRANCH   3  17
ATOM     17  N   LIG    1      -24.682  83.297  37.144  0.00  0.00    -0.327 N 
ATOM     18  H   LIG    1      -25.580  82.995  36.798  0.00  0.00    +0.145 HD
ATOM     19  H   LIG    1      -24.395  84.248  36.964  0.00  0.00    +0.145 HD
ENDBRANCH   3  17
ENDBRANCH   1   8
BRANCH   1  20
ATOM     20  C   LIG    1      -18.928  78.925  34.462  0.00  0.00    +0.042 A 
ATOM     21  C   LIG    1      -19.705  78.639  33.327  0.00  0.00    +0.038 A 
ATOM     22  C   LIG    1      -19.113  78.140  32.165  0.00  0.00    +0.052 A 
ATOM     23  C   LIG    1      -17.726  78.012  32.180  0.00  0.00    +0.134 A 
ATOM     24  N   LIG    1      -16.939  78.319  33.249  0.00  0.00    -0.261 NA
ATOM     25  C   LIG    1      -17.556  78.767  34.367  0.00  0.00    +0.122 A 
BRANCH  22  26
ATOM     26  N   LIG    1      -19.972  77.792  31.091  0.00  0.00    -0.284 N 
ATOM     27  H   LIG    1      -20.577  78.524  30.740  0.00  0.00    +0.155 HD
ATOM     28  C   LIG    1      -20.095  76.537  30.507  0.00  0.00    +0.222 C 
ATOM     29  O   LIG    1      -19.448  75.550  30.844  0.00  0.00    -0.275 OA
BRANCH  28  30
ATOM     30  C   LIG    1      -21.142  76.495  29.389  0.00  0.00    +0.131 C 
BRANCH  30  31
ATOM     31  C   LIG    1      -22.569  76.629  29.886  0.00  0.00    -0.039 A 
ATOM     32  C   LIG    1      -23.183  75.562  30.558  0.00  0.00    +0.005 A 
ATOM     33  C   LIG    1      -24.475  75.692  31.074  0.00  0.00    +0.019 A 
ATOM     34  C   LIG    1      -25.174  76.896  30.934  0.00  0.00    +0.052 A 
ATOM     35  C   LIG    1      -24.569  77.965  30.264  0.00  0.00    +0.019 A 
ATOM     36  C   LIG    1      -23.276  77.833  29.745  0.00  0.00    +0.005 A 
BRANCH  34  37
ATOM     37  C   LIG    1      -26.489  77.030  31.479  0.00  0.00    +0.099 C 
ATOM     38  N   LIG    1      -27.568  77.139  31.916  0.00  0.00    -0.191 NA
ENDBRANCH  34  37
ENDBRANCH  30  31
ENDBRANCH  28  30
ENDBRANCH  22  26
ENDBRANCH   1  20
TORSDOF 8
ENDMDL
MODEL 3
REMARK VINA RESULT:      -6.4     20.408     24.110
REMARK  Name = pdb/CHEMBL3671471.pdb
REMARK                            x       y       z     vdW  Elec       q    Type
REMARK                         _______ _______ _______ _____ _____    ______ ____
ROOT
ATOM      1  C   LIG    1      -34.007  73.202  29.031  0.00  0.00    +0.197 C 
ATOM      2  O   LIG    1      -33.524  73.273  30.156  0.00  0.00    -0.287 OA
ENDROOT
BRANCH   1   8
ATOM      3  C   LIG    1      -33.312  78.138  27.374  0.00  0.00    +0.214 A 
ATOM      4  N   LIG    1      -34.539  77.714  27.052  0.00  0.00    -0.197 NA
ATOM      5  C   LIG    1      -34.770  76.448  27.431  0.00  0.00    +0.147 A 
ATOM      6  N   LIG    1      -35.928  75.744  27.258  0.00  0.00    -0.325 N 
ATOM      7  C   LIG    1      -35.844  74.537  27.897  0.00  0.00    +0.100 A 
ATOM      8  C   LIG    1      -34.545  74.375  28.351  0.00  0.00    +0.051 A 
ATOM      9  C   LIG    1      -33.871  75.605  28.073  0.00  0.00    +0.048 A 
ATOM     10  C   LIG    1      -32.595  76.122  28.275  0.00  0.00    +0.126 A 
ATOM     11  N   LIG    1      -32.329  77.400  27.912  0.00  0.00    -0.222 NA
BRANCH   6  12
ATOM     12  C   LIG    1      -37.084  76.175  26.609  0.00  0.00    +0.048 C 
ATOM     13  C   LIG    1      -37.427  76.152  25.088  0.00  0.00    +0.032 C 
ATOM     14  C   LIG    1      -38.759  76.607  25.881  0.00  0.00    -0.004 C 
ATOM     15  C   LIG    1      -37.963  77.399  27.032  0.00  0.00    +0.032 C 
ATOM     16  C   LIG    1      -38.420  75.355  26.776  0.00  0.00    +0.032 C 
ENDBRANCH   6  12
BRANCH   3  17
ATOM     17  N   LIG    1      -33.025  79.460  27.106  0.00  0.00    -0.327 N 
ATOM     18  H   LIG    1      -33.846  79.930  26.754  0.00  0.00    +0.145 HD
ATOM     19  H   LIG    1      -32.169  79.531  26.576  0.00  0.00    +0.145 HD
ENDBRANCH   3  17
ENDBRANCH   1   8
BRANCH   1  20
ATOM     20  C   LIG    1      -34.032  71.892  28.332  0.00  0.00    +0.042 A 
ATOM     21  C   LIG    1      -34.780  71.668  27.165  0.00  0.00    +0.038 A 
ATOM     22  C   LIG    1      -34.814  70.403  26.573  0.00  0.00    +0.052 A 
ATOM     23  C   LIG    1      -34.022  69.420  27.161  0.00  0.00    +0.134 A 
ATOM     24  N   LIG    1      -33.253  69.616  28.269  0.00  0.00    -0.261 NA
ATOM     25  C   LIG    1      -33.275  70.847  28.832  0.00  0.00    +0.122 A 
BRANCH  22  26
ATOM     26  N   LIG    1      -35.660  70.230  25.448  0.00  0.00    -0.284 N 
ATOM     27  H   LIG    1      -35.272  70.483  24.548  0.00  0.00    +0.155 HD
ATOM     28  C   LIG    1      -36.980  69.793  25.468  0.00  0.00    +0.222 C 
ATOM     29  O   LIG    1      -37.589  69.477  26.484  0.00  0.00    -0.275 OA
BRANCH  28  30
ATOM     30  C   LIG    1      -37.619  69.752  24.075  0.00  0.00    +0.131 C 
BRANCH  30  31
ATOM     31  C   LIG    1      -38.707  70.789  23.875  0.00  0.00    -0.039 A 
ATOM     32  C   LIG    1      -39.906  70.438  23.238  0.00  0.00    +0.005 A 
ATOM     33  C   LIG    1      -40.940  71.368  23.100  0.00  0.00    +0.019 A 
ATOM     34  C   LIG    1      -40.796  72.665  23.605  0.00  0.00    +0.052 A 
ATOM     35  C   LIG    1      -39.602  73.024  24.240  0.00  0.00    +0.019 A 
ATOM     36  C   LIG    1      -38.566  72.093  24.376  0.00  0.00    +0.005 A 
BRANCH  34  37
ATOM     37  C   LIG    1      -41.864  73.608  23.477  0.00  0.00    +0.099 C 
ATOM     38  N   LIG    1      -42.738  74.376  23.362  0.00  0.00    -0.191 NA
ENDBRANCH  34  37
ENDBRANCH  30  31
ENDBRANCH  28  30
ENDBRANCH  22  26
ENDBRANCH   1  20
TORSDOF 8
ENDMDL
MODEL 4
REMARK VINA RESULT:      -6.3     20.386     22.700
REMARK  Name = pdb/CHEMBL3671471.pdb
REMARK                            x       y       z     vdW  Elec       q    Type
REMARK                         _______ _______ _______ _____ _____    ______ ____
ROOT
ATOM      1  C   LIG    1      -21.680  76.431  29.954  0.00  0.00    +0.197 C 
ATOM      2  O   LIG    1      -21.766  76.544  28.736  0.00  0.00    -0.287 OA
ENDROOT
BRANCH   1   8
ATOM      3  C   LIG    1      -26.569  76.745  31.850  0.00  0.00    +0.214 A 
ATOM      4  N   LIG    1      -25.989  75.613  32.260  0.00  0.00    -0.197 NA
ATOM      5  C   LIG    1      -24.742  75.464  31.790  0.00  0.00    +0.147 A 
ATOM      6  N   LIG    1      -23.892  74.424  32.045  0.00  0.00    -0.325 N 
ATOM      7  C   LIG    1      -22.659  74.683  31.513  0.00  0.00    +0.100 A 
ATOM      8  C   LIG    1      -22.749  75.835  30.747  0.00  0.00    +0.051 A 
ATOM      9  C   LIG    1      -24.072  76.342  30.946  0.00  0.00    +0.048 A 
ATOM     10  C   LIG    1      -24.805  77.440  30.510  0.00  0.00    +0.126 A 
ATOM     11  N   LIG    1      -26.065  77.626  30.972  0.00  0.00    -0.222 NA
BRANCH   6  12
ATOM     12  C   LIG    1      -24.164  73.284  32.800  0.00  0.00    +0.048 C 
ATOM     13  C   LIG    1      -25.117  72.092  32.477  0.00  0.00    +0.032 C 
ATOM     14  C   LIG    1      -24.294  71.710  33.814  0.00  0.00    -0.004 C 
ATOM     15  C   LIG    1      -24.226  73.220  34.363  0.00  0.00    +0.032 C 
ATOM     16  C   LIG    1      -23.058  72.172  32.952  0.00  0.00    +0.032 C 
ENDBRANCH   6  12
BRANCH   3  17
ATOM     17  N   LIG    1      -27.818  77.023  32.366  0.00  0.00    -0.327 N 
ATOM     18  H   LIG    1      -28.269  76.170  32.664  0.00  0.00    +0.145 HD
ATOM     19  H   LIG    1      -28.323  77.639  31.746  0.00  0.00    +0.145 HD
ENDBRANCH   3  17
ENDBRANCH   1   8
BRANCH   1  20
ATOM     20  C   LIG    1      -20.450  76.896  30.642  0.00  0.00    +0.042 A 
ATOM     21  C   LIG    1      -20.480  77.663  31.818  0.00  0.00    +0.038 A 
ATOM     22  C   LIG    1      -19.297  78.123  32.400  0.00  0.00    +0.052 A 
ATOM     23  C   LIG    1      -18.109  77.723  31.791  0.00  0.00    +0.134 A 
ATOM     24  N   LIG    1      -18.044  76.945  30.674  0.00  0.00    -0.261 NA
ATOM     25  C   LIG    1      -19.215  76.550  30.122  0.00  0.00    +0.122 A 
BRANCH  22  26
ATOM     26  N   LIG    1      -19.409  78.964  33.536  0.00  0.00    -0.284 N 
ATOM     27  H   LIG    1      -19.530  79.953  33.356  0.00  0.00    +0.155 HD
ATOM     28  C   LIG    1      -19.323  78.569  34.866  0.00  0.00    +0.222 C 
ATOM     29  O   LIG    1      -19.152  77.412  35.235  0.00  0.00    -0.275 OA
BRANCH  28  30
ATOM     30  C   LIG    1      -19.453  79.738  35.849  0.00  0.00    +0.131 C 
BRANCH  30  31
ATOM     31  C   LIG    1      -20.886  80.170  36.093  0.00  0.00    -0.039 A 
ATOM     32  C   LIG    1      -21.363  81.370  35.546  0.00  0.00    +0.005 A 
ATOM     33  C   LIG    1      -22.697  81.751  35.713  0.00  0.00    +0.019 A 
ATOM     34  C   LIG    1      -23.581  80.933  36.425  0.00  0.00    +0.052 A 
ATOM     35  C   LIG    1      -23.114  79.736  36.976  0.00  0.00    +0.019 A 
ATOM     36  C   LIG    1      -21.777  79.356  36.810  0.00  0.00    +0.005 A 
BRANCH  34  37
ATOM     37  C   LIG    1      -24.950  81.319  36.579  0.00  0.00    +0.099 C 
ATOM     38  N   LIG    1      -26.067  81.641  36.696  0.00  0.00    -0.191 NA
ENDBRANCH  34  37
ENDBRANCH  30  31
ENDBRANCH  28  30
ENDBRANCH  22  26
ENDBRANCH   1  20
TORSDOF 8
ENDMDL
MODEL 5
REMARK VINA RESULT:      -6.3     20.297     24.203
REMARK  Name = pdb/CHEMBL3671471.pdb
REMARK                            x       y       z     vdW  Elec       q    Type
REMARK                         _______ _______ _______ _____ _____    ______ ____
ROOT
ATOM      1  C   LIG    1      -34.770  72.702  28.954  0.00  0.00    +0.197 C 
ATOM      2  O   LIG    1      -34.925  72.522  30.157  0.00  0.00    -0.287 OA
ENDROOT
BRANCH   1   8
ATOM      3  C   LIG    1      -37.260  76.402  26.179  0.00  0.00    +0.214 A 
ATOM      4  N   LIG    1      -36.049  76.837  26.540  0.00  0.00    -0.197 NA
ATOM      5  C   LIG    1      -35.369  75.941  27.273  0.00  0.00    +0.147 A 
ATOM      6  N   LIG    1      -34.106  76.087  27.773  0.00  0.00    -0.325 N 
ATOM      7  C   LIG    1      -33.689  74.917  28.344  0.00  0.00    +0.100 A 
ATOM      8  C   LIG    1      -34.762  74.040  28.373  0.00  0.00    +0.051 A 
ATOM      9  C   LIG    1      -35.823  74.689  27.667  0.00  0.00    +0.048 A 
ATOM     10  C   LIG    1      -37.133  74.380  27.312  0.00  0.00    +0.126 A 
ATOM     11  N   LIG    1      -37.845  75.258  26.566  0.00  0.00    -0.222 NA
BRANCH   6  12
ATOM     12  C   LIG    1      -33.287  77.211  27.670  0.00  0.00    +0.048 C 
ATOM     13  C   LIG    1      -33.504  78.644  28.247  0.00  0.00    +0.032 C 
ATOM     14  C   LIG    1      -32.013  78.588  27.629  0.00  0.00    -0.004 C 
ATOM     15  C   LIG    1      -32.402  77.583  26.434  0.00  0.00    +0.032 C 
ATOM     16  C   LIG    1      -31.926  77.254  28.464  0.00  0.00    +0.032 C 
ENDBRANCH   6  12
BRANCH   3  17
ATOM     17  N   LIG    1      -37.988  77.224  25.343  0.00  0.00    -0.327 N 
ATOM     18  H   LIG    1      -38.786  77.601  25.833  0.00  0.00    +0.145 HD
ATOM     19  H   LIG    1      -38.142  76.769  24.455  0.00  0.00    +0.145 HD
ENDBRANCH   3  17
ENDBRANCH   1   8
BRANCH   1  20
ATOM     20  C   LIG    1      -34.566  71.532  28.064  0.00  0.00    +0.042 A 
ATOM     21  C   LIG    1      -35.319  71.323  26.897  0.00  0.00    +0.038 A 
ATOM     22  C   LIG    1      -35.128  70.179  26.121  0.00  0.00    +0.052 A 
ATOM     23  C   LIG    1      -34.117  69.311  26.530  0.00  0.00    +0.134 A 
ATOM     24  N   LIG    1      -33.341  69.505  27.634  0.00  0.00    -0.261 NA
ATOM     25  C   LIG    1      -33.583  70.609  28.378  0.00  0.00    +0.122 A 
BRANCH  22  26
ATOM     26  N   LIG    1      -35.985  69.994  25.005  0.00  0.00    -0.284 N 
ATOM     27  H   LIG    1      -35.669  70.379  24.124  0.00  0.00    +0.155 HD
ATOM     28  C   LIG    1      -37.231  69.378  25.017  0.00  0.00    +0.222 C 
ATOM     29  O   LIG    1      -37.753  68.890  26.013  0.00  0.00    -0.275 OA
BRANCH  28  30
ATOM     30  C   LIG    1      -37.912  69.376  23.643  0.00  0.00    +0.131 C 
BRANCH  30  31
ATOM     31  C   LIG    1      -39.014  70.409  23.510  0.00  0.00    -0.039 A 
ATOM     32  C   LIG    1      -40.174  70.111  22.779  0.00  0.00    +0.005 A 
ATOM     33  C   LIG    1      -41.222  71.031  22.697  0.00  0.00    +0.019 A 
ATOM     34  C   LIG    1      -41.133  72.264  23.353  0.00  0.00    +0.052 A 
ATOM     35  C   LIG    1      -39.980  72.570  24.083  0.00  0.00    +0.019 A 
ATOM     36  C   LIG    1      -38.929  71.649  24.162  0.00  0.00    +0.005 A 
BRANCH  34  37
ATOM     37  C   LIG    1      -42.217  73.195  23.281  0.00  0.00    +0.099 C 
ATOM     38  N   LIG    1      -43.103  73.954  23.213  0.00  0.00    -0.191 NA
ENDBRANCH  34  37
ENDBRANCH  30  31
ENDBRANCH  28  30
ENDBRANCH  22  26
ENDBRANCH   1  20
TORSDOF 8
ENDMDL
MODEL 6
REMARK VINA RESULT:      -6.3      7.839     11.561
REMARK  Name = pdb/CHEMBL3671471.pdb
REMARK                            x       y       z     vdW  Elec       q    Type
REMARK                         _______ _______ _______ _____ _____    ______ ____
ROOT
ATOM      1  C   LIG    1      -18.245  75.616  15.662  0.00  0.00    +0.197 C 
ATOM      2  O   LIG    1      -17.614  75.179  14.705  0.00  0.00    -0.287 OA
ENDROOT
BRANCH   1   8
ATOM      3  C   LIG    1      -18.109  72.802  20.095  0.00  0.00    +0.214 A 
ATOM      4  N   LIG    1      -19.305  72.681  19.511  0.00  0.00    -0.197 NA
ATOM      5  C   LIG    1      -19.410  73.397  18.381  0.00  0.00    +0.147 A 
ATOM      6  N   LIG    1      -20.497  73.463  17.556  0.00  0.00    -0.325 N 
ATOM      7  C   LIG    1      -20.188  74.175  16.429  0.00  0.00    +0.100 A 
ATOM      8  C   LIG    1      -18.930  74.732  16.597  0.00  0.00    +0.051 A 
ATOM      9  C   LIG    1      -18.428  74.213  17.832  0.00  0.00    +0.048 A 
ATOM     10  C   LIG    1      -17.258  74.335  18.574  0.00  0.00    +0.126 A 
ATOM     11  N   LIG    1      -17.115  73.620  19.716  0.00  0.00    -0.222 NA
BRANCH   6  12
ATOM     12  C   LIG    1      -21.733  72.847  17.744  0.00  0.00    +0.048 C 
ATOM     13  C   LIG    1      -22.640  72.825  19.013  0.00  0.00    +0.032 C 
ATOM     14  C   LIG    1      -23.471  72.142  17.808  0.00  0.00    -0.004 C 
ATOM     15  C   LIG    1      -22.178  71.487  17.110  0.00  0.00    +0.032 C 
ATOM     16  C   LIG    1      -23.007  73.425  17.019  0.00  0.00    +0.032 C 
ENDBRANCH   6  12
BRANCH   3  17
ATOM     17  N   LIG    1      -17.884  72.024  21.212  0.00  0.00    -0.327 N 
ATOM     18  H   LIG    1      -17.764  71.058  20.945  0.00  0.00    +0.145 HD
ATOM     19  H   LIG    1      -18.559  72.241  21.930  0.00  0.00    +0.145 HD
ENDBRANCH   3  17
ENDBRANCH   1   8
BRANCH   1  20
ATOM     20  C   LIG    1      -18.299  77.082  15.888  0.00  0.00    +0.042 A 
ATOM     21  C   LIG    1      -19.502  77.772  16.110  0.00  0.00    +0.038 A 
ATOM     22  C   LIG    1      -19.509  79.160  16.264  0.00  0.00    +0.052 A 
ATOM     23  C   LIG    1      -18.268  79.793  16.253  0.00  0.00    +0.134 A 
ATOM     24  N   LIG    1      -17.080  79.148  16.080  0.00  0.00    -0.261 NA
ATOM     25  C   LIG    1      -17.121  77.807  15.900  0.00  0.00    +0.122 A 
BRANCH  22  26
ATOM     26  N   LIG    1      -20.769  79.798  16.398  0.00  0.00    -0.284 N 
ATOM     27  H   LIG    1      -21.364  79.471  17.150  0.00  0.00    +0.155 HD
ATOM     28  C   LIG    1      -21.283  80.791  15.572  0.00  0.00    +0.222 C 
ATOM     29  O   LIG    1      -20.689  81.265  14.609  0.00  0.00    -0.275 OA
BRANCH  28  30
ATOM     30  C   LIG    1      -22.692  81.239  15.977  0.00  0.00    +0.131 C 
BRANCH  30  31
ATOM     31  C   LIG    1      -23.797  80.517  15.230  0.00  0.00    -0.039 A 
ATOM     32  C   LIG    1      -24.323  79.319  15.734  0.00  0.00    +0.005 A 
ATOM     33  C   LIG    1      -25.381  78.676  15.088  0.00  0.00    +0.019 A 
ATOM     34  C   LIG    1      -25.939  79.224  13.927  0.00  0.00    +0.052 A 
ATOM     35  C   LIG    1      -25.419  80.417  13.416  0.00  0.00    +0.019 A 
ATOM     36  C   LIG    1      -24.357  81.060  14.063  0.00  0.00    +0.005 A 
BRANCH  34  37
ATOM     37  C   LIG    1      -27.034  78.570  13.280  0.00  0.00    +0.099 C 
ATOM     38  N   LIG    1      -27.929  78.030  12.758  0.00  0.00    -0.191 NA
ENDBRANCH  34  37
ENDBRANCH  30  31
ENDBRANCH  28  30
ENDBRANCH  22  26
ENDBRANCH   1  20
TORSDOF 8
ENDMDL
MODEL 7
REMARK VINA RESULT:      -6.3      6.854     11.016
REMARK  Name = pdb/CHEMBL3671471.pdb
REMARK                            x       y       z     vdW  Elec       q    Type
REMARK                         _______ _______ _______ _____ _____    ______ ____
ROOT
ATOM      1  C   LIG    1      -18.352  75.256  15.518  0.00  0.00    +0.197 C 
ATOM      2  O   LIG    1      -17.795  74.760  14.545  0.00  0.00    -0.287 OA
ENDROOT
BRANCH   1   8
ATOM      3  C   LIG    1      -18.105  72.718  20.111  0.00  0.00    +0.214 A 
ATOM      4  N   LIG    1      -19.317  72.567  19.567  0.00  0.00    -0.197 NA
ATOM      5  C   LIG    1      -19.450  73.213  18.398  0.00  0.00    +0.147 A 
ATOM      6  N   LIG    1      -20.559  73.234  17.600  0.00  0.00    -0.325 N 
ATOM      7  C   LIG    1      -20.279  73.875  16.425  0.00  0.00    +0.100 A 
ATOM      8  C   LIG    1      -19.014  74.434  16.524  0.00  0.00    +0.051 A 
ATOM      9  C   LIG    1      -18.481  73.989  17.774  0.00  0.00    +0.048 A 
ATOM     10  C   LIG    1      -17.291  74.150  18.476  0.00  0.00    +0.126 A 
ATOM     11  N   LIG    1      -17.119  73.505  19.655  0.00  0.00    -0.222 NA
BRANCH   6  12
ATOM     12  C   LIG    1      -21.792  72.637  17.860  0.00  0.00    +0.048 C 
ATOM     13  C   LIG    1      -22.691  72.744  19.129  0.00  0.00    +0.032 C 
ATOM     14  C   LIG    1      -23.526  71.937  18.007  0.00  0.00    -0.004 C 
ATOM     15  C   LIG    1      -22.236  71.217  17.373  0.00  0.00    +0.032 C 
ATOM     16  C   LIG    1      -23.072  73.134  17.086  0.00  0.00    +0.032 C 
ENDBRANCH   6  12
BRANCH   3  17
ATOM     17  N   LIG    1      -17.853  72.008  21.266  0.00  0.00    -0.327 N 
ATOM     18  H   LIG    1      -17.182  72.499  21.838  0.00  0.00    +0.145 HD
ATOM     19  H   LIG    1      -17.677  71.038  21.049  0.00  0.00    +0.145 HD
ENDBRANCH   3  17
ENDBRANCH   1   8
BRANCH   1  20
ATOM     20  C   LIG    1      -18.337  76.730  15.691  0.00  0.00    +0.042 A 
ATOM     21  C   LIG    1      -19.488  77.469  16.013  0.00  0.00    +0.038 A 
ATOM     22  C   LIG    1      -19.436  78.861  16.112  0.00  0.00    +0.052 A 
ATOM     23  C   LIG    1      -18.185  79.450  15.944  0.00  0.00    +0.134 A 
ATOM     24  N   LIG    1      -17.042  78.759  15.672  0.00  0.00    -0.261 NA
ATOM     25  C   LIG    1      -17.143  77.415  15.550  0.00  0.00    +0.122 A 
BRANCH  22  26
ATOM     26  N   LIG    1      -20.655  79.546  16.354  0.00  0.00    -0.284 N 
ATOM     27  H   LIG    1      -20.728  80.041  17.234  0.00  0.00    +0.155 HD
ATOM     28  C   LIG    1      -21.770  79.563  15.524  0.00  0.00    +0.222 C 
ATOM     29  O   LIG    1      -21.836  78.989  14.442  0.00  0.00    -0.275 OA
BRANCH  28  30
ATOM     30  C   LIG    1      -22.935  80.373  16.101  0.00  0.00    +0.131 C 
BRANCH  30  31
ATOM     31  C   LIG    1      -22.849  81.858  15.805  0.00  0.00    -0.039 A 
ATOM     32  C   LIG    1      -22.747  82.781  16.855  0.00  0.00    +0.005 A 
ATOM     33  C   LIG    1      -22.608  84.147  16.595  0.00  0.00    +0.019 A 
ATOM     34  C   LIG    1      -22.560  84.614  15.276  0.00  0.00    +0.052 A 
ATOM     35  C   LIG    1      -22.663  83.699  14.222  0.00  0.00    +0.019 A 
ATOM     36  C   LIG    1      -22.805  82.332  14.484  0.00  0.00    +0.005 A 
BRANCH  34  37
ATOM     37  C   LIG    1      -22.399  86.010  15.015  0.00  0.00    +0.099 C 
ATOM     38  N   LIG    1      -22.271  87.151  14.793  0.00  0.00    -0.191 NA
ENDBRANCH  34  37
ENDBRANCH  30  31
ENDBRANCH  28  30
ENDBRANCH  22  26
ENDBRANCH   1  20
TORSDOF 8
ENDMDL
MODEL 8
REMARK VINA RESULT:      -6.2      6.129     12.051
REMARK  Name = pdb/CHEMBL3671471.pdb
REMARK                            x       y       z     vdW  Elec       q    Type
REMARK                         _______ _______ _______ _____ _____    ______ ____
ROOT
ATOM      1  C   LIG    1      -22.142  81.006  16.288  0.00  0.00    +0.197 C 
ATOM      2  O   LIG    1      -22.326  81.628  17.330  0.00  0.00    -0.287 OA
ENDROOT
BRANCH   1   8
ATOM      3  C   LIG    1      -26.357  78.648  14.223  0.00  0.00    +0.214 A 
ATOM      4  N   LIG    1      -25.999  79.691  13.468  0.00  0.00    -0.197 NA
ATOM      5  C   LIG    1      -24.937  80.350  13.957  0.00  0.00    +0.147 A 
ATOM      6  N   LIG    1      -24.330  81.442  13.404  0.00  0.00    -0.325 N 
ATOM      7  C   LIG    1      -23.196  81.753  14.103  0.00  0.00    +0.100 A 
ATOM      8  C   LIG    1      -23.151  80.956  15.236  0.00  0.00    +0.051 A 
ATOM      9  C   LIG    1      -24.250  80.048  15.126  0.00  0.00    +0.048 A 
ATOM     10  C   LIG    1      -24.768  78.998  15.878  0.00  0.00    +0.126 A 
ATOM     11  N   LIG    1      -25.834  78.306  15.410  0.00  0.00    -0.222 NA
BRANCH   6  12
ATOM     12  C   LIG    1      -24.718  82.125  12.252  0.00  0.00    +0.048 C 
ATOM     13  C   LIG    1      -26.029  82.923  11.975  0.00  0.00    +0.032 C 
ATOM     14  C   LIG    1      -25.036  83.168  10.725  0.00  0.00    -0.004 C 
ATOM     15  C   LIG    1      -24.383  81.699  10.784  0.00  0.00    +0.032 C 
ATOM     16  C   LIG    1      -23.989  83.468  11.865  0.00  0.00    +0.032 C 
ENDBRANCH   6  12
BRANCH   3  17
ATOM     17  N   LIG    1      -27.381  77.858  13.741  0.00  0.00    -0.327 N 
ATOM     18  H   LIG    1      -28.104  77.763  14.437  0.00  0.00    +0.145 HD
ATOM     19  H   LIG    1      -27.007  77.020  13.321  0.00  0.00    +0.145 HD
ENDBRANCH   3  17
ENDBRANCH   1   8
BRANCH   1  20
ATOM     20  C   LIG    1      -20.853  80.299  16.081  0.00  0.00    +0.042 A 
ATOM     21  C   LIG    1      -20.763  78.903  15.954  0.00  0.00    +0.038 A 
ATOM     22  C   LIG    1      -19.522  78.279  15.814  0.00  0.00    +0.052 A 
ATOM     23  C   LIG    1      -18.410  79.116  15.740  0.00  0.00    +0.134 A 
ATOM     24  N   LIG    1      -18.467  80.475  15.818  0.00  0.00    -0.261 NA
ATOM     25  C   LIG    1      -19.686  81.038  15.988  0.00  0.00    +0.122 A 
BRANCH  22  26
ATOM     26  N   LIG    1      -19.503  76.861  15.780  0.00  0.00    -0.284 N 
ATOM     27  H   LIG    1      -18.971  76.399  16.507  0.00  0.00    +0.155 HD
ATOM     28  C   LIG    1      -20.101  76.052  14.821  0.00  0.00    +0.222 C 
ATOM     29  O   LIG    1      -20.753  76.471  13.871  0.00  0.00    -0.275 OA
BRANCH  28  30
ATOM     30  C   LIG    1      -19.858  74.558  15.061  0.00  0.00    +0.131 C 
BRANCH  30  31
ATOM     31  C   LIG    1      -20.634  73.996  16.237  0.00  0.00    -0.039 A 
ATOM     32  C   LIG    1      -19.976  73.241  17.219  0.00  0.00    +0.005 A 
ATOM     33  C   LIG    1      -20.667  72.768  18.338  0.00  0.00    +0.019 A 
ATOM     34  C   LIG    1      -22.029  73.049  18.498  0.00  0.00    +0.052 A 
ATOM     35  C   LIG    1      -22.693  73.800  17.523  0.00  0.00    +0.019 A 
ATOM     36  C   LIG    1      -22.000  74.272  16.401  0.00  0.00    +0.005 A 
BRANCH  34  37
ATOM     37  C   LIG    1      -22.727  72.578  19.654  0.00  0.00    +0.099 C 
ATOM     38  N   LIG    1      -23.299  72.185  20.594  0.00  0.00    -0.191 NA
ENDBRANCH  34  37
ENDBRANCH  30  31
ENDBRANCH  28  30
ENDBRANCH  22  26
ENDBRANCH   1  20
TORSDOF 8
ENDMDL
MODEL 9
REMARK VINA RESULT:      -6.2     20.124     23.948
REMARK  Name = pdb/CHEMBL3671471.pdb
REMARK                            x       y       z     vdW  Elec       q    Type
REMARK                         _______ _______ _______ _____ _____    ______ ____
ROOT
ATOM      1  C   LIG    1      -19.975  78.694  36.377  0.00  0.00    +0.197 C 
ATOM      2  O   LIG    1      -20.113  77.661  37.024  0.00  0.00    -0.287 OA
ENDROOT
BRANCH   1   8
ATOM      3  C   LIG    1      -23.759  82.321  36.712  0.00  0.00    +0.214 A 
ATOM      4  N   LIG    1      -22.678  82.722  37.388  0.00  0.00    -0.197 NA
ATOM      5  C   LIG    1      -21.680  81.825  37.358  0.00  0.00    +0.147 A 
ATOM      6  N   LIG    1      -20.450  81.954  37.938  0.00  0.00    -0.325 N 
ATOM      7  C   LIG    1      -19.649  80.906  37.577  0.00  0.00    +0.100 A 
ATOM      8  C   LIG    1      -20.421  79.985  36.887  0.00  0.00    +0.051 A 
ATOM      9  C   LIG    1      -21.709  80.586  36.729  0.00  0.00    +0.048 A 
ATOM     10  C   LIG    1      -22.917  80.236  36.135  0.00  0.00    +0.126 A 
ATOM     11  N   LIG    1      -23.943  81.121  36.140  0.00  0.00    -0.222 NA
BRANCH   6  12
ATOM     12  C   LIG    1      -19.999  83.015  38.722  0.00  0.00    +0.048 C 
ATOM     13  C   LIG    1      -20.490  83.481  40.127  0.00  0.00    +0.032 C 
ATOM     14  C   LIG    1      -19.174  84.344  39.759  0.00  0.00    -0.004 C 
ATOM     15  C   LIG    1      -19.483  84.391  38.181  0.00  0.00    +0.032 C 
ATOM     16  C   LIG    1      -18.581  82.927  39.405  0.00  0.00    +0.032 C 
ENDBRANCH   6  12
BRANCH   3  17
ATOM     17  N   LIG    1      -24.797  83.225  36.612  0.00  0.00    -0.327 N 
ATOM     18  H   LIG    1      -25.429  83.117  37.391  0.00  0.00    +0.145 HD
ATOM     19  H   LIG    1      -25.181  83.213  35.678  0.00  0.00    +0.145 HD
ENDBRANCH   3  17
ENDBRANCH   1   8
BRANCH   1  20
ATOM     20  C   LIG    1      -19.320  78.635  35.046  0.00  0.00    +0.042 A 
ATOM     21  C   LIG    1      -20.030  78.391  33.859  0.00  0.00    +0.038 A 
ATOM     22  C   LIG    1      -19.363  78.291  32.637  0.00  0.00    +0.052 A 
ATOM     23  C   LIG    1      -17.988  78.513  32.659  0.00  0.00    +0.134 A 
ATOM     24  N   LIG    1      -17.275  78.793  33.787  0.00  0.00    -0.261 NA
ATOM     25  C   LIG    1      -17.955  78.846  34.955  0.00  0.00    +0.122 A 
BRANCH  22  26
ATOM     26  N   LIG    1      -20.135  77.957  31.495  0.00  0.00    -0.284 N 
ATOM     27  H   LIG    1      -20.801  78.652  31.180  0.00  0.00    +0.155 HD
ATOM     28  C   LIG    1      -20.099  76.755  30.798  0.00  0.00    +0.222 C 
ATOM     29  O   LIG    1      -19.364  75.814  31.079  0.00  0.00    -0.275 OA
BRANCH  28  30
ATOM     30  C   LIG    1      -21.090  76.708  29.630  0.00  0.00    +0.131 C 
BRANCH  30  31
ATOM     31  C   LIG    1      -22.542  76.781  30.061  0.00  0.00    -0.039 A 
ATOM     32  C   LIG    1      -23.132  75.701  30.733  0.00  0.00    +0.005 A 
ATOM     33  C   LIG    1      -24.451  75.778  31.189  0.00  0.00    +0.019 A 
ATOM     34  C   LIG    1      -25.202  76.942  30.986  0.00  0.00    +0.052 A 
ATOM     35  C   LIG    1      -24.621  78.023  30.315  0.00  0.00    +0.019 A 
ATOM     36  C   LIG    1      -23.301  77.944  29.857  0.00  0.00    +0.005 A 
BRANCH  34  37
ATOM     37  C   LIG    1      -26.545  77.022  31.470  0.00  0.00    +0.099 C 
ATOM     38  N   LIG    1      -27.647  77.085  31.857  0.00  0.00    -0.191 NA
ENDBRANCH  34  37
ENDBRANCH  30  31
ENDBRANCH  28  30
ENDBRANCH  22  26
ENDBRANCH   1  20
TORSDOF 8
ENDMDL
