MODEL 1
REMARK VINA RESULT:      -5.9      0.000      0.000
REMARK  Name = pdb/CHEMBL176544.pdb
REMARK                            x       y       z     vdW  Elec       q    Type
REMARK                         _______ _______ _______ _____ _____    ______ ____
ROOT
ATOM      1  C   LIG    1      -23.129  83.120  14.052  0.00  0.00    +0.025 C 
ATOM      2  C   LIG    1      -23.162  82.051  14.861  0.00  0.00    +0.065 C 
ATOM      3  C   LIG    1      -24.129  80.957  14.749  0.00  0.00    +0.097 A 
ATOM      4  N   LIG    1      -25.116  80.824  13.850  0.00  0.00    -0.253 NA
ATOM      5  C   LIG    1      -25.848  79.691  14.002  0.00  0.00    +0.111 A 
ATOM      6  C   LIG    1      -25.622  78.726  14.993  0.00  0.00    +0.022 A 
ATOM      7  C   LIG    1      -24.582  78.910  15.907  0.00  0.00    +0.027 A 
ATOM      8  C   LIG    1      -23.834  80.054  15.762  0.00  0.00    +0.060 A 
ATOM      9  N   LIG    1      -22.755  80.496  16.515  0.00  0.00    -0.280 N 
ATOM     10  H   LIG    1      -22.351  80.035  17.316  0.00  0.00    +0.155 HD
ATOM     11  C   LIG    1      -22.287  81.720  16.044  0.00  0.00    +0.250 C 
ATOM     12  O   LIG    1      -21.375  82.360  16.528  0.00  0.00    -0.270 OA
ENDROOT
BRANCH   1  21
ATOM     13  C   LIG    1      -21.414  87.686  14.651  0.00  0.00    +0.149 C 
ATOM     14  N   LIG    1      -21.455  86.276  14.338  0.00  0.00    -0.349 N 
ATOM     15  C   LIG    1      -20.382  85.538  13.881  0.00  0.00    +0.049 A 
ATOM     16  C   LIG    1      -19.059  85.915  13.598  0.00  0.00    +0.026 A 
ATOM     17  C   LIG    1      -18.180  84.932  13.133  0.00  0.00    +0.002 A 
ATOM     18  C   LIG    1      -18.604  83.620  12.953  0.00  0.00    +0.001 A 
ATOM     19  C   LIG    1      -19.925  83.254  13.237  0.00  0.00    +0.010 A 
ATOM     20  C   LIG    1      -20.833  84.223  13.716  0.00  0.00    +0.007 A 
ATOM     21  C   LIG    1      -22.210  84.205  14.088  0.00  0.00    +0.001 A 
ATOM     22  C   LIG    1      -22.571  85.487  14.439  0.00  0.00    +0.094 A 
ENDBRANCH   1  21
TORSDOF 1
ENDMDL
MODEL 2
REMARK VINA RESULT:      -5.7      0.884      2.285
REMARK  Name = pdb/CHEMBL176544.pdb
REMARK                            x       y       z     vdW  Elec       q    Type
REMARK                         _______ _______ _______ _____ _____    ______ ____
ROOT
ATOM      1  C   LIG    1      -22.707  82.733  13.673  0.00  0.00    +0.025 C 
ATOM      2  C   LIG    1      -22.845  81.758  14.582  0.00  0.00    +0.065 C 
ATOM      3  C   LIG    1      -23.968  80.818  14.624  0.00  0.00    +0.097 A 
ATOM      4  N   LIG    1      -25.018  80.757  13.791  0.00  0.00    -0.253 NA
ATOM      5  C   LIG    1      -25.897  79.768  14.088  0.00  0.00    +0.111 A 
ATOM      6  C   LIG    1      -25.755  78.871  15.156  0.00  0.00    +0.022 A 
ATOM      7  C   LIG    1      -24.644  78.975  15.996  0.00  0.00    +0.027 A 
ATOM      8  C   LIG    1      -23.746  79.974  15.705  0.00  0.00    +0.060 A 
ATOM      9  N   LIG    1      -22.569  80.312  16.358  0.00  0.00    -0.280 N 
ATOM     10  H   LIG    1      -22.188  79.868  17.179  0.00  0.00    +0.155 HD
ATOM     11  C   LIG    1      -21.956  81.404  15.748  0.00  0.00    +0.250 C 
ATOM     12  O   LIG    1      -20.932  81.938  16.122  0.00  0.00    -0.270 OA
ENDROOT
BRANCH   1  21
ATOM     13  C   LIG    1      -18.291  84.560  12.524  0.00  0.00    +0.149 C 
ATOM     14  N   LIG    1      -19.631  84.468  13.056  0.00  0.00    -0.349 N 
ATOM     15  C   LIG    1      -20.279  85.476  13.741  0.00  0.00    +0.049 A 
ATOM     16  C   LIG    1      -19.854  86.766  14.098  0.00  0.00    +0.026 A 
ATOM     17  C   LIG    1      -20.743  87.578  14.809  0.00  0.00    +0.002 A 
ATOM     18  C   LIG    1      -22.010  87.120  15.155  0.00  0.00    +0.001 A 
ATOM     19  C   LIG    1      -22.425  85.834  14.794  0.00  0.00    +0.010 A 
ATOM     20  C   LIG    1      -21.552  84.994  14.068  0.00  0.00    +0.007 A 
ATOM     21  C   LIG    1      -21.637  83.665  13.559  0.00  0.00    +0.001 A 
ATOM     22  C   LIG    1      -20.432  83.359  12.966  0.00  0.00    +0.094 A 
ENDBRANCH   1  21
TORSDOF 1
ENDMDL
MODEL 3
REMARK VINA RESULT:      -5.7     16.934     18.631
REMARK  Name = pdb/CHEMBL176544.pdb
REMARK                            x       y       z     vdW  Elec       q    Type
REMARK                         _______ _______ _______ _____ _____    ______ ____
ROOT
ATOM      1  C   LIG    1      -24.936  77.553  32.020  0.00  0.00    +0.025 C 
ATOM      2  C   LIG    1      -25.651  76.423  32.114  0.00  0.00    +0.065 C 
ATOM      3  C   LIG    1      -27.106  76.349  31.970  0.00  0.00    +0.097 A 
ATOM      4  N   LIG    1      -27.958  77.356  31.720  0.00  0.00    -0.253 NA
ATOM      5  C   LIG    1      -29.255  76.970  31.638  0.00  0.00    +0.111 A 
ATOM      6  C   LIG    1      -29.703  75.650  31.792  0.00  0.00    +0.022 A 
ATOM      7  C   LIG    1      -28.778  74.636  32.051  0.00  0.00    +0.027 A 
ATOM      8  C   LIG    1      -27.460  75.017  32.136  0.00  0.00    +0.060 A 
ATOM      9  N   LIG    1      -26.338  74.238  32.383  0.00  0.00    -0.280 N 
ATOM     10  H   LIG    1      -26.321  73.244  32.554  0.00  0.00    +0.155 HD
ATOM     11  C   LIG    1      -25.184  75.018  32.402  0.00  0.00    +0.250 C 
ATOM     12  O   LIG    1      -24.062  74.612  32.627  0.00  0.00    -0.270 OA
ENDROOT
BRANCH   1  21
ATOM     13  C   LIG    1      -20.561  78.815  33.869  0.00  0.00    +0.149 C 
ATOM     14  N   LIG    1      -21.558  78.295  32.963  0.00  0.00    -0.349 N 
ATOM     15  C   LIG    1      -21.288  77.734  31.731  0.00  0.00    +0.049 A 
ATOM     16  C   LIG    1      -20.072  77.537  31.055  0.00  0.00    +0.026 A 
ATOM     17  C   LIG    1      -20.110  76.937  29.793  0.00  0.00    +0.002 A 
ATOM     18  C   LIG    1      -21.318  76.549  29.222  0.00  0.00    +0.001 A 
ATOM     19  C   LIG    1      -22.523  76.749  29.902  0.00  0.00    +0.010 A 
ATOM     20  C   LIG    1      -22.516  77.345  31.182  0.00  0.00    +0.007 A 
ATOM     21  C   LIG    1      -23.524  77.696  32.127  0.00  0.00    +0.001 A 
ATOM     22  C   LIG    1      -22.908  78.303  33.199  0.00  0.00    +0.094 A 
ENDBRANCH   1  21
TORSDOF 1
ENDMDL
MODEL 4
REMARK VINA RESULT:      -5.6     18.551     21.292
REMARK  Name = pdb/CHEMBL176544.pdb
REMARK                            x       y       z     vdW  Elec       q    Type
REMARK                         _______ _______ _______ _____ _____    ______ ____
ROOT
ATOM      1  C   LIG    1      -36.849  76.379  25.667  0.00  0.00    +0.025 C 
ATOM      2  C   LIG    1      -36.532  76.254  26.964  0.00  0.00    +0.065 C 
ATOM      3  C   LIG    1      -35.208  76.535  27.522  0.00  0.00    +0.097 A 
ATOM      4  N   LIG    1      -34.115  76.959  26.870  0.00  0.00    -0.253 NA
ATOM      5  C   LIG    1      -33.032  77.135  27.668  0.00  0.00    +0.111 A 
ATOM      6  C   LIG    1      -33.019  76.907  29.051  0.00  0.00    +0.022 A 
ATOM      7  C   LIG    1      -34.182  76.466  29.686  0.00  0.00    +0.027 A 
ATOM      8  C   LIG    1      -35.285  76.284  28.886  0.00  0.00    +0.060 A 
ATOM      9  N   LIG    1      -36.559  75.856  29.235  0.00  0.00    -0.280 N 
ATOM     10  H   LIG    1      -36.874  75.594  30.157  0.00  0.00    +0.155 HD
ATOM     11  C   LIG    1      -37.387  75.794  28.117  0.00  0.00    +0.250 C 
ATOM     12  O   LIG    1      -38.543  75.422  28.116  0.00  0.00    -0.270 OA
ENDROOT
BRANCH   1  21
ATOM     13  C   LIG    1      -41.282  77.298  23.754  0.00  0.00    +0.149 C 
ATOM     14  N   LIG    1      -40.124  76.572  24.221  0.00  0.00    -0.349 N 
ATOM     15  C   LIG    1      -39.991  75.198  24.197  0.00  0.00    +0.049 A 
ATOM     16  C   LIG    1      -40.873  74.196  23.761  0.00  0.00    +0.026 A 
ATOM     17  C   LIG    1      -40.459  72.865  23.866  0.00  0.00    +0.002 A 
ATOM     18  C   LIG    1      -39.212  72.542  24.390  0.00  0.00    +0.001 A 
ATOM     19  C   LIG    1      -38.340  73.548  24.822  0.00  0.00    +0.010 A 
ATOM     20  C   LIG    1      -38.727  74.902  24.720  0.00  0.00    +0.007 A 
ATOM     21  C   LIG    1      -38.115  76.145  25.059  0.00  0.00    +0.001 A 
ATOM     22  C   LIG    1      -39.008  77.151  24.767  0.00  0.00    +0.094 A 
ENDBRANCH   1  21
TORSDOF 1
ENDMDL
MODEL 5
REMARK VINA RESULT:      -5.5      2.123      6.480
REMARK  Name = pdb/CHEMBL176544.pdb
REMARK                            x       y       z     vdW  Elec       q    Type
REMARK                         _______ _______ _______ _____ _____    ______ ____
ROOT
ATOM      1  C   LIG    1      -21.973  82.644  13.948  0.00  0.00    +0.025 C 
ATOM      2  C   LIG    1      -22.172  83.755  14.672  0.00  0.00    +0.065 C 
ATOM      3  C   LIG    1      -22.149  85.113  14.125  0.00  0.00    +0.097 A 
ATOM      4  N   LIG    1      -21.940  85.482  12.852  0.00  0.00    -0.253 NA
ATOM      5  C   LIG    1      -21.982  86.824  12.655  0.00  0.00    +0.111 A 
ATOM      6  C   LIG    1      -22.223  87.768  13.663  0.00  0.00    +0.022 A 
ATOM      7  C   LIG    1      -22.436  87.335  14.973  0.00  0.00    +0.027 A 
ATOM      8  C   LIG    1      -22.394  85.977  15.184  0.00  0.00    +0.060 A 
ATOM      9  N   LIG    1      -22.564  85.269  16.366  0.00  0.00    -0.280 N 
ATOM     10  H   LIG    1      -22.738  85.658  17.281  0.00  0.00    +0.155 HD
ATOM     11  C   LIG    1      -22.431  83.900  16.150  0.00  0.00    +0.250 C 
ATOM     12  O   LIG    1      -22.497  83.041  17.006  0.00  0.00    -0.270 OA
ENDROOT
BRANCH   1  21
ATOM     13  C   LIG    1      -20.361  78.201  15.298  0.00  0.00    +0.149 C 
ATOM     14  N   LIG    1      -21.262  79.287  14.988  0.00  0.00    -0.349 N 
ATOM     15  C   LIG    1      -22.638  79.216  15.058  0.00  0.00    +0.049 A 
ATOM     16  C   LIG    1      -23.488  78.153  15.407  0.00  0.00    +0.026 A 
ATOM     17  C   LIG    1      -24.867  78.378  15.381  0.00  0.00    +0.002 A 
ATOM     18  C   LIG    1      -25.383  79.618  15.017  0.00  0.00    +0.001 A 
ATOM     19  C   LIG    1      -24.529  80.670  14.671  0.00  0.00    +0.010 A 
ATOM     20  C   LIG    1      -23.131  80.475  14.696  0.00  0.00    +0.007 A 
ATOM     21  C   LIG    1      -22.002  81.296  14.406  0.00  0.00    +0.001 A 
ATOM     22  C   LIG    1      -20.868  80.531  14.567  0.00  0.00    +0.094 A 
ENDBRANCH   1  21
TORSDOF 1
ENDMDL
MODEL 6
REMARK VINA RESULT:      -5.4     18.332     20.289
REMARK  Name = pdb/CHEMBL176544.pdb
REMARK                            x       y       z     vdW  Elec       q    Type
REMARK                         _______ _______ _______ _____ _____    ______ ____
ROOT
ATOM      1  C   LIG    1      -21.255  78.559  34.095  0.00  0.00    +0.025 C 
ATOM      2  C   LIG    1      -20.747  78.247  32.894  0.00  0.00    +0.065 C 
ATOM      3  C   LIG    1      -21.476  77.523  31.850  0.00  0.00    +0.097 A 
ATOM      4  N   LIG    1      -22.736  77.063  31.897  0.00  0.00    -0.253 NA
ATOM      5  C   LIG    1      -23.132  76.432  30.763  0.00  0.00    +0.111 A 
ATOM      6  C   LIG    1      -22.329  76.259  29.627  0.00  0.00    +0.022 A 
ATOM      7  C   LIG    1      -21.024  76.756  29.626  0.00  0.00    +0.027 A 
ATOM      8  C   LIG    1      -20.612  77.397  30.770  0.00  0.00    +0.060 A 
ATOM      9  N   LIG    1      -19.384  77.980  31.053  0.00  0.00    -0.280 N 
ATOM     10  H   LIG    1      -18.580  78.013  30.445  0.00  0.00    +0.155 HD
ATOM     11  C   LIG    1      -19.371  78.515  32.339  0.00  0.00    +0.250 C 
ATOM     12  O   LIG    1      -18.422  79.056  32.868  0.00  0.00    -0.270 OA
ENDROOT
BRANCH   1  21
ATOM     13  C   LIG    1      -18.071  79.594  37.693  0.00  0.00    +0.149 C 
ATOM     14  N   LIG    1      -19.187  79.718  36.784  0.00  0.00    -0.349 N 
ATOM     15  C   LIG    1      -20.076  80.774  36.765  0.00  0.00    +0.049 A 
ATOM     16  C   LIG    1      -20.153  81.926  37.563  0.00  0.00    +0.026 A 
ATOM     17  C   LIG    1      -21.186  82.834  37.311  0.00  0.00    +0.002 A 
ATOM     18  C   LIG    1      -22.112  82.601  36.299  0.00  0.00    +0.001 A 
ATOM     19  C   LIG    1      -22.027  81.450  35.508  0.00  0.00    +0.010 A 
ATOM     20  C   LIG    1      -20.990  80.519  35.735  0.00  0.00    +0.007 A 
ATOM     21  C   LIG    1      -20.616  79.275  35.145  0.00  0.00    +0.001 A 
ATOM     22  C   LIG    1      -19.522  78.793  35.829  0.00  0.00    +0.094 A 
ENDBRANCH   1  21
TORSDOF 1
ENDMDL
MODEL 7
REMARK VINA RESULT:      -5.4     20.845     22.200
REMARK  Name = pdb/CHEMBL176544.pdb
REMARK                            x       y       z     vdW  Elec       q    Type
REMARK                         _______ _______ _______ _____ _____    ______ ____
ROOT
ATOM      1  C   LIG    1      -37.543  71.775  24.789  0.00  0.00    +0.025 C 
ATOM      2  C   LIG    1      -37.016  71.542  25.999  0.00  0.00    +0.065 C 
ATOM      3  C   LIG    1      -35.814  70.739  26.239  0.00  0.00    +0.097 A 
ATOM      4  N   LIG    1      -35.047  70.120  25.329  0.00  0.00    -0.253 NA
ATOM      5  C   LIG    1      -33.993  69.453  25.862  0.00  0.00    +0.111 A 
ATOM      6  C   LIG    1      -33.700  69.395  27.232  0.00  0.00    +0.022 A 
ATOM      7  C   LIG    1      -34.529  70.056  28.140  0.00  0.00    +0.027 A 
ATOM      8  C   LIG    1      -35.600  70.735  27.611  0.00  0.00    +0.060 A 
ATOM      9  N   LIG    1      -36.581  71.470  28.263  0.00  0.00    -0.280 N 
ATOM     10  H   LIG    1      -36.664  71.611  29.258  0.00  0.00    +0.155 HD
ATOM     11  C   LIG    1      -37.500  71.990  27.355  0.00  0.00    +0.250 C 
ATOM     12  O   LIG    1      -38.481  72.645  27.642  0.00  0.00    -0.270 OA
ENDROOT
BRANCH   1  21
ATOM     13  C   LIG    1      -42.085  72.901  23.288  0.00  0.00    +0.149 C 
ATOM     14  N   LIG    1      -40.734  73.055  23.776  0.00  0.00    -0.349 N 
ATOM     15  C   LIG    1      -40.138  74.262  24.081  0.00  0.00    +0.049 A 
ATOM     16  C   LIG    1      -40.627  75.576  23.998  0.00  0.00    +0.026 A 
ATOM     17  C   LIG    1      -39.776  76.619  24.376  0.00  0.00    +0.002 A 
ATOM     18  C   LIG    1      -38.483  76.363  24.820  0.00  0.00    +0.001 A 
ATOM     19  C   LIG    1      -38.005  75.050  24.898  0.00  0.00    +0.010 A 
ATOM     20  C   LIG    1      -38.844  73.975  24.530  0.00  0.00    +0.007 A 
ATOM     21  C   LIG    1      -38.690  72.559  24.480  0.00  0.00    +0.001 A 
ATOM     22  C   LIG    1      -39.858  72.022  23.986  0.00  0.00    +0.094 A 
ENDBRANCH   1  21
TORSDOF 1
ENDMDL
MODEL 8
REMARK VINA RESULT:      -5.4     13.900     16.049
REMARK  Name = pdb/CHEMBL176544.pdb
REMARK                            x       y       z     vdW  Elec       q    Type
REMARK                         _______ _______ _______ _____ _____    ______ ____
ROOT
ATOM      1  C   LIG    1      -33.787  92.541  19.694  0.00  0.00    +0.025 C 
ATOM      2  C   LIG    1      -32.765  93.094  20.364  0.00  0.00    +0.065 C 
ATOM      3  C   LIG    1      -32.789  93.415  21.793  0.00  0.00    +0.097 A 
ATOM      4  N   LIG    1      -33.793  93.218  22.661  0.00  0.00    -0.253 NA
ATOM      5  C   LIG    1      -33.511  93.619  23.926  0.00  0.00    +0.111 A 
ATOM      6  C   LIG    1      -32.294  94.188  24.327  0.00  0.00    +0.022 A 
ATOM      7  C   LIG    1      -31.279  94.373  23.386  0.00  0.00    +0.027 A 
ATOM      8  C   LIG    1      -31.554  93.971  22.101  0.00  0.00    +0.060 A 
ATOM      9  N   LIG    1      -30.749  94.034  20.972  0.00  0.00    -0.280 N 
ATOM     10  H   LIG    1      -29.813  94.407  20.921  0.00  0.00    +0.155 HD
ATOM     11  C   LIG    1      -31.414  93.531  19.857  0.00  0.00    +0.250 C 
ATOM     12  O   LIG    1      -30.968  93.491  18.728  0.00  0.00    -0.270 OA
ENDROOT
BRANCH   1  21
ATOM     13  C   LIG    1      -34.267  93.008  14.826  0.00  0.00    +0.149 C 
ATOM     14  N   LIG    1      -34.071  92.405  16.124  0.00  0.00    -0.349 N 
ATOM     15  C   LIG    1      -33.869  91.058  16.345  0.00  0.00    +0.049 A 
ATOM     16  C   LIG    1      -33.814  89.976  15.451  0.00  0.00    +0.026 A 
ATOM     17  C   LIG    1      -33.598  88.699  15.976  0.00  0.00    +0.002 A 
ATOM     18  C   LIG    1      -33.444  88.504  17.345  0.00  0.00    +0.001 A 
ATOM     19  C   LIG    1      -33.500  89.588  18.228  0.00  0.00    +0.010 A 
ATOM     20  C   LIG    1      -33.710  90.891  17.726  0.00  0.00    +0.007 A 
ATOM     21  C   LIG    1      -33.827  92.184  18.318  0.00  0.00    +0.001 A 
ATOM     22  C   LIG    1      -34.077  93.090  17.311  0.00  0.00    +0.094 A 
ENDBRANCH   1  21
TORSDOF 1
ENDMDL
MODEL 9
REMARK VINA RESULT:      -5.3     16.644     18.730
REMARK  Name = pdb/CHEMBL176544.pdb
REMARK                            x       y       z     vdW  Elec       q    Type
REMARK                         _______ _______ _______ _____ _____    ______ ____
ROOT
ATOM      1  C   LIG    1      -24.897  77.291  31.290  0.00  0.00    +0.025 C 
ATOM      2  C   LIG    1      -25.617  76.218  31.648  0.00  0.00    +0.065 C 
ATOM      3  C   LIG    1      -27.078  76.199  31.753  0.00  0.00    +0.097 A 
ATOM      4  N   LIG    1      -27.931  77.207  31.514  0.00  0.00    -0.253 NA
ATOM      5  C   LIG    1      -29.234  76.878  31.697  0.00  0.00    +0.111 A 
ATOM      6  C   LIG    1      -29.686  75.612  32.095  0.00  0.00    +0.022 A 
ATOM      7  C   LIG    1      -28.760  74.595  32.332  0.00  0.00    +0.027 A 
ATOM      8  C   LIG    1      -27.436  74.917  32.151  0.00  0.00    +0.060 A 
ATOM      9  N   LIG    1      -26.310  74.121  32.313  0.00  0.00    -0.280 N 
ATOM     10  H   LIG    1      -26.293  73.157  32.610  0.00  0.00    +0.155 HD
ATOM     11  C   LIG    1      -25.148  74.840  32.040  0.00  0.00    +0.250 C 
ATOM     12  O   LIG    1      -24.016  74.411  32.132  0.00  0.00    -0.270 OA
ENDROOT
BRANCH   1  21
ATOM     13  C   LIG    1      -20.437  76.862  29.269  0.00  0.00    +0.149 C 
ATOM     14  N   LIG    1      -21.475  77.153  30.232  0.00  0.00    -0.349 N 
ATOM     15  C   LIG    1      -21.257  77.655  31.499  0.00  0.00    +0.049 A 
ATOM     16  C   LIG    1      -20.067  77.986  32.166  0.00  0.00    +0.026 A 
ATOM     17  C   LIG    1      -20.158  78.476  33.472  0.00  0.00    +0.002 A 
ATOM     18  C   LIG    1      -21.393  78.629  34.094  0.00  0.00    +0.001 A 
ATOM     19  C   LIG    1      -22.574  78.297  33.421  0.00  0.00    +0.010 A 
ATOM     20  C   LIG    1      -22.514  77.807  32.098  0.00  0.00    +0.007 A 
ATOM     21  C   LIG    1      -23.484  77.376  31.146  0.00  0.00    +0.001 A 
ATOM     22  C   LIG    1      -22.814  76.954  30.019  0.00  0.00    +0.094 A 
ENDBRANCH   1  21
TORSDOF 1
ENDMDL
