MODEL 1
REMARK VINA RESULT:      -6.8      0.000      0.000
REMARK  Name = pdb/CHEMBL2005886.pdb
REMARK                            x       y       z     vdW  Elec       q    Type
REMARK                         _______ _______ _______ _____ _____    ______ ____
ROOT
ATOM      1  C   LIG    1      -19.239  77.482  32.482  0.00  0.00    +0.102 A 
ATOM      2  C   LIG    1      -18.104  76.888  33.294  0.00  0.00    +0.261 A 
ATOM      3  O   LIG    1      -18.011  77.022  34.508  0.00  0.00    -0.267 OA
ATOM      4  N   LIG    1      -17.181  76.160  32.609  0.00  0.00    -0.328 N 
ATOM      5  H   LIG    1      -16.417  75.775  33.151  0.00  0.00    +0.168 HD
ATOM      6  C   LIG    1      -17.249  75.911  31.262  0.00  0.00    +0.088 A 
ATOM      7  C   LIG    1      -18.254  76.411  30.543  0.00  0.00    +0.041 A 
ATOM      8  C   LIG    1      -19.317  77.219  31.154  0.00  0.00    +0.045 A 
ENDROOT
BRANCH   1  13
ATOM      9  C   LIG    1      -24.452  78.807  34.098  0.00  0.00    +0.046 C 
ATOM     10  C   LIG    1      -23.218  79.549  34.507  0.00  0.00    -0.021 A 
ATOM     11  C   LIG    1      -21.937  79.192  34.072  0.00  0.00    +0.092 A 
ATOM     12  N   LIG    1      -21.536  78.172  33.233  0.00  0.00    -0.227 NA
ATOM     13  C   LIG    1      -20.216  78.270  33.157  0.00  0.00    +0.146 A 
ATOM     14  N   LIG    1      -19.782  79.329  33.922  0.00  0.00    -0.338 N 
ATOM     15  H   LIG    1      -18.816  79.624  34.010  0.00  0.00    +0.167 HD
ATOM     16  C   LIG    1      -20.851  79.915  34.533  0.00  0.00    +0.068 A 
ATOM     17  C   LIG    1      -20.934  80.978  35.436  0.00  0.00    +0.051 A 
ATOM     18  C   LIG    1      -22.193  81.317  35.956  0.00  0.00    +0.032 A 
ATOM     19  C   LIG    1      -23.305  80.608  35.443  0.00  0.00    +0.028 A 
BRANCH  18  20
ATOM     20  N   LIG    1      -22.346  82.346  36.923  0.00  0.00    -0.325 N 
ATOM     21  C   LIG    1      -23.598  82.271  37.715  0.00  0.00    +0.133 C 
ATOM     22  C   LIG    1      -23.737  83.446  38.685  0.00  0.00    +0.178 C 
ATOM     23  O   LIG    1      -22.598  83.567  39.542  0.00  0.00    -0.377 OA
ATOM     24  C   LIG    1      -21.427  83.785  38.747  0.00  0.00    +0.178 C 
ATOM     25  C   LIG    1      -21.165  82.611  37.790  0.00  0.00    +0.133 C 
ENDBRANCH  18  20
ENDBRANCH   1  13
BRANCH   8  26
ATOM     26  N   LIG    1      -20.276  77.706  30.244  0.00  0.00    -0.340 N 
ATOM     27  H   LIG    1      -20.743  78.499  30.706  0.00  0.00    +0.146 HD
BRANCH  26  28
ATOM     28  C   LIG    1      -21.372  76.811  29.783  0.00  0.00    +0.137 C 
BRANCH  28  29
ATOM     29  C   LIG    1      -22.770  77.433  30.027  0.00  0.00    +0.161 C 
BRANCH  29  30
ATOM     30  C   LIG    1      -23.762  76.439  30.601  0.00  0.00    -0.016 A 
ATOM     31  C   LIG    1      -25.033  76.823  31.054  0.00  0.00    +0.026 A 
ATOM     32  C   LIG    1      -25.924  75.870  31.547  0.00  0.00    +0.041 A 
ATOM     33 CL   LIG    1      -27.479  76.358  32.100  0.00  0.00    -0.084 Cl
ATOM     34  C   LIG    1      -25.570  74.524  31.590  0.00  0.00    +0.020 A 
ATOM     35  C   LIG    1      -24.316  74.125  31.134  0.00  0.00    +0.002 A 
ATOM     36  C   LIG    1      -23.419  75.075  30.642  0.00  0.00    +0.006 A 
ENDBRANCH  29  30
BRANCH  29  37
ATOM     37  O   LIG    1      -23.285  78.054  28.846  0.00  0.00    -0.386 OA
ATOM     38  H   LIG    1      -22.861  78.929  28.796  0.00  0.00    +0.210 HD
ENDBRANCH  29  37
ENDBRANCH  28  29
ENDBRANCH  26  28
ENDBRANCH   8  26
TORSDOF 7
ENDMDL
MODEL 2
REMARK VINA RESULT:      -6.7     15.548     19.320
REMARK  Name = pdb/CHEMBL2005886.pdb
REMARK                            x       y       z     vdW  Elec       q    Type
REMARK                         _______ _______ _______ _____ _____    ______ ____
ROOT
ATOM      1  C   LIG    1      -39.123  75.953  24.655  0.00  0.00    +0.102 A 
ATOM      2  C   LIG    1      -40.233  75.150  24.004  0.00  0.00    +0.261 A 
ATOM      3  O   LIG    1      -41.224  75.665  23.503  0.00  0.00    -0.267 OA
ATOM      4  N   LIG    1      -40.069  73.799  23.973  0.00  0.00    -0.328 N 
ATOM      5  H   LIG    1      -40.816  73.263  23.549  0.00  0.00    +0.168 HD
ATOM      6  C   LIG    1      -38.959  73.151  24.454  0.00  0.00    +0.088 A 
ATOM      7  C   LIG    1      -37.970  73.850  25.010  0.00  0.00    +0.041 A 
ATOM      8  C   LIG    1      -38.017  75.315  25.112  0.00  0.00    +0.045 A 
ENDROOT
BRANCH   1  13
ATOM      9  C   LIG    1      -39.461  80.886  27.317  0.00  0.00    +0.046 C 
ATOM     10  C   LIG    1      -39.487  80.718  25.830  0.00  0.00    -0.021 A 
ATOM     11  C   LIG    1      -39.411  79.467  25.206  0.00  0.00    +0.092 A 
ATOM     12  N   LIG    1      -39.313  78.205  25.755  0.00  0.00    -0.227 NA
ATOM     13  C   LIG    1      -39.265  77.369  24.727  0.00  0.00    +0.146 A 
ATOM     14  N   LIG    1      -39.336  78.077  23.548  0.00  0.00    -0.338 N 
ATOM     15  H   LIG    1      -39.341  77.663  22.622  0.00  0.00    +0.167 HD
ATOM     16  C   LIG    1      -39.405  79.411  23.824  0.00  0.00    +0.068 A 
ATOM     17  C   LIG    1      -39.443  80.529  22.987  0.00  0.00    +0.051 A 
ATOM     18  C   LIG    1      -39.441  81.805  23.573  0.00  0.00    +0.032 A 
ATOM     19  C   LIG    1      -39.499  81.854  24.986  0.00  0.00    +0.028 A 
BRANCH  18  20
ATOM     20  N   LIG    1      -39.418  82.985  22.785  0.00  0.00    -0.325 N 
ATOM     21  C   LIG    1      -40.429  83.025  21.699  0.00  0.00    +0.133 C 
ATOM     22  C   LIG    1      -40.304  84.287  20.843  0.00  0.00    +0.178 C 
ATOM     23  O   LIG    1      -40.361  85.476  21.635  0.00  0.00    -0.377 OA
ATOM     24  C   LIG    1      -39.282  85.472  22.576  0.00  0.00    +0.178 C 
ATOM     25  C   LIG    1      -39.369  84.272  23.533  0.00  0.00    +0.133 C 
ENDBRANCH  18  20
ENDBRANCH   1  13
BRANCH   8  26
ATOM     26  N   LIG    1      -36.911  75.891  25.767  0.00  0.00    -0.340 N 
ATOM     27  H   LIG    1      -36.086  75.337  25.491  0.00  0.00    +0.146 HD
BRANCH  26  28
ATOM     28  C   LIG    1      -36.880  75.939  27.253  0.00  0.00    +0.137 C 
BRANCH  28  29
ATOM     29  C   LIG    1      -35.449  75.732  27.811  0.00  0.00    +0.161 C 
BRANCH  29  30
ATOM     30  C   LIG    1      -34.549  76.931  27.579  0.00  0.00    -0.016 A 
ATOM     31  C   LIG    1      -34.895  78.222  28.005  0.00  0.00    +0.026 A 
ATOM     32  C   LIG    1      -34.022  79.291  27.796  0.00  0.00    +0.041 A 
ATOM     33 CL   LIG    1      -34.461  80.869  28.323  0.00  0.00    -0.084 Cl
ATOM     34  C   LIG    1      -32.794  79.091  27.170  0.00  0.00    +0.020 A 
ATOM     35  C   LIG    1      -32.432  77.813  26.752  0.00  0.00    +0.002 A 
ATOM     36  C   LIG    1      -33.302  76.741  26.956  0.00  0.00    +0.006 A 
ENDBRANCH  29  30
BRANCH  29  37
ATOM     37  O   LIG    1      -34.855  74.534  27.307  0.00  0.00    -0.386 OA
ATOM     38  H   LIG    1      -33.951  74.775  27.037  0.00  0.00    +0.210 HD
ENDBRANCH  29  37
ENDBRANCH  28  29
ENDBRANCH  26  28
ENDBRANCH   8  26
TORSDOF 7
ENDMDL
MODEL 3
REMARK VINA RESULT:      -6.6     13.273     17.081
REMARK  Name = pdb/CHEMBL2005886.pdb
REMARK                            x       y       z     vdW  Elec       q    Type
REMARK                         _______ _______ _______ _____ _____    ______ ____
ROOT
ATOM      1  C   LIG    1      -35.678  70.435  27.573  0.00  0.00    +0.102 A 
ATOM      2  C   LIG    1      -35.993  69.398  28.634  0.00  0.00    +0.261 A 
ATOM      3  O   LIG    1      -35.650  69.514  29.804  0.00  0.00    -0.267 OA
ATOM      4  N   LIG    1      -36.713  68.316  28.232  0.00  0.00    -0.328 N 
ATOM      5  H   LIG    1      -36.912  67.618  28.938  0.00  0.00    +0.168 HD
ATOM      6  C   LIG    1      -37.189  68.143  26.957  0.00  0.00    +0.088 A 
ATOM      7  C   LIG    1      -36.935  69.059  26.022  0.00  0.00    +0.041 A 
ATOM      8  C   LIG    1      -36.165  70.275  26.318  0.00  0.00    +0.045 A 
ENDROOT
BRANCH   1  13
ATOM      9  C   LIG    1      -31.226  73.041  29.794  0.00  0.00    +0.046 C 
ATOM     10  C   LIG    1      -32.380  73.734  29.139  0.00  0.00    -0.021 A 
ATOM     11  C   LIG    1      -33.477  73.047  28.608  0.00  0.00    +0.092 A 
ATOM     12  N   LIG    1      -33.743  71.693  28.568  0.00  0.00    -0.227 NA
ATOM     13  C   LIG    1      -34.908  71.574  27.947  0.00  0.00    +0.146 A 
ATOM     14  N   LIG    1      -35.381  72.821  27.602  0.00  0.00    -0.338 N 
ATOM     15  H   LIG    1      -36.265  72.999  27.138  0.00  0.00    +0.167 HD
ATOM     16  C   LIG    1      -34.480  73.770  27.988  0.00  0.00    +0.068 A 
ATOM     17  C   LIG    1      -34.470  75.158  27.826  0.00  0.00    +0.051 A 
ATOM     18  C   LIG    1      -33.351  75.876  28.276  0.00  0.00    +0.032 A 
ATOM     19  C   LIG    1      -32.353  75.137  28.954  0.00  0.00    +0.028 A 
BRANCH  18  20
ATOM     20  N   LIG    1      -33.245  77.279  28.092  0.00  0.00    -0.325 N 
ATOM     21  C   LIG    1      -32.521  77.691  26.863  0.00  0.00    +0.133 C 
ATOM     22  C   LIG    1      -32.378  79.210  26.761  0.00  0.00    +0.178 C 
ATOM     23  O   LIG    1      -33.642  79.873  26.853  0.00  0.00    -0.377 OA
ATOM     24  C   LIG    1      -34.246  79.569  28.116  0.00  0.00    +0.178 C 
ATOM     25  C   LIG    1      -34.499  78.062  28.275  0.00  0.00    +0.133 C 
ENDBRANCH  18  20
ENDBRANCH   1  13
BRANCH   8  26
ATOM     26  N   LIG    1      -35.950  71.114  25.207  0.00  0.00    -0.340 N 
ATOM     27  H   LIG    1      -35.502  71.969  25.567  0.00  0.00    +0.146 HD
BRANCH  26  28
ATOM     28  C   LIG    1      -37.112  71.581  24.403  0.00  0.00    +0.137 C 
BRANCH  28  29
ATOM     29  C   LIG    1      -37.987  72.594  25.183  0.00  0.00    +0.161 C 
BRANCH  29  30
ATOM     30  C   LIG    1      -39.278  72.932  24.461  0.00  0.00    -0.016 A 
ATOM     31  C   LIG    1      -40.094  71.948  23.881  0.00  0.00    +0.026 A 
ATOM     32  C   LIG    1      -41.288  72.302  23.252  0.00  0.00    +0.041 A 
ATOM     33 CL   LIG    1      -42.276  71.083  22.545  0.00  0.00    -0.084 Cl
ATOM     34  C   LIG    1      -41.692  73.634  23.197  0.00  0.00    +0.020 A 
ATOM     35  C   LIG    1      -40.899  74.620  23.778  0.00  0.00    +0.002 A 
ATOM     36  C   LIG    1      -39.702  74.272  24.406  0.00  0.00    +0.006 A 
ENDBRANCH  29  30
BRANCH  29  37
ATOM     37  O   LIG    1      -37.257  73.777  25.515  0.00  0.00    -0.386 OA
ATOM     38  H   LIG    1      -36.570  73.869  24.831  0.00  0.00    +0.210 HD
ENDBRANCH  29  37
ENDBRANCH  28  29
ENDBRANCH  26  28
ENDBRANCH   8  26
TORSDOF 7
ENDMDL
MODEL 4
REMARK VINA RESULT:      -6.5     18.052     21.529
REMARK  Name = pdb/CHEMBL2005886.pdb
REMARK                            x       y       z     vdW  Elec       q    Type
REMARK                         _______ _______ _______ _____ _____    ______ ____
ROOT
ATOM      1  C   LIG    1      -22.099  85.301  13.275  0.00  0.00    +0.102 A 
ATOM      2  C   LIG    1      -23.056  86.285  12.629  0.00  0.00    +0.261 A 
ATOM      3  O   LIG    1      -24.252  86.064  12.498  0.00  0.00    -0.267 OA
ATOM      4  N   LIG    1      -22.524  87.467  12.214  0.00  0.00    -0.328 N 
ATOM      5  H   LIG    1      -23.162  88.118  11.771  0.00  0.00    +0.168 HD
ATOM      6  C   LIG    1      -21.209  87.817  12.382  0.00  0.00    +0.088 A 
ATOM      7  C   LIG    1      -20.364  86.967  12.966  0.00  0.00    +0.041 A 
ATOM      8  C   LIG    1      -20.802  85.655  13.460  0.00  0.00    +0.045 A 
ENDROOT
BRANCH   1  13
ATOM      9  C   LIG    1      -22.679  81.025  16.868  0.00  0.00    +0.046 C 
ATOM     10  C   LIG    1      -23.390  81.137  15.556  0.00  0.00    -0.021 A 
ATOM     11  C   LIG    1      -23.208  82.216  14.684  0.00  0.00    +0.092 A 
ATOM     12  N   LIG    1      -22.401  83.329  14.803  0.00  0.00    -0.227 NA
ATOM     13  C   LIG    1      -22.609  84.043  13.706  0.00  0.00    +0.146 A 
ATOM     14  N   LIG    1      -23.523  83.401  12.899  0.00  0.00    -0.338 N 
ATOM     15  H   LIG    1      -23.832  83.734  11.993  0.00  0.00    +0.167 HD
ATOM     16  C   LIG    1      -23.937  82.253  13.509  0.00  0.00    +0.068 A 
ATOM     17  C   LIG    1      -24.877  81.291  13.130  0.00  0.00    +0.051 A 
ATOM     18  C   LIG    1      -25.146  80.234  14.014  0.00  0.00    +0.032 A 
ATOM     19  C   LIG    1      -24.361  80.174  15.190  0.00  0.00    +0.028 A 
BRANCH  18  20
ATOM     20  N   LIG    1      -26.130  79.254  13.724  0.00  0.00    -0.325 N 
ATOM     21  C   LIG    1      -26.571  79.218  12.307  0.00  0.00    +0.133 C 
ATOM     22  C   LIG    1      -27.683  78.193  12.076  0.00  0.00    +0.178 C 
ATOM     23  O   LIG    1      -27.307  76.888  12.525  0.00  0.00    -0.377 OA
ATOM     24  C   LIG    1      -27.031  76.932  13.930  0.00  0.00    +0.178 C 
ATOM     25  C   LIG    1      -25.869  77.885  14.250  0.00  0.00    +0.133 C 
ENDBRANCH  18  20
ENDBRANCH   1  13
BRANCH   8  26
ATOM     26  N   LIG    1      -19.774  84.865  14.009  0.00  0.00    -0.340 N 
ATOM     27  H   LIG    1      -19.059  85.517  14.363  0.00  0.00    +0.146 HD
BRANCH  26  28
ATOM     28  C   LIG    1      -19.042  83.903  13.141  0.00  0.00    +0.137 C 
BRANCH  28  29
ATOM     29  C   LIG    1      -19.147  82.450  13.668  0.00  0.00    +0.161 C 
BRANCH  29  30
ATOM     30  C   LIG    1      -20.067  81.586  12.824  0.00  0.00    -0.016 A 
ATOM     31  C   LIG    1      -20.603  80.378  13.296  0.00  0.00    +0.026 A 
ATOM     32  C   LIG    1      -21.468  79.631  12.496  0.00  0.00    +0.041 A 
ATOM     33 CL   LIG    1      -22.117  78.151  13.090  0.00  0.00    -0.084 Cl
ATOM     34  C   LIG    1      -21.818  80.075  11.223  0.00  0.00    +0.020 A 
ATOM     35  C   LIG    1      -21.303  81.277  10.746  0.00  0.00    +0.002 A 
ATOM     36  C   LIG    1      -20.434  82.027  11.541  0.00  0.00    +0.006 A 
ENDBRANCH  29  30
BRANCH  29  37
ATOM     37  O   LIG    1      -19.524  82.413  15.046  0.00  0.00    -0.386 OA
ATOM     38  H   LIG    1      -18.998  83.103  15.487  0.00  0.00    +0.210 HD
ENDBRANCH  29  37
ENDBRANCH  28  29
ENDBRANCH  26  28
ENDBRANCH   8  26
TORSDOF 7
ENDMDL
MODEL 5
REMARK VINA RESULT:      -6.5     18.796     21.262
REMARK  Name = pdb/CHEMBL2005886.pdb
REMARK                            x       y       z     vdW  Elec       q    Type
REMARK                         _______ _______ _______ _____ _____    ______ ____
ROOT
ATOM      1  C   LIG    1      -25.916  79.743  11.329  0.00  0.00    +0.102 A 
ATOM      2  C   LIG    1      -26.911  80.426  10.410  0.00  0.00    +0.261 A 
ATOM      3  O   LIG    1      -26.750  81.560   9.977  0.00  0.00    -0.267 OA
ATOM      4  N   LIG    1      -28.007  79.703  10.054  0.00  0.00    -0.328 N 
ATOM      5  H   LIG    1      -28.677  80.165   9.451  0.00  0.00    +0.168 HD
ATOM      6  C   LIG    1      -28.229  78.407  10.444  0.00  0.00    +0.088 A 
ATOM      7  C   LIG    1      -27.351  77.790  11.235  0.00  0.00    +0.041 A 
ATOM      8  C   LIG    1      -26.126  78.455  11.699  0.00  0.00    +0.045 A 
ENDROOT
BRANCH   1  13
ATOM      9  C   LIG    1      -20.412  80.490  12.153  0.00  0.00    +0.046 C 
ATOM     10  C   LIG    1      -21.462  81.519  12.434  0.00  0.00    -0.021 A 
ATOM     11  C   LIG    1      -22.827  81.287  12.225  0.00  0.00    +0.092 A 
ATOM     12  N   LIG    1      -23.476  80.161  11.761  0.00  0.00    -0.227 NA
ATOM     13  C   LIG    1      -24.765  80.472  11.744  0.00  0.00    +0.146 A 
ATOM     14  N   LIG    1      -24.939  81.763  12.190  0.00  0.00    -0.338 N 
ATOM     15  H   LIG    1      -25.835  82.227  12.291  0.00  0.00    +0.167 HD
ATOM     16  C   LIG    1      -23.723  82.310  12.478  0.00  0.00    +0.068 A 
ATOM     17  C   LIG    1      -23.361  83.589  12.911  0.00  0.00    +0.051 A 
ATOM     18  C   LIG    1      -21.997  83.885  13.057  0.00  0.00    +0.032 A 
ATOM     19  C   LIG    1      -21.090  82.821  12.846  0.00  0.00    +0.028 A 
BRANCH  18  20
ATOM     20  N   LIG    1      -21.554  85.180  13.435  0.00  0.00    -0.325 N 
ATOM     21  C   LIG    1      -22.304  85.788  14.561  0.00  0.00    +0.133 C 
ATOM     22  C   LIG    1      -21.827  87.209  14.870  0.00  0.00    +0.178 C 
ATOM     23  O   LIG    1      -20.418  87.257  15.112  0.00  0.00    -0.377 OA
ATOM     24  C   LIG    1      -19.721  86.800  13.947  0.00  0.00    +0.178 C 
ATOM     25  C   LIG    1      -20.084  85.347  13.604  0.00  0.00    +0.133 C 
ENDBRANCH  18  20
ENDBRANCH   1  13
BRANCH   8  26
ATOM     26  N   LIG    1      -25.331  77.677  12.563  0.00  0.00    -0.340 N 
ATOM     27  H   LIG    1      -25.283  76.734  12.150  0.00  0.00    +0.146 HD
BRANCH  26  28
ATOM     28  C   LIG    1      -25.761  77.473  13.973  0.00  0.00    +0.137 C 
BRANCH  28  29
ATOM     29  C   LIG    1      -25.699  78.785  14.794  0.00  0.00    +0.161 C 
BRANCH  29  30
ATOM     30  C   LIG    1      -24.278  79.205  15.122  0.00  0.00    -0.016 A 
ATOM     31  C   LIG    1      -23.965  80.488  15.595  0.00  0.00    +0.026 A 
ATOM     32  C   LIG    1      -22.648  80.821  15.912  0.00  0.00    +0.041 A 
ATOM     33 CL   LIG    1      -22.280  82.400  16.490  0.00  0.00    -0.084 Cl
ATOM     34  C   LIG    1      -21.627  79.884  15.773  0.00  0.00    +0.020 A 
ATOM     35  C   LIG    1      -21.924  78.602  15.316  0.00  0.00    +0.002 A 
ATOM     36  C   LIG    1      -23.240  78.265  14.994  0.00  0.00    +0.006 A 
ENDBRANCH  29  30
BRANCH  29  37
ATOM     37  O   LIG    1      -26.501  78.708  15.975  0.00  0.00    -0.386 OA
ATOM     38  H   LIG    1      -27.416  78.574  15.670  0.00  0.00    +0.210 HD
ENDBRANCH  29  37
ENDBRANCH  28  29
ENDBRANCH  26  28
ENDBRANCH   8  26
TORSDOF 7
ENDMDL
MODEL 6
REMARK VINA RESULT:      -6.4     17.130     21.547
REMARK  Name = pdb/CHEMBL2005886.pdb
REMARK                            x       y       z     vdW  Elec       q    Type
REMARK                         _______ _______ _______ _____ _____    ______ ____
ROOT
ATOM      1  C   LIG    1      -34.771  68.592  25.830  0.00  0.00    +0.102 A 
ATOM      2  C   LIG    1      -34.229  67.554  26.794  0.00  0.00    +0.261 A 
ATOM      3  O   LIG    1      -34.058  66.382  26.485  0.00  0.00    -0.267 OA
ATOM      4  N   LIG    1      -33.907  67.991  28.042  0.00  0.00    -0.328 N 
ATOM      5  H   LIG    1      -33.558  67.295  28.688  0.00  0.00    +0.168 HD
ATOM      6  C   LIG    1      -34.010  69.298  28.445  0.00  0.00    +0.088 A 
ATOM      7  C   LIG    1      -34.465  70.222  27.599  0.00  0.00    +0.041 A 
ATOM      8  C   LIG    1      -34.853  69.888  26.222  0.00  0.00    +0.045 A 
ENDROOT
BRANCH   1  13
ATOM      9  C   LIG    1      -37.804  68.789  21.108  0.00  0.00    +0.046 C 
ATOM     10  C   LIG    1      -36.656  67.859  21.344  0.00  0.00    -0.021 A 
ATOM     11  C   LIG    1      -35.932  67.835  22.542  0.00  0.00    +0.092 A 
ATOM     12  N   LIG    1      -36.090  68.583  23.691  0.00  0.00    -0.227 NA
ATOM     13  C   LIG    1      -35.140  68.173  24.519  0.00  0.00    +0.146 A 
ATOM     14  N   LIG    1      -34.395  67.182  23.919  0.00  0.00    -0.338 N 
ATOM     15  H   LIG    1      -33.624  66.690  24.357  0.00  0.00    +0.167 HD
ATOM     16  C   LIG    1      -34.861  66.967  22.656  0.00  0.00    +0.068 A 
ATOM     17  C   LIG    1      -34.423  66.114  21.640  0.00  0.00    +0.051 A 
ATOM     18  C   LIG    1      -35.073  66.164  20.396  0.00  0.00    +0.032 A 
ATOM     19  C   LIG    1      -36.198  67.017  20.303  0.00  0.00    +0.028 A 
BRANCH  18  20
ATOM     20  N   LIG    1      -34.644  65.371  19.300  0.00  0.00    -0.325 N 
ATOM     21  C   LIG    1      -33.507  64.466  19.597  0.00  0.00    +0.133 C 
ATOM     22  C   LIG    1      -33.046  63.695  18.359  0.00  0.00    +0.178 C 
ATOM     23  O   LIG    1      -34.122  62.977  17.747  0.00  0.00    -0.377 OA
ATOM     24  C   LIG    1      -35.137  63.901  17.340  0.00  0.00    +0.178 C 
ATOM     25  C   LIG    1      -35.715  64.672  18.538  0.00  0.00    +0.133 C 
ENDBRANCH  18  20
ENDBRANCH   1  13
BRANCH   8  26
ATOM     26  N   LIG    1      -35.355  70.973  25.477  0.00  0.00    -0.340 N 
ATOM     27  H   LIG    1      -34.684  71.746  25.596  0.00  0.00    +0.146 HD
BRANCH  26  28
ATOM     28  C   LIG    1      -36.685  71.545  25.817  0.00  0.00    +0.137 C 
BRANCH  28  29
ATOM     29  C   LIG    1      -37.658  71.507  24.612  0.00  0.00    +0.161 C 
BRANCH  29  30
ATOM     30  C   LIG    1      -38.538  72.740  24.529  0.00  0.00    -0.016 A 
ATOM     31  C   LIG    1      -38.090  74.010  24.924  0.00  0.00    +0.026 A 
ATOM     32  C   LIG    1      -38.924  75.122  24.802  0.00  0.00    +0.041 A 
ATOM     33 CL   LIG    1      -38.359  76.672  25.294  0.00  0.00    -0.084 Cl
ATOM     34  C   LIG    1      -40.208  74.991  24.279  0.00  0.00    +0.020 A 
ATOM     35  C   LIG    1      -40.663  73.739  23.871  0.00  0.00    +0.002 A 
ATOM     36  C   LIG    1      -39.834  72.623  23.994  0.00  0.00    +0.006 A 
ENDBRANCH  29  30
BRANCH  29  37
ATOM     37  O   LIG    1      -38.442  70.312  24.604  0.00  0.00    -0.386 OA
ATOM     38  H   LIG    1      -39.371  70.599  24.663  0.00  0.00    +0.210 HD
ENDBRANCH  29  37
ENDBRANCH  28  29
ENDBRANCH  26  28
ENDBRANCH   8  26
TORSDOF 7
ENDMDL
MODEL 7
REMARK VINA RESULT:      -6.4     17.690     20.198
REMARK  Name = pdb/CHEMBL2005886.pdb
REMARK                            x       y       z     vdW  Elec       q    Type
REMARK                         _______ _______ _______ _____ _____    ______ ____
ROOT
ATOM      1  C   LIG    1      -35.926  69.956  26.245  0.00  0.00    +0.102 A 
ATOM      2  C   LIG    1      -35.710  70.037  27.745  0.00  0.00    +0.261 A 
ATOM      3  O   LIG    1      -36.358  70.777  28.473  0.00  0.00    -0.267 OA
ATOM      4  N   LIG    1      -34.760  69.215  28.268  0.00  0.00    -0.328 N 
ATOM      5  H   LIG    1      -34.608  69.279  29.266  0.00  0.00    +0.168 HD
ATOM      6  C   LIG    1      -34.037  68.313  27.529  0.00  0.00    +0.088 A 
ATOM      7  C   LIG    1      -34.234  68.219  26.214  0.00  0.00    +0.041 A 
ATOM      8  C   LIG    1      -35.226  69.050  25.518  0.00  0.00    +0.045 A 
ENDROOT
BRANCH   1  13
ATOM      9  C   LIG    1      -40.634  71.089  23.401  0.00  0.00    +0.046 C 
ATOM     10  C   LIG    1      -39.729  72.122  23.996  0.00  0.00    -0.021 A 
ATOM     11  C   LIG    1      -38.558  71.796  24.689  0.00  0.00    +0.092 A 
ATOM     12  N   LIG    1      -37.998  70.564  24.960  0.00  0.00    -0.227 NA
ATOM     13  C   LIG    1      -36.896  70.815  25.653  0.00  0.00    +0.146 A 
ATOM     14  N   LIG    1      -36.749  72.174  25.818  0.00  0.00    -0.338 N 
ATOM     15  H   LIG    1      -35.973  72.620  26.294  0.00  0.00    +0.167 HD
ATOM     16  C   LIG    1      -37.802  72.817  25.238  0.00  0.00    +0.068 A 
ATOM     17  C   LIG    1      -38.138  74.172  25.173  0.00  0.00    +0.051 A 
ATOM     18  C   LIG    1      -39.346  74.534  24.555  0.00  0.00    +0.032 A 
ATOM     19  C   LIG    1      -40.088  73.491  23.953  0.00  0.00    +0.028 A 
BRANCH  18  20
ATOM     20  N   LIG    1      -39.781  75.884  24.506  0.00  0.00    -0.325 N 
ATOM     21  C   LIG    1      -38.692  76.881  24.358  0.00  0.00    +0.133 C 
ATOM     22  C   LIG    1      -39.219  78.317  24.386  0.00  0.00    +0.178 C 
ATOM     23  O   LIG    1      -40.240  78.529  23.406  0.00  0.00    -0.377 OA
ATOM     24  C   LIG    1      -41.339  77.649  23.669  0.00  0.00    +0.178 C 
ATOM     25  C   LIG    1      -40.916  76.174  23.587  0.00  0.00    +0.133 C 
ENDBRANCH  18  20
ENDBRANCH   1  13
BRANCH   8  26
ATOM     26  N   LIG    1      -35.274  68.856  24.124  0.00  0.00    -0.340 N 
ATOM     27  H   LIG    1      -35.633  69.733  23.718  0.00  0.00    +0.146 HD
BRANCH  26  28
ATOM     28  C   LIG    1      -36.129  67.777  23.561  0.00  0.00    +0.137 C 
BRANCH  28  29
ATOM     29  C   LIG    1      -36.995  68.279  22.378  0.00  0.00    +0.161 C 
BRANCH  29  30
ATOM     30  C   LIG    1      -36.589  67.666  21.051  0.00  0.00    -0.016 A 
ATOM     31  C   LIG    1      -35.634  66.643  20.958  0.00  0.00    +0.026 A 
ATOM     32  C   LIG    1      -35.313  66.088  19.719  0.00  0.00    +0.041 A 
ATOM     33 CL   LIG    1      -34.138  64.834  19.622  0.00  0.00    -0.084 Cl
ATOM     34  C   LIG    1      -35.941  66.534  18.559  0.00  0.00    +0.020 A 
ATOM     35  C   LIG    1      -36.900  67.541  18.636  0.00  0.00    +0.002 A 
ATOM     36  C   LIG    1      -37.222  68.102  19.873  0.00  0.00    +0.006 A 
ENDBRANCH  29  30
BRANCH  29  37
ATOM     37  O   LIG    1      -37.010  69.707  22.305  0.00  0.00    -0.386 OA
ATOM     38  H   LIG    1      -37.304  70.018  23.179  0.00  0.00    +0.210 HD
ENDBRANCH  29  37
ENDBRANCH  28  29
ENDBRANCH  26  28
ENDBRANCH   8  26
TORSDOF 7
ENDMDL
MODEL 8
REMARK VINA RESULT:      -6.3     16.780     19.747
REMARK  Name = pdb/CHEMBL2005886.pdb
REMARK                            x       y       z     vdW  Elec       q    Type
REMARK                         _______ _______ _______ _____ _____    ______ ____
ROOT
ATOM      1  C   LIG    1      -35.725  67.763  22.937  0.00  0.00    +0.102 A 
ATOM      2  C   LIG    1      -34.921  67.127  21.819  0.00  0.00    +0.261 A 
ATOM      3  O   LIG    1      -33.793  66.678  21.980  0.00  0.00    -0.267 OA
ATOM      4  N   LIG    1      -35.526  67.047  20.603  0.00  0.00    -0.328 N 
ATOM      5  H   LIG    1      -34.983  66.634  19.854  0.00  0.00    +0.168 HD
ATOM      6  C   LIG    1      -36.808  67.468  20.357  0.00  0.00    +0.088 A 
ATOM      7  C   LIG    1      -37.530  68.010  21.337  0.00  0.00    +0.041 A 
ATOM      8  C   LIG    1      -37.000  68.160  22.699  0.00  0.00    +0.045 A 
ENDROOT
BRANCH   1  13
ATOM      9  C   LIG    1      -33.916  70.584  27.443  0.00  0.00    +0.046 C 
ATOM     10  C   LIG    1      -33.856  69.096  27.289  0.00  0.00    -0.021 A 
ATOM     11  C   LIG    1      -34.308  68.433  26.143  0.00  0.00    +0.092 A 
ATOM     12  N   LIG    1      -34.859  68.938  24.982  0.00  0.00    -0.227 NA
ATOM     13  C   LIG    1      -35.121  67.885  24.221  0.00  0.00    +0.146 A 
ATOM     14  N   LIG    1      -34.743  66.733  24.875  0.00  0.00    -0.338 N 
ATOM     15  H   LIG    1      -34.819  65.797  24.492  0.00  0.00    +0.167 HD
ATOM     16  C   LIG    1      -34.248  67.051  26.105  0.00  0.00    +0.068 A 
ATOM     17  C   LIG    1      -33.784  66.251  27.152  0.00  0.00    +0.051 A 
ATOM     18  C   LIG    1      -33.394  66.874  28.349  0.00  0.00    +0.032 A 
ATOM     19  C   LIG    1      -33.411  68.288  28.363  0.00  0.00    +0.028 A 
BRANCH  18  20
ATOM     20  N   LIG    1      -32.970  66.121  29.475  0.00  0.00    -0.325 N 
ATOM     21  C   LIG    1      -34.071  65.602  30.324  0.00  0.00    +0.133 C 
ATOM     22  C   LIG    1      -33.547  64.865  31.558  0.00  0.00    +0.178 C 
ATOM     23  O   LIG    1      -32.637  63.818  31.207  0.00  0.00    -0.377 OA
ATOM     24  C   LIG    1      -31.515  64.377  30.516  0.00  0.00    +0.178 C 
ATOM     25  C   LIG    1      -31.940  65.077  29.216  0.00  0.00    +0.133 C 
ENDBRANCH  18  20
ENDBRANCH   1  13
BRANCH   8  26
ATOM     26  N   LIG    1      -37.878  68.792  23.601  0.00  0.00    -0.340 N 
ATOM     27  H   LIG    1      -38.745  68.236  23.605  0.00  0.00    +0.146 HD
BRANCH  26  28
ATOM     28  C   LIG    1      -38.305  70.195  23.350  0.00  0.00    +0.137 C 
BRANCH  28  29
ATOM     29  C   LIG    1      -37.869  71.148  24.491  0.00  0.00    +0.161 C 
BRANCH  29  30
ATOM     30  C   LIG    1      -38.617  72.468  24.471  0.00  0.00    -0.016 A 
ATOM     31  C   LIG    1      -38.031  73.669  24.900  0.00  0.00    +0.026 A 
ATOM     32  C   LIG    1      -38.747  74.865  24.835  0.00  0.00    +0.041 A 
ATOM     33 CL   LIG    1      -38.014  76.329  25.366  0.00  0.00    -0.084 Cl
ATOM     34  C   LIG    1      -40.047  74.887  24.337  0.00  0.00    +0.020 A 
ATOM     35  C   LIG    1      -40.638  73.705  23.897  0.00  0.00    +0.002 A 
ATOM     36  C   LIG    1      -39.928  72.505  23.963  0.00  0.00    +0.006 A 
ENDBRANCH  29  30
BRANCH  29  37
ATOM     37  O   LIG    1      -36.455  71.355  24.495  0.00  0.00    -0.386 OA
ATOM     38  H   LIG    1      -36.055  70.478  24.361  0.00  0.00    +0.210 HD
ENDBRANCH  29  37
ENDBRANCH  28  29
ENDBRANCH  26  28
ENDBRANCH   8  26
TORSDOF 7
ENDMDL
MODEL 9
REMARK VINA RESULT:      -6.3     13.612     16.918
REMARK  Name = pdb/CHEMBL2005886.pdb
REMARK                            x       y       z     vdW  Elec       q    Type
REMARK                         _______ _______ _______ _____ _____    ______ ____
ROOT
ATOM      1  C   LIG    1      -35.294  70.141  27.713  0.00  0.00    +0.102 A 
ATOM      2  C   LIG    1      -33.918  69.574  28.013  0.00  0.00    +0.261 A 
ATOM      3  O   LIG    1      -33.001  70.251  28.459  0.00  0.00    -0.267 OA
ATOM      4  N   LIG    1      -33.745  68.244  27.784  0.00  0.00    -0.328 N 
ATOM      5  H   LIG    1      -32.824  67.870  27.972  0.00  0.00    +0.168 HD
ATOM      6  C   LIG    1      -34.740  67.407  27.346  0.00  0.00    +0.088 A 
ATOM      7  C   LIG    1      -35.957  67.891  27.100  0.00  0.00    +0.041 A 
ATOM      8  C   LIG    1      -36.282  69.309  27.299  0.00  0.00    +0.045 A 
ENDROOT
BRANCH   1  13
ATOM      9  C   LIG    1      -38.089  74.602  29.668  0.00  0.00    +0.046 C 
ATOM     10  C   LIG    1      -36.790  74.669  28.928  0.00  0.00    -0.021 A 
ATOM     11  C   LIG    1      -36.131  73.531  28.447  0.00  0.00    +0.092 A 
ATOM     12  N   LIG    1      -36.486  72.200  28.522  0.00  0.00    -0.227 NA
ATOM     13  C   LIG    1      -35.512  71.534  27.918  0.00  0.00    +0.146 A 
ATOM     14  N   LIG    1      -34.558  72.416  27.462  0.00  0.00    -0.338 N 
ATOM     15  H   LIG    1      -33.725  72.155  26.946  0.00  0.00    +0.167 HD
ATOM     16  C   LIG    1      -34.915  73.687  27.806  0.00  0.00    +0.068 A 
ATOM     17  C   LIG    1      -34.269  74.912  27.620  0.00  0.00    +0.051 A 
ATOM     18  C   LIG    1      -34.860  76.067  28.157  0.00  0.00    +0.032 A 
ATOM     19  C   LIG    1      -36.127  75.909  28.766  0.00  0.00    +0.028 A 
BRANCH  18  20
ATOM     20  N   LIG    1      -34.233  77.337  28.059  0.00  0.00    -0.325 N 
ATOM     21  C   LIG    1      -33.168  77.425  27.029  0.00  0.00    +0.133 C 
ATOM     22  C   LIG    1      -32.483  78.793  27.025  0.00  0.00    +0.178 C 
ATOM     23  O   LIG    1      -33.423  79.860  26.877  0.00  0.00    -0.377 OA
ATOM     24  C   LIG    1      -34.348  79.832  27.970  0.00  0.00    +0.178 C 
ATOM     25  C   LIG    1      -35.141  78.516  28.008  0.00  0.00    +0.133 C 
ENDBRANCH  18  20
ENDBRANCH   1  13
BRANCH   8  26
ATOM     26  N   LIG    1      -37.600  69.661  26.949  0.00  0.00    -0.340 N 
ATOM     27  H   LIG    1      -38.221  69.008  27.448  0.00  0.00    +0.146 HD
BRANCH  26  28
ATOM     28  C   LIG    1      -38.022  69.602  25.524  0.00  0.00    +0.137 C 
BRANCH  28  29
ATOM     29  C   LIG    1      -37.338  70.698  24.669  0.00  0.00    +0.161 C 
BRANCH  29  30
ATOM     30  C   LIG    1      -38.142  71.984  24.611  0.00  0.00    -0.016 A 
ATOM     31  C   LIG    1      -37.627  73.212  25.054  0.00  0.00    +0.026 A 
ATOM     32  C   LIG    1      -38.392  74.374  24.954  0.00  0.00    +0.041 A 
ATOM     33 CL   LIG    1      -37.746  75.872  25.503  0.00  0.00    -0.084 Cl
ATOM     34  C   LIG    1      -39.672  74.336  24.406  0.00  0.00    +0.020 A 
ATOM     35  C   LIG    1      -40.192  73.126  23.952  0.00  0.00    +0.002 A 
ATOM     36  C   LIG    1      -39.432  71.960  24.052  0.00  0.00    +0.006 A 
ENDBRANCH  29  30
BRANCH  29  37
ATOM     37  O   LIG    1      -37.023  70.226  23.357  0.00  0.00    -0.386 OA
ATOM     38  H   LIG    1      -37.293  70.933  22.745  0.00  0.00    +0.210 HD
ENDBRANCH  29  37
ENDBRANCH  28  29
ENDBRANCH  26  28
ENDBRANCH   8  26
TORSDOF 7
ENDMDL
