MODEL 1
REMARK VINA RESULT:      -6.9      0.000      0.000
REMARK  Name = pdb/CHEMBL3661461.pdb
REMARK                            x       y       z     vdW  Elec       q    Type
REMARK                         _______ _______ _______ _____ _____    ______ ____
ROOT
ATOM      1  C   LIG    1      -22.689  82.359  14.672  0.00  0.00    +0.042 A 
ATOM      2  C   LIG    1      -22.569  81.000  14.378  0.00  0.00    +0.038 A 
ATOM      3  C   LIG    1      -22.428  80.068  15.414  0.00  0.00    +0.052 A 
ATOM      4  C   LIG    1      -22.370  80.547  16.716  0.00  0.00    +0.134 A 
ATOM      5  N   LIG    1      -22.435  81.866  17.029  0.00  0.00    -0.261 NA
ATOM      6  C   LIG    1      -22.582  82.741  16.002  0.00  0.00    +0.122 A 
ENDROOT
BRANCH   3   7
ATOM      7  N   LIG    1      -22.359  78.719  15.032  0.00  0.00    -0.284 N 
ATOM      8  H   LIG    1      -21.492  78.448  14.592  0.00  0.00    +0.155 HD
ATOM      9  C   LIG    1      -23.289  77.721  15.245  0.00  0.00    +0.222 C 
ATOM     10  O   LIG    1      -24.383  77.882  15.780  0.00  0.00    -0.275 OA
BRANCH   9  11
ATOM     11  C   LIG    1      -22.894  76.354  14.683  0.00  0.00    +0.131 C 
BRANCH  11  12
ATOM     12  C   LIG    1      -22.084  75.484  15.623  0.00  0.00    -0.038 A 
ATOM     13  C   LIG    1      -22.723  74.574  16.483  0.00  0.00    +0.016 A 
ATOM     14  C   LIG    1      -21.981  73.687  17.282  0.00  0.00    +0.055 A 
ATOM     15  C   LIG    1      -20.581  73.744  17.230  0.00  0.00    +0.012 A 
ATOM     16  C   LIG    1      -19.939  74.654  16.389  0.00  0.00    +0.001 A 
ATOM     17  C   LIG    1      -20.685  75.511  15.581  0.00  0.00    +0.004 A 
BRANCH  14  18
ATOM     18  C   LIG    1      -22.694  72.685  18.156  0.00  0.00    +0.417 C 
ATOM     19  F   LIG    1      -22.959  73.189  19.395  0.00  0.00    -0.166 F 
ATOM     20  F   LIG    1      -21.957  71.560  18.364  0.00  0.00    -0.166 F 
ATOM     21  F   LIG    1      -23.889  72.270  17.656  0.00  0.00    -0.166 F 
ENDBRANCH  14  18
ENDBRANCH  11  12
ENDBRANCH   9  11
ENDBRANCH   3   7
BRANCH   1  22
ATOM     22  C   LIG    1      -22.860  83.388  13.621  0.00  0.00    +0.197 C 
ATOM     23  O   LIG    1      -23.715  83.194  12.757  0.00  0.00    -0.287 OA
BRANCH  22  31
ATOM     24  N   LIG    1      -21.349  86.741  13.785  0.00  0.00    -0.329 N 
ATOM     25  C   LIG    1      -20.216  85.982  13.629  0.00  0.00    +0.145 A 
ATOM     26  N   LIG    1      -18.954  86.443  13.585  0.00  0.00    -0.218 NA
ATOM     27  C   LIG    1      -18.057  85.460  13.414  0.00  0.00    +0.223 A 
ATOM     28  N   LIG    1      -18.290  84.139  13.317  0.00  0.00    -0.243 NA
ATOM     29  C   LIG    1      -19.575  83.719  13.393  0.00  0.00    +0.124 A 
ATOM     30  C   LIG    1      -20.605  84.651  13.536  0.00  0.00    +0.048 A 
ATOM     31  C   LIG    1      -22.036  84.599  13.615  0.00  0.00    +0.051 A 
ATOM     32  C   LIG    1      -22.458  85.917  13.737  0.00  0.00    +0.100 A 
BRANCH  24  34
ATOM     33  C   LIG    1      -21.379  88.973  12.727  0.00  0.00    +0.030 C 
ATOM     34  C   LIG    1      -21.424  88.182  14.036  0.00  0.00    +0.083 C 
ATOM     35  C   LIG    1      -22.600  88.619  14.911  0.00  0.00    +0.030 C 
ENDBRANCH  24  34
ENDBRANCH  22  31
ENDBRANCH   1  22
TORSDOF 7
ENDMDL
MODEL 2
REMARK VINA RESULT:      -6.7     17.243     20.411
REMARK  Name = pdb/CHEMBL3661461.pdb
REMARK                            x       y       z     vdW  Elec       q    Type
REMARK                         _______ _______ _______ _____ _____    ______ ____
ROOT
ATOM      1  C   LIG    1      -33.189  73.418  28.955  0.00  0.00    +0.042 A 
ATOM      2  C   LIG    1      -34.021  73.228  27.851  0.00  0.00    +0.038 A 
ATOM      3  C   LIG    1      -34.645  71.992  27.647  0.00  0.00    +0.052 A 
ATOM      4  C   LIG    1      -34.372  70.969  28.547  0.00  0.00    +0.134 A 
ATOM      5  N   LIG    1      -33.529  71.109  29.602  0.00  0.00    -0.261 NA
ATOM      6  C   LIG    1      -32.949  72.325  29.775  0.00  0.00    +0.122 A 
ENDROOT
BRANCH   3   7
ATOM      7  N   LIG    1      -35.501  71.902  26.538  0.00  0.00    -0.284 N 
ATOM      8  H   LIG    1      -35.034  71.771  25.653  0.00  0.00    +0.155 HD
ATOM      9  C   LIG    1      -36.881  71.900  26.521  0.00  0.00    +0.222 C 
ATOM     10  O   LIG    1      -37.597  72.032  27.511  0.00  0.00    -0.275 OA
BRANCH   9  11
ATOM     11  C   LIG    1      -37.499  71.797  25.125  0.00  0.00    +0.131 C 
BRANCH  11  12
ATOM     12  C   LIG    1      -38.401  72.951  24.737  0.00  0.00    -0.038 A 
ATOM     13  C   LIG    1      -39.663  72.712  24.166  0.00  0.00    +0.016 A 
ATOM     14  C   LIG    1      -40.551  73.769  23.900  0.00  0.00    +0.055 A 
ATOM     15  C   LIG    1      -40.144  75.079  24.186  0.00  0.00    +0.012 A 
ATOM     16  C   LIG    1      -38.888  75.326  24.740  0.00  0.00    +0.001 A 
ATOM     17  C   LIG    1      -38.025  74.269  25.025  0.00  0.00    +0.004 A 
BRANCH  14  18
ATOM     18  C   LIG    1      -41.920  73.477  23.337  0.00  0.00    +0.417 C 
ATOM     19  F   LIG    1      -41.851  72.749  22.186  0.00  0.00    -0.166 F 
ATOM     20  F   LIG    1      -42.603  74.610  23.018  0.00  0.00    -0.166 F 
ATOM     21  F   LIG    1      -42.724  72.773  24.179  0.00  0.00    -0.166 F 
ENDBRANCH  14  18
ENDBRANCH  11  12
ENDBRANCH   9  11
ENDBRANCH   3   7
BRANCH   1  22
ATOM     22  C   LIG    1      -32.517  74.708  29.233  0.00  0.00    +0.197 C 
ATOM     23  O   LIG    1      -31.353  74.678  29.631  0.00  0.00    -0.287 OA
BRANCH  22  31
ATOM     24  N   LIG    1      -34.552  77.774  29.331  0.00  0.00    -0.329 N 
ATOM     25  C   LIG    1      -33.776  78.044  28.231  0.00  0.00    +0.145 A 
ATOM     26  N   LIG    1      -33.820  79.162  27.486  0.00  0.00    -0.218 NA
ATOM     27  C   LIG    1      -32.947  79.132  26.468  0.00  0.00    +0.223 A 
ATOM     28  N   LIG    1      -32.070  78.159  26.162  0.00  0.00    -0.243 NA
ATOM     29  C   LIG    1      -32.044  77.063  26.957  0.00  0.00    +0.124 A 
ATOM     30  C   LIG    1      -32.931  76.960  28.031  0.00  0.00    +0.048 A 
ATOM     31  C   LIG    1      -33.219  75.979  29.036  0.00  0.00    +0.051 A 
ATOM     32  C   LIG    1      -34.250  76.510  29.800  0.00  0.00    +0.100 A 
BRANCH  24  34
ATOM     33  C   LIG    1      -36.473  77.893  30.879  0.00  0.00    +0.030 C 
ATOM     34  C   LIG    1      -35.507  78.672  29.984  0.00  0.00    +0.083 C 
ATOM     35  C   LIG    1      -34.873  79.844  30.735  0.00  0.00    +0.030 C 
ENDBRANCH  24  34
ENDBRANCH  22  31
ENDBRANCH   1  22
TORSDOF 7
ENDMDL
MODEL 3
REMARK VINA RESULT:      -6.6      3.582      5.413
REMARK  Name = pdb/CHEMBL3661461.pdb
REMARK                            x       y       z     vdW  Elec       q    Type
REMARK                         _______ _______ _______ _____ _____    ______ ____
ROOT
ATOM      1  C   LIG    1      -20.954  80.467  15.980  0.00  0.00    +0.042 A 
ATOM      2  C   LIG    1      -20.775  79.088  15.869  0.00  0.00    +0.038 A 
ATOM      3  C   LIG    1      -19.495  78.560  15.658  0.00  0.00    +0.052 A 
ATOM      4  C   LIG    1      -18.439  79.452  15.523  0.00  0.00    +0.134 A 
ATOM      5  N   LIG    1      -18.589  80.800  15.577  0.00  0.00    -0.261 NA
ATOM      6  C   LIG    1      -19.842  81.276  15.792  0.00  0.00    +0.122 A 
ENDROOT
BRANCH   3   7
ATOM      7  N   LIG    1      -19.400  77.161  15.604  0.00  0.00    -0.284 N 
ATOM      8  H   LIG    1      -19.831  76.738  14.795  0.00  0.00    +0.155 HD
ATOM      9  C   LIG    1      -18.739  76.314  16.472  0.00  0.00    +0.222 C 
ATOM     10  O   LIG    1      -18.154  76.671  17.492  0.00  0.00    -0.275 OA
BRANCH   9  11
ATOM     11  C   LIG    1      -18.849  74.830  16.119  0.00  0.00    +0.131 C 
BRANCH  11  12
ATOM     12  C   LIG    1      -19.310  73.934  17.251  0.00  0.00    -0.038 A 
ATOM     13  C   LIG    1      -20.676  73.816  17.559  0.00  0.00    +0.016 A 
ATOM     14  C   LIG    1      -21.124  72.909  18.534  0.00  0.00    +0.055 A 
ATOM     15  C   LIG    1      -20.178  72.139  19.224  0.00  0.00    +0.012 A 
ATOM     16  C   LIG    1      -18.819  72.260  18.934  0.00  0.00    +0.001 A 
ATOM     17  C   LIG    1      -18.387  73.143  17.946  0.00  0.00    +0.004 A 
BRANCH  14  18
ATOM     18  C   LIG    1      -22.602  72.765  18.806  0.00  0.00    +0.417 C 
ATOM     19  F   LIG    1      -23.151  71.739  18.095  0.00  0.00    -0.166 F 
ATOM     20  F   LIG    1      -23.305  73.876  18.454  0.00  0.00    -0.166 F 
ATOM     21  F   LIG    1      -22.901  72.522  20.110  0.00  0.00    -0.166 F 
ENDBRANCH  14  18
ENDBRANCH  11  12
ENDBRANCH   9  11
ENDBRANCH   3   7
BRANCH   1  22
ATOM     22  C   LIG    1      -22.279  81.081  16.221  0.00  0.00    +0.197 C 
ATOM     23  O   LIG    1      -22.468  81.640  17.302  0.00  0.00    -0.287 OA
BRANCH  22  31
ATOM     24  N   LIG    1      -24.571  81.416  13.360  0.00  0.00    -0.329 N 
ATOM     25  C   LIG    1      -25.094  80.291  13.948  0.00  0.00    +0.145 A 
ATOM     26  N   LIG    1      -26.143  79.579  13.501  0.00  0.00    -0.218 NA
ATOM     27  C   LIG    1      -26.428  78.536  14.295  0.00  0.00    +0.223 A 
ATOM     28  N   LIG    1      -25.783  78.149  15.410  0.00  0.00    -0.243 NA
ATOM     29  C   LIG    1      -24.717  78.881  15.807  0.00  0.00    +0.124 A 
ATOM     30  C   LIG    1      -24.341  80.015  15.082  0.00  0.00    +0.048 A 
ATOM     31  C   LIG    1      -23.331  81.025  15.203  0.00  0.00    +0.051 A 
ATOM     32  C   LIG    1      -23.528  81.890  14.134  0.00  0.00    +0.100 A 
BRANCH  24  34
ATOM     33  C   LIG    1      -24.382  83.421  11.930  0.00  0.00    +0.030 C 
ATOM     34  C   LIG    1      -24.967  82.016  12.084  0.00  0.00    +0.083 C 
ATOM     35  C   LIG    1      -24.678  81.153  10.854  0.00  0.00    +0.030 C 
ENDBRANCH  24  34
ENDBRANCH  22  31
ENDBRANCH   1  22
TORSDOF 7
ENDMDL
MODEL 4
REMARK VINA RESULT:      -6.6     18.200     21.893
REMARK  Name = pdb/CHEMBL3661461.pdb
REMARK                            x       y       z     vdW  Elec       q    Type
REMARK                         _______ _______ _______ _____ _____    ______ ____
ROOT
ATOM      1  C   LIG    1      -35.961  66.756  21.496  0.00  0.00    +0.042 A 
ATOM      2  C   LIG    1      -36.034  67.857  22.350  0.00  0.00    +0.038 A 
ATOM      3  C   LIG    1      -37.037  68.818  22.173  0.00  0.00    +0.052 A 
ATOM      4  C   LIG    1      -37.912  68.656  21.106  0.00  0.00    +0.134 A 
ATOM      5  N   LIG    1      -37.835  67.622  20.230  0.00  0.00    -0.261 NA
ATOM      6  C   LIG    1      -36.857  66.703  20.438  0.00  0.00    +0.122 A 
ENDROOT
BRANCH   3   7
ATOM      7  N   LIG    1      -37.064  69.868  23.104  0.00  0.00    -0.284 N 
ATOM      8  H   LIG    1      -36.301  70.524  23.024  0.00  0.00    +0.155 HD
ATOM      9  C   LIG    1      -38.029  70.147  24.051  0.00  0.00    +0.222 C 
ATOM     10  O   LIG    1      -39.025  69.459  24.263  0.00  0.00    -0.275 OA
BRANCH   9  11
ATOM     11  C   LIG    1      -37.735  71.374  24.915  0.00  0.00    +0.131 C 
BRANCH  11  12
ATOM     12  C   LIG    1      -38.636  72.567  24.663  0.00  0.00    -0.038 A 
ATOM     13  C   LIG    1      -38.169  73.874  24.879  0.00  0.00    +0.016 A 
ATOM     14  C   LIG    1      -38.956  74.990  24.547  0.00  0.00    +0.055 A 
ATOM     15  C   LIG    1      -40.238  74.779  24.022  0.00  0.00    +0.012 A 
ATOM     16  C   LIG    1      -40.715  73.484  23.818  0.00  0.00    +0.001 A 
ATOM     17  C   LIG    1      -39.915  72.384  24.125  0.00  0.00    +0.004 A 
BRANCH  14  18
ATOM     18  C   LIG    1      -38.406  76.383  24.740  0.00  0.00    +0.417 C 
ATOM     19  F   LIG    1      -37.063  76.371  24.971  0.00  0.00    -0.166 F 
ATOM     20  F   LIG    1      -38.961  77.016  25.809  0.00  0.00    -0.166 F 
ATOM     21  F   LIG    1      -38.596  77.203  23.671  0.00  0.00    -0.166 F 
ENDBRANCH  14  18
ENDBRANCH  11  12
ENDBRANCH   9  11
ENDBRANCH   3   7
BRANCH   1  22
ATOM     22  C   LIG    1      -34.936  65.699  21.646  0.00  0.00    +0.197 C 
ATOM     23  O   LIG    1      -34.973  64.998  22.657  0.00  0.00    -0.287 OA
BRANCH  22  31
ATOM     24  N   LIG    1      -32.086  65.738  19.316  0.00  0.00    -0.329 N 
ATOM     25  C   LIG    1      -32.607  64.501  19.027  0.00  0.00    +0.145 A 
ATOM     26  N   LIG    1      -32.115  63.623  18.136  0.00  0.00    -0.218 NA
ATOM     27  C   LIG    1      -32.847  62.501  18.067  0.00  0.00    +0.223 A 
ATOM     28  N   LIG    1      -33.941  62.186  18.782  0.00  0.00    -0.243 NA
ATOM     29  C   LIG    1      -34.384  63.090  19.687  0.00  0.00    +0.124 A 
ATOM     30  C   LIG    1      -33.727  64.314  19.828  0.00  0.00    +0.048 A 
ATOM     31  C   LIG    1      -33.910  65.495  20.620  0.00  0.00    +0.051 A 
ATOM     32  C   LIG    1      -32.892  66.363  20.249  0.00  0.00    +0.100 A 
BRANCH  24  34
ATOM     33  C   LIG    1      -31.038  67.791  18.426  0.00  0.00    +0.030 C 
ATOM     34  C   LIG    1      -30.845  66.320  18.801  0.00  0.00    +0.083 C 
ATOM     35  C   LIG    1      -29.626  66.131  19.707  0.00  0.00    +0.030 C 
ENDBRANCH  24  34
ENDBRANCH  22  31
ENDBRANCH   1  22
TORSDOF 7
ENDMDL
MODEL 5
REMARK VINA RESULT:      -6.5     18.396     20.782
REMARK  Name = pdb/CHEMBL3661461.pdb
REMARK                            x       y       z     vdW  Elec       q    Type
REMARK                         _______ _______ _______ _____ _____    ______ ____
ROOT
ATOM      1  C   LIG    1      -33.118  72.760  29.069  0.00  0.00    +0.042 A 
ATOM      2  C   LIG    1      -33.911  72.707  27.922  0.00  0.00    +0.038 A 
ATOM      3  C   LIG    1      -34.603  71.533  27.600  0.00  0.00    +0.052 A 
ATOM      4  C   LIG    1      -34.435  70.432  28.430  0.00  0.00    +0.134 A 
ATOM      5  N   LIG    1      -33.632  70.438  29.525  0.00  0.00    -0.261 NA
ATOM      6  C   LIG    1      -32.985  71.596  29.812  0.00  0.00    +0.122 A 
ENDROOT
BRANCH   3   7
ATOM      7  N   LIG    1      -35.413  71.581  26.455  0.00  0.00    -0.284 N 
ATOM      8  H   LIG    1      -34.915  71.490  25.581  0.00  0.00    +0.155 HD
ATOM      9  C   LIG    1      -36.789  71.666  26.383  0.00  0.00    +0.222 C 
ATOM     10  O   LIG    1      -37.539  71.766  27.351  0.00  0.00    -0.275 OA
BRANCH   9  11
ATOM     11  C   LIG    1      -37.349  71.709  24.960  0.00  0.00    +0.131 C 
BRANCH  11  12
ATOM     12  C   LIG    1      -38.399  72.775  24.716  0.00  0.00    -0.038 A 
ATOM     13  C   LIG    1      -38.099  74.133  24.920  0.00  0.00    +0.016 A 
ATOM     14  C   LIG    1      -39.027  75.137  24.596  0.00  0.00    +0.055 A 
ATOM     15  C   LIG    1      -40.279  74.761  24.092  0.00  0.00    +0.012 A 
ATOM     16  C   LIG    1      -40.590  73.414  23.900  0.00  0.00    +0.001 A 
ATOM     17  C   LIG    1      -39.652  72.427  24.199  0.00  0.00    +0.004 A 
BRANCH  14  18
ATOM     18  C   LIG    1      -38.658  76.590  24.775  0.00  0.00    +0.417 C 
ATOM     19  F   LIG    1      -39.020  77.342  23.697  0.00  0.00    -0.166 F 
ATOM     20  F   LIG    1      -37.317  76.770  24.919  0.00  0.00    -0.166 F 
ATOM     21  F   LIG    1      -39.239  77.177  25.856  0.00  0.00    -0.166 F 
ENDBRANCH  14  18
ENDBRANCH  11  12
ENDBRANCH   9  11
ENDBRANCH   3   7
BRANCH   1  22
ATOM     22  C   LIG    1      -32.380  73.979  29.470  0.00  0.00    +0.197 C 
ATOM     23  O   LIG    1      -31.150  73.924  29.499  0.00  0.00    -0.287 OA
BRANCH  22  31
ATOM     24  N   LIG    1      -34.063  76.887  30.972  0.00  0.00    -0.329 N 
ATOM     25  C   LIG    1      -34.040  77.284  29.658  0.00  0.00    +0.145 A 
ATOM     26  N   LIG    1      -34.512  78.445  29.174  0.00  0.00    -0.218 NA
ATOM     27  C   LIG    1      -34.359  78.544  27.844  0.00  0.00    +0.223 A 
ATOM     28  N   LIG    1      -33.787  77.656  27.013  0.00  0.00    -0.243 NA
ATOM     29  C   LIG    1      -33.302  76.512  27.550  0.00  0.00    +0.124 A 
ATOM     30  C   LIG    1      -33.433  76.275  28.920  0.00  0.00    +0.048 A 
ATOM     31  C   LIG    1      -33.093  75.210  29.818  0.00  0.00    +0.051 A 
ATOM     32  C   LIG    1      -33.528  75.617  31.072  0.00  0.00    +0.100 A 
BRANCH  24  34
ATOM     33  C   LIG    1      -35.964  77.372  32.473  0.00  0.00    +0.030 C 
ATOM     34  C   LIG    1      -34.504  77.672  32.128  0.00  0.00    +0.083 C 
ATOM     35  C   LIG    1      -33.604  77.556  33.360  0.00  0.00    +0.030 C 
ENDBRANCH  24  34
ENDBRANCH  22  31
ENDBRANCH   1  22
TORSDOF 7
ENDMDL
MODEL 6
REMARK VINA RESULT:      -6.5     18.516     20.459
REMARK  Name = pdb/CHEMBL3661461.pdb
REMARK                            x       y       z     vdW  Elec       q    Type
REMARK                         _______ _______ _______ _____ _____    ______ ____
ROOT
ATOM      1  C   LIG    1      -34.544  77.414  27.549  0.00  0.00    +0.042 A 
ATOM      2  C   LIG    1      -35.645  76.801  26.951  0.00  0.00    +0.038 A 
ATOM      3  C   LIG    1      -36.921  77.365  27.081  0.00  0.00    +0.052 A 
ATOM      4  C   LIG    1      -37.047  78.514  27.853  0.00  0.00    +0.134 A 
ATOM      5  N   LIG    1      -36.003  79.105  28.487  0.00  0.00    -0.261 NA
ATOM      6  C   LIG    1      -34.780  78.537  28.331  0.00  0.00    +0.122 A 
ENDROOT
BRANCH   3   7
ATOM      7  N   LIG    1      -37.964  76.709  26.410  0.00  0.00    -0.284 N 
ATOM      8  H   LIG    1      -38.723  76.406  27.002  0.00  0.00    +0.155 HD
ATOM      9  C   LIG    1      -38.106  76.493  25.054  0.00  0.00    +0.222 C 
ATOM     10  O   LIG    1      -37.282  76.814  24.201  0.00  0.00    -0.275 OA
BRANCH   9  11
ATOM     11  C   LIG    1      -39.371  75.728  24.661  0.00  0.00    +0.131 C 
BRANCH  11  12
ATOM     12  C   LIG    1      -39.209  74.223  24.579  0.00  0.00    -0.038 A 
ATOM     13  C   LIG    1      -40.190  73.431  23.958  0.00  0.00    +0.016 A 
ATOM     14  C   LIG    1      -40.002  72.050  23.780  0.00  0.00    +0.055 A 
ATOM     15  C   LIG    1      -38.826  71.462  24.265  0.00  0.00    +0.012 A 
ATOM     16  C   LIG    1      -37.854  72.238  24.896  0.00  0.00    +0.001 A 
ATOM     17  C   LIG    1      -38.038  73.612  25.042  0.00  0.00    +0.004 A 
BRANCH  14  18
ATOM     18  C   LIG    1      -41.049  71.234  23.061  0.00  0.00    +0.417 C 
ATOM     19  F   LIG    1      -40.492  70.358  22.177  0.00  0.00    -0.166 F 
ATOM     20  F   LIG    1      -41.898  72.007  22.331  0.00  0.00    -0.166 F 
ATOM     21  F   LIG    1      -41.830  70.488  23.888  0.00  0.00    -0.166 F 
ENDBRANCH  14  18
ENDBRANCH  11  12
ENDBRANCH   9  11
ENDBRANCH   3   7
BRANCH   1  22
ATOM     22  C   LIG    1      -33.171  76.875  27.430  0.00  0.00    +0.197 C 
ATOM     23  O   LIG    1      -32.499  77.219  26.457  0.00  0.00    -0.287 OA
BRANCH  22  31
ATOM     24  N   LIG    1      -31.563  75.133  30.246  0.00  0.00    -0.329 N 
ATOM     25  C   LIG    1      -32.302  74.101  29.724  0.00  0.00    +0.145 A 
ATOM     26  N   LIG    1      -32.361  72.848  30.206  0.00  0.00    -0.218 NA
ATOM     27  C   LIG    1      -33.162  72.057  29.475  0.00  0.00    +0.223 A 
ATOM     28  N   LIG    1      -33.885  72.392  28.392  0.00  0.00    -0.243 NA
ATOM     29  C   LIG    1      -33.814  73.673  27.959  0.00  0.00    +0.124 A 
ATOM     30  C   LIG    1      -32.985  74.585  28.616  0.00  0.00    +0.048 A 
ATOM     31  C   LIG    1      -32.631  75.963  28.441  0.00  0.00    +0.051 A 
ATOM     32  C   LIG    1      -31.724  76.254  29.452  0.00  0.00    +0.100 A 
BRANCH  24  34
ATOM     33  C   LIG    1      -29.581  76.079  31.378  0.00  0.00    +0.030 C 
ATOM     34  C   LIG    1      -30.772  75.124  31.478  0.00  0.00    +0.083 C 
ATOM     35  C   LIG    1      -31.577  75.369  32.757  0.00  0.00    +0.030 C 
ENDBRANCH  24  34
ENDBRANCH  22  31
ENDBRANCH   1  22
TORSDOF 7
ENDMDL
MODEL 7
REMARK VINA RESULT:      -6.4     20.949     23.060
REMARK  Name = pdb/CHEMBL3661461.pdb
REMARK                            x       y       z     vdW  Elec       q    Type
REMARK                         _______ _______ _______ _____ _____    ______ ____
ROOT
ATOM      1  C   LIG    1      -36.896  67.870  22.345  0.00  0.00    +0.042 A 
ATOM      2  C   LIG    1      -37.903  68.835  22.357  0.00  0.00    +0.038 A 
ATOM      3  C   LIG    1      -39.031  68.684  21.540  0.00  0.00    +0.052 A 
ATOM      4  C   LIG    1      -39.081  67.578  20.701  0.00  0.00    +0.134 A 
ATOM      5  N   LIG    1      -38.094  66.649  20.631  0.00  0.00    -0.261 NA
ATOM      6  C   LIG    1      -37.021  66.821  21.445  0.00  0.00    +0.122 A 
ENDROOT
BRANCH   3   7
ATOM      7  N   LIG    1      -40.016  69.677  21.648  0.00  0.00    -0.284 N 
ATOM      8  H   LIG    1      -40.029  70.345  20.891  0.00  0.00    +0.155 HD
ATOM      9  C   LIG    1      -40.997  69.808  22.612  0.00  0.00    +0.222 C 
ATOM     10  O   LIG    1      -41.127  69.071  23.587  0.00  0.00    -0.275 OA
BRANCH   9  11
ATOM     11  C   LIG    1      -41.906  71.025  22.431  0.00  0.00    +0.131 C 
BRANCH  11  12
ATOM     12  C   LIG    1      -41.406  72.300  23.080  0.00  0.00    -0.038 A 
ATOM     13  C   LIG    1      -40.175  72.323  23.757  0.00  0.00    +0.016 A 
ATOM     14  C   LIG    1      -39.651  73.522  24.270  0.00  0.00    +0.055 A 
ATOM     15  C   LIG    1      -40.396  74.700  24.122  0.00  0.00    +0.012 A 
ATOM     16  C   LIG    1      -41.625  74.684  23.463  0.00  0.00    +0.001 A 
ATOM     17  C   LIG    1      -42.123  73.494  22.935  0.00  0.00    +0.004 A 
BRANCH  14  18
ATOM     18  C   LIG    1      -38.301  73.526  24.945  0.00  0.00    +0.417 C 
ATOM     19  F   LIG    1      -38.413  73.519  26.304  0.00  0.00    -0.166 F 
ATOM     20  F   LIG    1      -37.571  74.632  24.639  0.00  0.00    -0.166 F 
ATOM     21  F   LIG    1      -37.524  72.456  24.628  0.00  0.00    -0.166 F 
ENDBRANCH  14  18
ENDBRANCH  11  12
ENDBRANCH   9  11
ENDBRANCH   3   7
BRANCH   1  22
ATOM     22  C   LIG    1      -35.691  67.966  23.201  0.00  0.00    +0.197 C 
ATOM     23  O   LIG    1      -34.592  67.823  22.667  0.00  0.00    -0.287 OA
BRANCH  22  31
ATOM     24  N   LIG    1      -36.064  69.254  26.629  0.00  0.00    -0.329 N 
ATOM     25  C   LIG    1      -36.114  67.905  26.880  0.00  0.00    +0.145 A 
ATOM     26  N   LIG    1      -36.280  67.329  28.082  0.00  0.00    -0.218 NA
ATOM     27  C   LIG    1      -36.278  65.989  28.012  0.00  0.00    +0.223 A 
ATOM     28  N   LIG    1      -36.161  65.222  26.913  0.00  0.00    -0.243 NA
ATOM     29  C   LIG    1      -36.023  65.847  25.721  0.00  0.00    +0.124 A 
ATOM     30  C   LIG    1      -35.975  67.242  25.667  0.00  0.00    +0.048 A 
ATOM     31  C   LIG    1      -35.809  68.226  24.638  0.00  0.00    +0.051 A 
ATOM     32  C   LIG    1      -35.838  69.457  25.280  0.00  0.00    +0.100 A 
BRANCH  24  34
ATOM     33  C   LIG    1      -35.469  71.582  27.201  0.00  0.00    +0.030 C 
ATOM     34  C   LIG    1      -36.278  70.342  27.585  0.00  0.00    +0.083 C 
ATOM     35  C   LIG    1      -37.746  70.691  27.839  0.00  0.00    +0.030 C 
ENDBRANCH  24  34
ENDBRANCH  22  31
ENDBRANCH   1  22
TORSDOF 7
ENDMDL
MODEL 8
REMARK VINA RESULT:      -6.4     19.210     21.930
REMARK  Name = pdb/CHEMBL3661461.pdb
REMARK                            x       y       z     vdW  Elec       q    Type
REMARK                         _______ _______ _______ _____ _____    ______ ____
ROOT
ATOM      1  C   LIG    1      -34.680  74.395  28.110  0.00  0.00    +0.042 A 
ATOM      2  C   LIG    1      -35.919  74.546  27.487  0.00  0.00    +0.038 A 
ATOM      3  C   LIG    1      -36.414  75.826  27.207  0.00  0.00    +0.052 A 
ATOM      4  C   LIG    1      -35.654  76.918  27.607  0.00  0.00    +0.134 A 
ATOM      5  N   LIG    1      -34.469  76.803  28.259  0.00  0.00    -0.261 NA
ATOM      6  C   LIG    1      -34.015  75.548  28.505  0.00  0.00    +0.122 A 
ENDROOT
BRANCH   3   7
ATOM      7  N   LIG    1      -37.646  75.884  26.538  0.00  0.00    -0.284 N 
ATOM      8  H   LIG    1      -38.449  75.664  27.109  0.00  0.00    +0.155 HD
ATOM      9  C   LIG    1      -37.895  76.268  25.235  0.00  0.00    +0.222 C 
ATOM     10  O   LIG    1      -37.032  76.582  24.418  0.00  0.00    -0.275 OA
BRANCH   9  11
ATOM     11  C   LIG    1      -39.367  76.204  24.824  0.00  0.00    +0.131 C 
BRANCH  11  12
ATOM     12  C   LIG    1      -39.835  74.850  24.328  0.00  0.00    -0.038 A 
ATOM     13  C   LIG    1      -39.022  73.713  24.479  0.00  0.00    +0.016 A 
ATOM     14  C   LIG    1      -39.488  72.437  24.121  0.00  0.00    +0.055 A 
ATOM     15  C   LIG    1      -40.774  72.315  23.578  0.00  0.00    +0.012 A 
ATOM     16  C   LIG    1      -41.582  73.441  23.412  0.00  0.00    +0.001 A 
ATOM     17  C   LIG    1      -41.121  74.699  23.795  0.00  0.00    +0.004 A 
BRANCH  14  18
ATOM     18  C   LIG    1      -38.613  71.227  24.344  0.00  0.00    +0.417 C 
ATOM     19  F   LIG    1      -38.888  70.613  25.530  0.00  0.00    -0.166 F 
ATOM     20  F   LIG    1      -37.291  71.544  24.390  0.00  0.00    -0.166 F 
ATOM     21  F   LIG    1      -38.742  70.270  23.387  0.00  0.00    -0.166 F 
ENDBRANCH  14  18
ENDBRANCH  11  12
ENDBRANCH   9  11
ENDBRANCH   3   7
BRANCH   1  22
ATOM     22  C   LIG    1      -34.098  73.069  28.414  0.00  0.00    +0.197 C 
ATOM     23  O   LIG    1      -32.918  73.022  28.761  0.00  0.00    -0.287 OA
BRANCH  22  31
ATOM     24  N   LIG    1      -36.432  70.235  28.685  0.00  0.00    -0.329 N 
ATOM     25  C   LIG    1      -35.888  69.972  27.453  0.00  0.00    +0.145 A 
ATOM     26  N   LIG    1      -36.211  68.946  26.647  0.00  0.00    -0.218 NA
ATOM     27  C   LIG    1      -35.500  68.946  25.509  0.00  0.00    +0.223 A 
ATOM     28  N   LIG    1      -34.574  69.838  25.116  0.00  0.00    -0.243 NA
ATOM     29  C   LIG    1      -34.301  70.870  25.949  0.00  0.00    +0.124 A 
ATOM     30  C   LIG    1      -34.950  70.961  27.182  0.00  0.00    +0.048 A 
ATOM     31  C   LIG    1      -34.904  71.850  28.305  0.00  0.00    +0.051 A 
ATOM     32  C   LIG    1      -35.814  71.347  29.226  0.00  0.00    +0.100 A 
BRANCH  24  34
ATOM     33  C   LIG    1      -37.476  69.689  30.856  0.00  0.00    +0.030 C 
ATOM     34  C   LIG    1      -37.537  69.528  29.336  0.00  0.00    +0.083 C 
ATOM     35  C   LIG    1      -38.925  69.874  28.794  0.00  0.00    +0.030 C 
ENDBRANCH  24  34
ENDBRANCH  22  31
ENDBRANCH   1  22
TORSDOF 7
ENDMDL
MODEL 9
REMARK VINA RESULT:      -6.4     19.813     22.377
REMARK  Name = pdb/CHEMBL3661461.pdb
REMARK                            x       y       z     vdW  Elec       q    Type
REMARK                         _______ _______ _______ _____ _____    ______ ____
ROOT
ATOM      1  C   LIG    1      -35.167  67.729  24.721  0.00  0.00    +0.042 A 
ATOM      2  C   LIG    1      -35.815  68.952  24.549  0.00  0.00    +0.038 A 
ATOM      3  C   LIG    1      -35.536  70.022  25.409  0.00  0.00    +0.052 A 
ATOM      4  C   LIG    1      -34.639  69.804  26.447  0.00  0.00    +0.134 A 
ATOM      5  N   LIG    1      -34.030  68.611  26.669  0.00  0.00    -0.261 NA
ATOM      6  C   LIG    1      -34.316  67.600  25.810  0.00  0.00    +0.122 A 
ENDROOT
BRANCH   3   7
ATOM      7  N   LIG    1      -36.198  71.229  25.136  0.00  0.00    -0.284 N 
ATOM      8  H   LIG    1      -35.836  71.741  24.345  0.00  0.00    +0.155 HD
ATOM      9  C   LIG    1      -37.310  71.756  25.764  0.00  0.00    +0.222 C 
ATOM     10  O   LIG    1      -37.878  71.250  26.728  0.00  0.00    -0.275 OA
BRANCH   9  11
ATOM     11  C   LIG    1      -37.768  73.108  25.215  0.00  0.00    +0.131 C 
BRANCH  11  12
ATOM     12  C   LIG    1      -39.130  73.102  24.551  0.00  0.00    -0.038 A 
ATOM     13  C   LIG    1      -39.826  74.304  24.335  0.00  0.00    +0.016 A 
ATOM     14  C   LIG    1      -41.039  74.323  23.626  0.00  0.00    +0.055 A 
ATOM     15  C   LIG    1      -41.566  73.111  23.160  0.00  0.00    +0.012 A 
ATOM     16  C   LIG    1      -40.890  71.912  23.383  0.00  0.00    +0.001 A 
ATOM     17  C   LIG    1      -39.673  71.907  24.064  0.00  0.00    +0.004 A 
BRANCH  14  18
ATOM     18  C   LIG    1      -41.736  75.636  23.362  0.00  0.00    +0.417 C 
ATOM     19  F   LIG    1      -42.315  76.139  24.489  0.00  0.00    -0.166 F 
ATOM     20  F   LIG    1      -42.740  75.517  22.452  0.00  0.00    -0.166 F 
ATOM     21  F   LIG    1      -40.912  76.613  22.895  0.00  0.00    -0.166 F 
ENDBRANCH  14  18
ENDBRANCH  11  12
ENDBRANCH   9  11
ENDBRANCH   3   7
BRANCH   1  22
ATOM     22  C   LIG    1      -35.406  66.569  23.832  0.00  0.00    +0.197 C 
ATOM     23  O   LIG    1      -35.763  65.511  24.349  0.00  0.00    -0.287 OA
BRANCH  22  31
ATOM     24  N   LIG    1      -34.373  66.546  20.299  0.00  0.00    -0.329 N 
ATOM     25  C   LIG    1      -35.670  66.973  20.160  0.00  0.00    +0.145 A 
ATOM     26  N   LIG    1      -36.291  67.253  19.002  0.00  0.00    -0.218 NA
ATOM     27  C   LIG    1      -37.557  67.658  19.186  0.00  0.00    +0.223 A 
ATOM     28  N   LIG    1      -38.224  67.774  20.348  0.00  0.00    -0.243 NA
ATOM     29  C   LIG    1      -37.566  67.455  21.486  0.00  0.00    +0.124 A 
ATOM     30  C   LIG    1      -36.229  67.053  21.429  0.00  0.00    +0.048 A 
ATOM     31  C   LIG    1      -35.225  66.683  22.383  0.00  0.00    +0.051 A 
ATOM     32  C   LIG    1      -34.082  66.407  21.644  0.00  0.00    +0.100 A 
BRANCH  24  34
ATOM     33  C   LIG    1      -31.983  66.344  19.707  0.00  0.00    +0.030 C 
ATOM     34  C   LIG    1      -33.430  66.210  19.230  0.00  0.00    +0.083 C 
ATOM     35  C   LIG    1      -33.675  64.854  18.565  0.00  0.00    +0.030 C 
ENDBRANCH  24  34
ENDBRANCH  22  31
ENDBRANCH   1  22
TORSDOF 7
ENDMDL
