MODEL 1
REMARK VINA RESULT:      -6.3      0.000      0.000
REMARK  Name = pdb/CHEMBL3582439.pdb
REMARK                            x       y       z     vdW  Elec       q    Type
REMARK                         _______ _______ _______ _____ _____    ______ ____
ROOT
ATOM      1  C   LIG    1      -38.715  77.687  27.063  0.00  0.00    +0.143 A 
ATOM      2  N   LIG    1      -37.429  77.870  27.216  0.00  0.00    -0.149 NA
ATOM      3  N   LIG    1      -36.936  77.610  28.466  0.00  0.00    -0.209 N 
ATOM      4  C   LIG    1      -35.609  77.661  28.852  0.00  0.00    +0.111 A 
ATOM      5  C   LIG    1      -35.642  77.386  30.210  0.00  0.00    +0.143 A 
ATOM      6  N   LIG    1      -36.911  77.117  30.652  0.00  0.00    -0.234 NA
ATOM      7  C   LIG    1      -37.664  77.236  29.582  0.00  0.00    +0.155 A 
ATOM      8  C   LIG    1      -39.042  77.017  29.402  0.00  0.00    +0.051 A 
ATOM      9  C   LIG    1      -39.581  77.203  28.196  0.00  0.00    +0.049 A 
ENDROOT
BRANCH   4  10
ATOM     10  C   LIG    1      -34.470  77.928  27.988  0.00  0.00    +0.091 A 
ATOM     11  N   LIG    1      -34.222  79.247  27.793  0.00  0.00    -0.253 NA
ATOM     12  C   LIG    1      -33.150  79.568  27.037  0.00  0.00    +0.111 A 
ATOM     13  C   LIG    1      -32.293  78.639  26.472  0.00  0.00    +0.020 A 
ATOM     14  C   LIG    1      -32.555  77.294  26.690  0.00  0.00    +0.004 A 
ATOM     15  C   LIG    1      -33.656  76.933  27.462  0.00  0.00    +0.030 A 
ENDBRANCH   4  10
BRANCH   1  17
ATOM     16  C   LIG    1      -38.801  77.288  24.576  0.00  0.00    +0.105 C 
ATOM     17  N   LIG    1      -39.282  77.929  25.818  0.00  0.00    -0.307 N 
ATOM     18  C   LIG    1      -40.078  79.112  25.501  0.00  0.00    +0.107 C 
ATOM     19  C   LIG    1      -39.745  79.423  24.049  0.00  0.00    +0.021 C 
ATOM     20  C   LIG    1      -39.536  78.044  23.455  0.00  0.00    +0.029 C 
BRANCH  16  24
ATOM     21  F   LIG    1      -37.445  72.637  25.225  0.00  0.00    -0.205 F 
ATOM     22  C   LIG    1      -38.379  73.506  24.817  0.00  0.00    +0.124 A 
ATOM     23  C   LIG    1      -38.118  74.873  24.886  0.00  0.00    +0.043 A 
ATOM     24  C   LIG    1      -39.096  75.801  24.488  0.00  0.00    -0.024 A 
ATOM     25  C   LIG    1      -40.317  75.308  23.995  0.00  0.00    +0.005 A 
ATOM     26  C   LIG    1      -40.570  73.934  23.936  0.00  0.00    +0.003 A 
ATOM     27  C   LIG    1      -39.597  73.029  24.353  0.00  0.00    +0.038 A 
ENDBRANCH  16  24
ENDBRANCH   1  17
TORSDOF 3
ENDMDL
MODEL 2
REMARK VINA RESULT:      -6.2      0.892      1.285
REMARK  Name = pdb/CHEMBL3582439.pdb
REMARK                            x       y       z     vdW  Elec       q    Type
REMARK                         _______ _______ _______ _____ _____    ______ ____
ROOT
ATOM      1  C   LIG    1      -38.676  77.559  27.088  0.00  0.00    +0.143 A 
ATOM      2  N   LIG    1      -37.394  77.777  27.230  0.00  0.00    -0.149 NA
ATOM      3  N   LIG    1      -36.884  77.539  28.477  0.00  0.00    -0.209 N 
ATOM      4  C   LIG    1      -35.557  77.629  28.853  0.00  0.00    +0.111 A 
ATOM      5  C   LIG    1      -35.572  77.362  30.213  0.00  0.00    +0.143 A 
ATOM      6  N   LIG    1      -36.830  77.061  30.666  0.00  0.00    -0.234 NA
ATOM      7  C   LIG    1      -37.594  77.153  29.602  0.00  0.00    +0.155 A 
ATOM      8  C   LIG    1      -38.967  76.895  29.434  0.00  0.00    +0.051 A 
ATOM      9  C   LIG    1      -39.519  77.058  28.231  0.00  0.00    +0.049 A 
ENDROOT
BRANCH   4  10
ATOM     10  C   LIG    1      -34.432  77.922  27.978  0.00  0.00    +0.091 A 
ATOM     11  N   LIG    1      -34.201  79.246  27.800  0.00  0.00    -0.253 NA
ATOM     12  C   LIG    1      -33.142  79.590  27.035  0.00  0.00    +0.111 A 
ATOM     13  C   LIG    1      -32.283  78.679  26.445  0.00  0.00    +0.020 A 
ATOM     14  C   LIG    1      -32.527  77.328  26.647  0.00  0.00    +0.004 A 
ATOM     15  C   LIG    1      -33.614  76.943  27.427  0.00  0.00    +0.030 A 
ENDBRANCH   4  10
BRANCH   1  17
ATOM     16  C   LIG    1      -38.759  77.156  24.601  0.00  0.00    +0.105 C 
ATOM     17  N   LIG    1      -39.258  77.777  25.846  0.00  0.00    -0.307 N 
ATOM     18  C   LIG    1      -40.104  78.926  25.533  0.00  0.00    +0.107 C 
ATOM     19  C   LIG    1      -39.791  79.250  24.080  0.00  0.00    +0.021 C 
ATOM     20  C   LIG    1      -39.530  77.881  23.485  0.00  0.00    +0.029 C 
BRANCH  16  24
ATOM     21  F   LIG    1      -41.541  73.350  23.307  0.00  0.00    -0.205 F 
ATOM     22  C   LIG    1      -40.409  73.798  23.867  0.00  0.00    +0.124 A 
ATOM     23  C   LIG    1      -40.186  75.170  23.957  0.00  0.00    +0.043 A 
ATOM     24  C   LIG    1      -38.993  75.657  24.516  0.00  0.00    -0.024 A 
ATOM     25  C   LIG    1      -38.059  74.726  25.003  0.00  0.00    +0.005 A 
ATOM     26  C   LIG    1      -38.290  73.350  24.901  0.00  0.00    +0.003 A 
ATOM     27  C   LIG    1      -39.470  72.885  24.327  0.00  0.00    +0.038 A 
ENDBRANCH  16  24
ENDBRANCH   1  17
TORSDOF 3
ENDMDL
MODEL 3
REMARK VINA RESULT:      -6.2     13.950     18.162
REMARK  Name = pdb/CHEMBL3582439.pdb
REMARK                            x       y       z     vdW  Elec       q    Type
REMARK                         _______ _______ _______ _____ _____    ______ ____
ROOT
ATOM      1  C   LIG    1      -20.706  77.332  31.303  0.00  0.00    +0.143 A 
ATOM      2  N   LIG    1      -21.740  77.800  31.954  0.00  0.00    -0.149 NA
ATOM      3  N   LIG    1      -22.958  77.588  31.368  0.00  0.00    -0.209 N 
ATOM      4  C   LIG    1      -24.191  77.924  31.893  0.00  0.00    +0.111 A 
ATOM      5  C   LIG    1      -25.090  77.569  30.899  0.00  0.00    +0.143 A 
ATOM      6  N   LIG    1      -24.468  76.985  29.826  0.00  0.00    -0.234 NA
ATOM      7  C   LIG    1      -23.194  76.989  30.142  0.00  0.00    +0.155 A 
ATOM      8  C   LIG    1      -22.079  76.466  29.461  0.00  0.00    +0.051 A 
ATOM      9  C   LIG    1      -20.866  76.592  30.001  0.00  0.00    +0.049 A 
ENDROOT
BRANCH   4  10
ATOM     10  C   LIG    1      -24.441  78.501  33.205  0.00  0.00    +0.091 A 
ATOM     11  N   LIG    1      -25.504  77.962  33.852  0.00  0.00    -0.253 NA
ATOM     12  C   LIG    1      -25.766  78.420  35.096  0.00  0.00    +0.111 A 
ATOM     13  C   LIG    1      -25.011  79.382  35.742  0.00  0.00    +0.020 A 
ATOM     14  C   LIG    1      -23.920  79.915  35.070  0.00  0.00    +0.004 A 
ATOM     15  C   LIG    1      -23.628  79.466  33.785  0.00  0.00    +0.030 A 
ENDBRANCH   4  10
BRANCH   1  17
ATOM     16  C   LIG    1      -19.087  78.647  32.718  0.00  0.00    +0.105 C 
ATOM     17  N   LIG    1      -19.439  77.508  31.844  0.00  0.00    -0.307 N 
ATOM     18  C   LIG    1      -18.229  76.895  31.302  0.00  0.00    +0.107 C 
ATOM     19  C   LIG    1      -17.136  77.927  31.535  0.00  0.00    +0.021 C 
ATOM     20  C   LIG    1      -17.556  78.563  32.845  0.00  0.00    +0.029 C 
BRANCH  16  24
ATOM     21  F   LIG    1      -21.023  80.918  36.589  0.00  0.00    -0.205 F 
ATOM     22  C   LIG    1      -20.677  79.767  35.997  0.00  0.00    +0.124 A 
ATOM     23  C   LIG    1      -20.078  79.798  34.740  0.00  0.00    +0.043 A 
ATOM     24  C   LIG    1      -19.732  78.600  34.092  0.00  0.00    -0.024 A 
ATOM     25  C   LIG    1      -19.979  77.388  34.761  0.00  0.00    +0.005 A 
ATOM     26  C   LIG    1      -20.588  77.369  36.020  0.00  0.00    +0.003 A 
ATOM     27  C   LIG    1      -20.941  78.565  36.639  0.00  0.00    +0.038 A 
ENDBRANCH  16  24
ENDBRANCH   1  17
TORSDOF 3
ENDMDL
MODEL 4
REMARK VINA RESULT:      -6.1     14.392     17.633
REMARK  Name = pdb/CHEMBL3582439.pdb
REMARK                            x       y       z     vdW  Elec       q    Type
REMARK                         _______ _______ _______ _____ _____    ______ ____
ROOT
ATOM      1  C   LIG    1      -24.043  77.715  32.700  0.00  0.00    +0.143 A 
ATOM      2  N   LIG    1      -22.747  77.577  32.590  0.00  0.00    -0.149 NA
ATOM      3  N   LIG    1      -22.277  77.345  31.326  0.00  0.00    -0.209 N 
ATOM      4  C   LIG    1      -20.952  77.236  30.950  0.00  0.00    +0.111 A 
ATOM      5  C   LIG    1      -21.008  76.937  29.598  0.00  0.00    +0.143 A 
ATOM      6  N   LIG    1      -22.295  76.915  29.127  0.00  0.00    -0.234 NA
ATOM      7  C   LIG    1      -23.035  77.185  30.178  0.00  0.00    +0.155 A 
ATOM      8  C   LIG    1      -24.425  77.360  30.300  0.00  0.00    +0.051 A 
ATOM      9  C   LIG    1      -24.946  77.639  31.496  0.00  0.00    +0.049 A 
ENDROOT
BRANCH   4  10
ATOM     10  C   LIG    1      -19.794  77.420  31.810  0.00  0.00    +0.091 A 
ATOM     11  N   LIG    1      -19.085  76.286  32.032  0.00  0.00    -0.253 NA
ATOM     12  C   LIG    1      -17.969  76.393  32.787  0.00  0.00    +0.111 A 
ATOM     13  C   LIG    1      -17.508  77.582  33.324  0.00  0.00    +0.020 A 
ATOM     14  C   LIG    1      -18.240  78.735  33.078  0.00  0.00    +0.004 A 
ATOM     15  C   LIG    1      -19.396  78.655  32.308  0.00  0.00    +0.030 A 
ENDBRANCH   4  10
BRANCH   1  17
ATOM     16  C   LIG    1      -23.777  77.996  35.190  0.00  0.00    +0.105 C 
ATOM     17  N   LIG    1      -24.587  77.956  33.955  0.00  0.00    -0.307 N 
ATOM     18  C   LIG    1      -25.998  77.765  34.282  0.00  0.00    +0.107 C 
ATOM     19  C   LIG    1      -25.997  77.283  35.724  0.00  0.00    +0.021 C 
ATOM     20  C   LIG    1      -24.819  78.026  36.321  0.00  0.00    +0.029 C 
BRANCH  16  24
ATOM     21  F   LIG    1      -19.331  79.901  35.895  0.00  0.00    -0.205 F 
ATOM     22  C   LIG    1      -20.633  80.103  35.657  0.00  0.00    +0.124 A 
ATOM     23  C   LIG    1      -21.490  79.008  35.568  0.00  0.00    +0.043 A 
ATOM     24  C   LIG    1      -22.854  79.198  35.292  0.00  0.00    -0.024 A 
ATOM     25  C   LIG    1      -23.324  80.516  35.142  0.00  0.00    +0.005 A 
ATOM     26  C   LIG    1      -22.453  81.607  35.227  0.00  0.00    +0.003 A 
ATOM     27  C   LIG    1      -21.101  81.398  35.482  0.00  0.00    +0.038 A 
ENDBRANCH  16  24
ENDBRANCH   1  17
TORSDOF 3
ENDMDL
MODEL 5
REMARK VINA RESULT:      -6.0     13.292     17.477
REMARK  Name = pdb/CHEMBL3582439.pdb
REMARK                            x       y       z     vdW  Elec       q    Type
REMARK                         _______ _______ _______ _____ _____    ______ ____
ROOT
ATOM      1  C   LIG    1      -20.296  78.850  33.883  0.00  0.00    +0.143 A 
ATOM      2  N   LIG    1      -21.522  78.475  33.623  0.00  0.00    -0.149 NA
ATOM      3  N   LIG    1      -22.504  79.132  34.312  0.00  0.00    -0.209 N 
ATOM      4  C   LIG    1      -23.868  78.964  34.159  0.00  0.00    +0.111 A 
ATOM      5  C   LIG    1      -24.421  79.795  35.120  0.00  0.00    +0.143 A 
ATOM      6  N   LIG    1      -23.465  80.497  35.807  0.00  0.00    -0.234 NA
ATOM      7  C   LIG    1      -22.327  80.098  35.288  0.00  0.00    +0.155 A 
ATOM      8  C   LIG    1      -21.007  80.513  35.544  0.00  0.00    +0.051 A 
ATOM      9  C   LIG    1      -20.003  79.950  34.869  0.00  0.00    +0.049 A 
ENDROOT
BRANCH   4  10
ATOM     10  C   LIG    1      -24.526  78.110  33.183  0.00  0.00    +0.091 A 
ATOM     11  N   LIG    1      -25.333  77.167  33.729  0.00  0.00    -0.253 NA
ATOM     12  C   LIG    1      -26.012  76.367  32.878  0.00  0.00    +0.111 A 
ATOM     13  C   LIG    1      -25.943  76.467  31.499  0.00  0.00    +0.020 A 
ATOM     14  C   LIG    1      -25.121  77.444  30.957  0.00  0.00    +0.004 A 
ATOM     15  C   LIG    1      -24.405  78.280  31.809  0.00  0.00    +0.030 A 
ENDBRANCH   4  10
BRANCH   1  17
ATOM     16  C   LIG    1      -19.305  76.821  32.763  0.00  0.00    +0.105 C 
ATOM     17  N   LIG    1      -19.249  78.227  33.215  0.00  0.00    -0.307 N 
ATOM     18  C   LIG    1      -17.864  78.688  33.262  0.00  0.00    +0.107 C 
ATOM     19  C   LIG    1      -17.032  77.415  33.217  0.00  0.00    +0.021 C 
ATOM     20  C   LIG    1      -17.862  76.509  32.329  0.00  0.00    +0.029 C 
BRANCH  16  24
ATOM     21  F   LIG    1      -23.217  74.564  30.895  0.00  0.00    -0.205 F 
ATOM     22  C   LIG    1      -22.207  75.426  30.721  0.00  0.00    +0.124 A 
ATOM     23  C   LIG    1      -21.315  75.654  31.766  0.00  0.00    +0.043 A 
ATOM     24  C   LIG    1      -20.265  76.575  31.612  0.00  0.00    -0.024 A 
ATOM     25  C   LIG    1      -20.128  77.224  30.372  0.00  0.00    +0.005 A 
ATOM     26  C   LIG    1      -21.033  76.991  29.331  0.00  0.00    +0.003 A 
ATOM     27  C   LIG    1      -22.080  76.090  29.509  0.00  0.00    +0.038 A 
ENDBRANCH  16  24
ENDBRANCH   1  17
TORSDOF 3
ENDMDL
MODEL 6
REMARK VINA RESULT:      -5.8     14.361     17.760
REMARK  Name = pdb/CHEMBL3582439.pdb
REMARK                            x       y       z     vdW  Elec       q    Type
REMARK                         _______ _______ _______ _____ _____    ______ ____
ROOT
ATOM      1  C   LIG    1      -23.175  77.420  32.279  0.00  0.00    +0.143 A 
ATOM      2  N   LIG    1      -22.857  78.271  33.221  0.00  0.00    -0.149 NA
ATOM      3  N   LIG    1      -23.873  78.635  34.062  0.00  0.00    -0.209 N 
ATOM      4  C   LIG    1      -23.769  79.459  35.166  0.00  0.00    +0.111 A 
ATOM      5  C   LIG    1      -25.071  79.568  35.630  0.00  0.00    +0.143 A 
ATOM      6  N   LIG    1      -25.945  78.809  34.897  0.00  0.00    -0.234 NA
ATOM      7  C   LIG    1      -25.199  78.242  33.977  0.00  0.00    +0.155 A 
ATOM      8  C   LIG    1      -25.526  77.307  32.978  0.00  0.00    +0.051 A 
ATOM      9  C   LIG    1      -24.572  76.871  32.155  0.00  0.00    +0.049 A 
ENDROOT
BRANCH   4  10
ATOM     10  C   LIG    1      -22.545  80.041  35.695  0.00  0.00    +0.091 A 
ATOM     11  N   LIG    1      -21.833  79.204  36.487  0.00  0.00    -0.253 NA
ATOM     12  C   LIG    1      -20.661  79.665  36.976  0.00  0.00    +0.111 A 
ATOM     13  C   LIG    1      -20.147  80.921  36.702  0.00  0.00    +0.020 A 
ATOM     14  C   LIG    1      -20.884  81.761  35.880  0.00  0.00    +0.004 A 
ATOM     15  C   LIG    1      -22.098  81.315  35.365  0.00  0.00    +0.030 A 
ENDBRANCH   4  10
BRANCH   1  17
ATOM     16  C   LIG    1      -20.941  77.760  31.163  0.00  0.00    +0.105 C 
ATOM     17  N   LIG    1      -22.190  77.004  31.392  0.00  0.00    -0.307 N 
ATOM     18  C   LIG    1      -22.425  76.071  30.293  0.00  0.00    +0.107 C 
ATOM     19  C   LIG    1      -21.507  76.550  29.178  0.00  0.00    +0.021 C 
ATOM     20  C   LIG    1      -20.307  77.074  29.940  0.00  0.00    +0.029 C 
BRANCH  16  24
ATOM     21  F   LIG    1      -18.285  75.300  34.448  0.00  0.00    -0.205 F 
ATOM     22  C   LIG    1      -18.682  76.482  33.956  0.00  0.00    +0.124 A 
ATOM     23  C   LIG    1      -19.571  76.512  32.884  0.00  0.00    +0.043 A 
ATOM     24  C   LIG    1      -19.977  77.741  32.336  0.00  0.00    -0.024 A 
ATOM     25  C   LIG    1      -19.487  78.922  32.921  0.00  0.00    +0.005 A 
ATOM     26  C   LIG    1      -18.590  78.879  33.993  0.00  0.00    +0.003 A 
ATOM     27  C   LIG    1      -18.183  77.652  34.510  0.00  0.00    +0.038 A 
ENDBRANCH  16  24
ENDBRANCH   1  17
TORSDOF 3
ENDMDL
MODEL 7
REMARK VINA RESULT:      -5.7     13.100     16.982
REMARK  Name = pdb/CHEMBL3582439.pdb
REMARK                            x       y       z     vdW  Elec       q    Type
REMARK                         _______ _______ _______ _____ _____    ______ ____
ROOT
ATOM      1  C   LIG    1      -20.980  78.538  33.190  0.00  0.00    +0.143 A 
ATOM      2  N   LIG    1      -22.001  77.961  32.611  0.00  0.00    -0.149 NA
ATOM      3  N   LIG    1      -21.755  77.405  31.385  0.00  0.00    -0.209 N 
ATOM      4  C   LIG    1      -22.649  76.685  30.616  0.00  0.00    +0.111 A 
ATOM      5  C   LIG    1      -21.946  76.405  29.454  0.00  0.00    +0.143 A 
ATOM      6  N   LIG    1      -20.658  76.870  29.506  0.00  0.00    -0.234 NA
ATOM      7  C   LIG    1      -20.563  77.446  30.682  0.00  0.00    +0.155 A 
ATOM      8  C   LIG    1      -19.463  78.045  31.323  0.00  0.00    +0.051 A 
ATOM      9  C   LIG    1      -19.620  78.563  32.542  0.00  0.00    +0.049 A 
ENDROOT
BRANCH   4  10
ATOM     10  C   LIG    1      -24.005  76.313  30.991  0.00  0.00    +0.091 A 
ATOM     11  N   LIG    1      -24.153  75.001  31.296  0.00  0.00    -0.253 NA
ATOM     12  C   LIG    1      -25.378  74.596  31.697  0.00  0.00    +0.111 A 
ATOM     13  C   LIG    1      -26.469  75.437  31.827  0.00  0.00    +0.020 A 
ATOM     14  C   LIG    1      -26.297  76.780  31.521  0.00  0.00    +0.004 A 
ATOM     15  C   LIG    1      -25.047  77.226  31.101  0.00  0.00    +0.030 A 
ENDBRANCH   4  10
BRANCH   1  17
ATOM     16  C   LIG    1      -22.457  79.654  34.900  0.00  0.00    +0.105 C 
ATOM     17  N   LIG    1      -21.159  79.120  34.438  0.00  0.00    -0.307 N 
ATOM     18  C   LIG    1      -20.072  79.668  35.245  0.00  0.00    +0.107 C 
ATOM     19  C   LIG    1      -20.685  80.865  35.956  0.00  0.00    +0.021 C 
ATOM     20  C   LIG    1      -22.112  80.414  36.192  0.00  0.00    +0.029 C 
BRANCH  16  24
ATOM     21  F   LIG    1      -27.024  77.965  34.473  0.00  0.00    -0.205 F 
ATOM     22  C   LIG    1      -25.785  77.793  34.951  0.00  0.00    +0.124 A 
ATOM     23  C   LIG    1      -24.817  78.766  34.708  0.00  0.00    +0.043 A 
ATOM     24  C   LIG    1      -23.505  78.591  35.178  0.00  0.00    -0.024 A 
ATOM     25  C   LIG    1      -23.215  77.431  35.921  0.00  0.00    +0.005 A 
ATOM     26  C   LIG    1      -24.193  76.459  36.153  0.00  0.00    +0.003 A 
ATOM     27  C   LIG    1      -25.483  76.640  35.663  0.00  0.00    +0.038 A 
ENDBRANCH  16  24
ENDBRANCH   1  17
TORSDOF 3
ENDMDL
MODEL 8
REMARK VINA RESULT:      -5.7     14.143     16.657
REMARK  Name = pdb/CHEMBL3582439.pdb
REMARK                            x       y       z     vdW  Elec       q    Type
REMARK                         _______ _______ _______ _____ _____    ______ ____
ROOT
ATOM      1  C   LIG    1      -24.353  76.589  33.337  0.00  0.00    +0.143 A 
ATOM      2  N   LIG    1      -23.219  77.233  33.439  0.00  0.00    -0.149 NA
ATOM      3  N   LIG    1      -23.269  78.422  34.114  0.00  0.00    -0.209 N 
ATOM      4  C   LIG    1      -22.197  79.243  34.411  0.00  0.00    +0.111 A 
ATOM      5  C   LIG    1      -22.774  80.338  35.034  0.00  0.00    +0.143 A 
ATOM      6  N   LIG    1      -24.129  80.197  35.178  0.00  0.00    -0.234 NA
ATOM      7  C   LIG    1      -24.397  79.030  34.638  0.00  0.00    +0.155 A 
ATOM      8  C   LIG    1      -25.608  78.318  34.546  0.00  0.00    +0.051 A 
ATOM      9  C   LIG    1      -25.621  77.127  33.946  0.00  0.00    +0.049 A 
ENDROOT
BRANCH   4  10
ATOM     10  C   LIG    1      -20.797  78.967  34.130  0.00  0.00    +0.091 A 
ATOM     11  N   LIG    1      -20.027  78.836  35.238  0.00  0.00    -0.253 NA
ATOM     12  C   LIG    1      -18.723  78.534  35.051  0.00  0.00    +0.111 A 
ATOM     13  C   LIG    1      -18.143  78.338  33.810  0.00  0.00    +0.020 A 
ATOM     14  C   LIG    1      -18.948  78.466  32.687  0.00  0.00    +0.004 A 
ATOM     15  C   LIG    1      -20.295  78.781  32.848  0.00  0.00    +0.030 A 
ENDBRANCH   4  10
BRANCH   1  17
ATOM     16  C   LIG    1      -23.909  75.210  31.274  0.00  0.00    +0.105 C 
ATOM     17  N   LIG    1      -24.374  75.372  32.667  0.00  0.00    -0.307 N 
ATOM     18  C   LIG    1      -25.221  74.245  33.051  0.00  0.00    +0.107 C 
ATOM     19  C   LIG    1      -25.601  73.583  31.735  0.00  0.00    +0.021 C 
ATOM     20  C   LIG    1      -24.361  73.791  30.890  0.00  0.00    +0.029 C 
BRANCH  16  24
ATOM     21  F   LIG    1      -20.055  77.268  29.081  0.00  0.00    -0.205 F 
ATOM     22  C   LIG    1      -20.523  76.389  29.978  0.00  0.00    +0.124 A 
ATOM     23  C   LIG    1      -21.898  76.247  30.143  0.00  0.00    +0.043 A 
ATOM     24  C   LIG    1      -22.407  75.350  31.098  0.00  0.00    -0.024 A 
ATOM     25  C   LIG    1      -21.492  74.589  31.847  0.00  0.00    +0.005 A 
ATOM     26  C   LIG    1      -20.113  74.745  31.677  0.00  0.00    +0.003 A 
ATOM     27  C   LIG    1      -19.627  75.652  30.740  0.00  0.00    +0.038 A 
ENDBRANCH  16  24
ENDBRANCH   1  17
TORSDOF 3
ENDMDL
MODEL 9
REMARK VINA RESULT:      -5.6     13.537     17.649
REMARK  Name = pdb/CHEMBL3582439.pdb
REMARK                            x       y       z     vdW  Elec       q    Type
REMARK                         _______ _______ _______ _____ _____    ______ ____
ROOT
ATOM      1  C   LIG    1      -22.745  77.303  31.335  0.00  0.00    +0.143 A 
ATOM      2  N   LIG    1      -21.749  77.525  32.154  0.00  0.00    -0.149 NA
ATOM      3  N   LIG    1      -20.497  77.362  31.626  0.00  0.00    -0.209 N 
ATOM      4  C   LIG    1      -19.298  77.605  32.269  0.00  0.00    +0.111 A 
ATOM      5  C   LIG    1      -18.337  77.226  31.346  0.00  0.00    +0.143 A 
ATOM      6  N   LIG    1      -18.892  76.820  30.160  0.00  0.00    -0.234 NA
ATOM      7  C   LIG    1      -20.187  76.932  30.347  0.00  0.00    +0.155 A 
ATOM      8  C   LIG    1      -21.263  76.721  29.466  0.00  0.00    +0.051 A 
ATOM      9  C   LIG    1      -22.510  76.911  29.899  0.00  0.00    +0.049 A 
ENDROOT
BRANCH   4  10
ATOM     10  C   LIG    1      -19.133  78.152  33.607  0.00  0.00    +0.091 A 
ATOM     11  N   LIG    1      -18.229  77.487  34.368  0.00  0.00    -0.253 NA
ATOM     12  C   LIG    1      -17.993  77.970  35.608  0.00  0.00    +0.111 A 
ATOM     13  C   LIG    1      -18.600  79.099  36.129  0.00  0.00    +0.020 A 
ATOM     14  C   LIG    1      -19.513  79.774  35.332  0.00  0.00    +0.004 A 
ATOM     15  C   LIG    1      -19.781  79.297  34.052  0.00  0.00    +0.030 A 
ENDBRANCH   4  10
BRANCH   1  17
ATOM     16  C   LIG    1      -24.448  77.113  33.183  0.00  0.00    +0.105 C 
ATOM     17  N   LIG    1      -24.044  77.454  31.803  0.00  0.00    -0.307 N 
ATOM     18  C   LIG    1      -25.218  77.533  30.938  0.00  0.00    +0.107 C 
ATOM     19  C   LIG    1      -26.321  76.836  31.721  0.00  0.00    +0.021 C 
ATOM     20  C   LIG    1      -25.984  77.192  33.155  0.00  0.00    +0.029 C 
BRANCH  16  24
ATOM     21  F   LIG    1      -22.134  77.833  37.429  0.00  0.00    -0.205 F 
ATOM     22  C   LIG    1      -22.749  78.359  36.361  0.00  0.00    +0.124 A 
ATOM     23  C   LIG    1      -23.269  77.512  35.384  0.00  0.00    +0.043 A 
ATOM     24  C   LIG    1      -23.892  78.046  34.244  0.00  0.00    -0.024 A 
ATOM     25  C   LIG    1      -24.000  79.445  34.140  0.00  0.00    +0.005 A 
ATOM     26  C   LIG    1      -23.468  80.285  35.124  0.00  0.00    +0.003 A 
ATOM     27  C   LIG    1      -22.837  79.739  36.237  0.00  0.00    +0.038 A 
ENDBRANCH  16  24
ENDBRANCH   1  17
TORSDOF 3
ENDMDL
