MODEL 1
REMARK VINA RESULT:      -5.8      0.000      0.000
REMARK  Name = pdb/CHEMBL3671154.pdb
REMARK                            x       y       z     vdW  Elec       q    Type
REMARK                         _______ _______ _______ _____ _____    ______ ____
ROOT
ATOM      1  C   LIG    1      -38.013  68.898  22.556  0.00  0.00    +0.100 A 
ATOM      2  C   LIG    1      -38.872  69.896  22.985  0.00  0.00    +0.170 A 
ATOM      3  N   LIG    1      -38.772  70.821  24.003  0.00  0.00    -0.212 NA
ATOM      4  C   LIG    1      -39.788  71.634  24.201  0.00  0.00    +0.126 A 
ATOM      5  C   LIG    1      -41.021  71.591  23.324  0.00  0.00    +0.063 A 
ATOM      6  C   LIG    1      -41.055  70.686  22.340  0.00  0.00    +0.118 A 
ATOM      7  N   LIG    1      -39.990  69.827  22.153  0.00  0.00    -0.221 N 
ATOM      8  N   LIG    1      -39.870  68.864  21.210  0.00  0.00    -0.173 NA
ATOM      9  C   LIG    1      -38.681  68.313  21.456  0.00  0.00    +0.150 A 
ENDROOT
BRANCH   4  10
ATOM     10  N   LIG    1      -39.744  72.564  25.229  0.00  0.00    -0.308 N 
ATOM     11  C   LIG    1      -38.731  73.628  25.341  0.00  0.00    +0.108 C 
ATOM     12  C   LIG    1      -38.542  73.761  26.862  0.00  0.00    +0.029 C 
ATOM     13  C   LIG    1      -39.918  73.456  27.430  0.00  0.00    +0.021 C 
ATOM     14  C   LIG    1      -40.468  72.392  26.489  0.00  0.00    +0.107 C 
BRANCH  11  15
ATOM     15  C   LIG    1      -39.205  74.911  24.673  0.00  0.00    +0.011 A 
ATOM     16  C   LIG    1      -38.355  76.023  24.599  0.00  0.00    +0.129 A 
ATOM     17  F   LIG    1      -37.140  75.972  25.162  0.00  0.00    -0.205 F 
ATOM     18  C   LIG    1      -38.736  77.202  23.948  0.00  0.00    +0.041 A 
ATOM     19  C   LIG    1      -40.001  77.298  23.371  0.00  0.00    +0.041 A 
ATOM     20  C   LIG    1      -40.866  76.218  23.464  0.00  0.00    +0.124 A 
ATOM     21  F   LIG    1      -42.092  76.306  22.932  0.00  0.00    -0.205 F 
ATOM     22  C   LIG    1      -40.483  75.040  24.100  0.00  0.00    +0.046 A 
ENDBRANCH  11  15
ENDBRANCH   4  10
BRANCH   1  25
ATOM     23  N   LIG    1      -36.665  68.552  24.477  0.00  0.00    -0.309 N 
ATOM     24  H   LIG    1      -37.447  68.993  24.957  0.00  0.00    +0.149 HD
ATOM     25  C   LIG    1      -36.732  68.506  23.097  0.00  0.00    +0.249 C 
ATOM     26  O   LIG    1      -35.803  68.159  22.390  0.00  0.00    -0.270 OA
BRANCH  23  27
ATOM     27  C   LIG    1      -35.431  68.240  25.170  0.00  0.00    +0.138 C 
BRANCH  27  28
ATOM     28  C   LIG    1      -34.814  69.481  25.829  0.00  0.00    +0.157 C 
BRANCH  28  29
ATOM     29  O   LIG    1      -33.754  70.006  25.017  0.00  0.00    -0.388 OA
ATOM     30  H   LIG    1      -33.974  70.936  24.830  0.00  0.00    +0.210 HD
ENDBRANCH  28  29
BRANCH  28  31
ATOM     31  C   LIG    1      -35.863  70.576  26.034  0.00  0.00    +0.188 C 
BRANCH  31  32
ATOM     32  O   LIG    1      -35.948  71.427  24.898  0.00  0.00    -0.392 OA
ATOM     33  H   LIG    1      -35.094  71.891  24.828  0.00  0.00    +0.210 HD
ENDBRANCH  31  32
ENDBRANCH  28  31
ENDBRANCH  27  28
ENDBRANCH  23  27
ENDBRANCH   1  25
TORSDOF 8
ENDMDL
MODEL 2
REMARK VINA RESULT:      -5.4     22.526     24.333
REMARK  Name = pdb/CHEMBL3671154.pdb
REMARK                            x       y       z     vdW  Elec       q    Type
REMARK                         _______ _______ _______ _____ _____    ______ ____
ROOT
ATOM      1  C   LIG    1      -18.683  82.592  13.843  0.00  0.00    +0.100 A 
ATOM      2  C   LIG    1      -18.950  83.923  13.569  0.00  0.00    +0.170 A 
ATOM      3  N   LIG    1      -20.038  84.721  13.853  0.00  0.00    -0.212 NA
ATOM      4  C   LIG    1      -20.023  85.963  13.420  0.00  0.00    +0.126 A 
ATOM      5  C   LIG    1      -18.838  86.525  12.662  0.00  0.00    +0.063 A 
ATOM      6  C   LIG    1      -17.803  85.712  12.432  0.00  0.00    +0.118 A 
ATOM      7  N   LIG    1      -17.838  84.404  12.876  0.00  0.00    -0.221 N 
ATOM      8  N   LIG    1      -16.879  83.462  12.726  0.00  0.00    -0.173 NA
ATOM      9  C   LIG    1      -17.391  82.378  13.311  0.00  0.00    +0.150 A 
ENDROOT
BRANCH   4  10
ATOM     10  N   LIG    1      -21.106  86.796  13.659  0.00  0.00    -0.308 N 
ATOM     11  C   LIG    1      -21.776  87.601  12.624  0.00  0.00    +0.108 C 
ATOM     12  C   LIG    1      -22.202  88.862  13.394  0.00  0.00    +0.029 C 
ATOM     13  C   LIG    1      -22.506  88.352  14.793  0.00  0.00    +0.021 C 
ATOM     14  C   LIG    1      -21.486  87.241  15.000  0.00  0.00    +0.107 C 
BRANCH  11  15
ATOM     15  C   LIG    1      -22.944  86.843  12.008  0.00  0.00    +0.011 A 
ATOM     16  C   LIG    1      -23.733  87.446  11.018  0.00  0.00    +0.129 A 
ATOM     17  F   LIG    1      -23.488  88.710  10.650  0.00  0.00    -0.205 F 
ATOM     18  C   LIG    1      -24.782  86.762  10.393  0.00  0.00    +0.041 A 
ATOM     19  C   LIG    1      -25.079  85.453  10.767  0.00  0.00    +0.041 A 
ATOM     20  C   LIG    1      -24.329  84.854  11.768  0.00  0.00    +0.124 A 
ATOM     21  F   LIG    1      -24.618  83.604  12.152  0.00  0.00    -0.205 F 
ATOM     22  C   LIG    1      -23.277  85.529  12.382  0.00  0.00    +0.046 A 
ENDBRANCH  11  15
ENDBRANCH   4  10
BRANCH   1  25
ATOM     23  N   LIG    1      -20.289  82.131  15.526  0.00  0.00    -0.309 N 
ATOM     24  H   LIG    1      -20.087  83.087  15.812  0.00  0.00    +0.149 HD
ATOM     25  C   LIG    1      -19.518  81.614  14.503  0.00  0.00    +0.249 C 
ATOM     26  O   LIG    1      -19.538  80.443  14.171  0.00  0.00    -0.270 OA
BRANCH  23  27
ATOM     27  C   LIG    1      -21.140  81.268  16.321  0.00  0.00    +0.138 C 
BRANCH  27  28
ATOM     28  C   LIG    1      -22.482  81.933  16.654  0.00  0.00    +0.157 C 
BRANCH  28  29
ATOM     29  O   LIG    1      -22.278  83.087  17.482  0.00  0.00    -0.388 OA
ATOM     30  H   LIG    1      -22.980  83.724  17.258  0.00  0.00    +0.210 HD
ENDBRANCH  28  29
BRANCH  28  31
ATOM     31  C   LIG    1      -23.215  82.365  15.382  0.00  0.00    +0.188 C 
BRANCH  31  32
ATOM     32  O   LIG    1      -22.894  83.705  15.032  0.00  0.00    -0.392 OA
ATOM     33  H   LIG    1      -21.922  83.760  14.985  0.00  0.00    +0.210 HD
ENDBRANCH  31  32
ENDBRANCH  28  31
ENDBRANCH  27  28
ENDBRANCH  23  27
ENDBRANCH   1  25
TORSDOF 8
ENDMDL
MODEL 3
REMARK VINA RESULT:      -5.4      5.008      7.753
REMARK  Name = pdb/CHEMBL3671154.pdb
REMARK                            x       y       z     vdW  Elec       q    Type
REMARK                         _______ _______ _______ _____ _____    ______ ____
ROOT
ATOM      1  C   LIG    1      -36.237  76.659  29.246  0.00  0.00    +0.100 A 
ATOM      2  C   LIG    1      -37.469  76.991  28.709  0.00  0.00    +0.170 A 
ATOM      3  N   LIG    1      -37.906  77.101  27.406  0.00  0.00    -0.212 NA
ATOM      4  C   LIG    1      -39.149  77.482  27.201  0.00  0.00    +0.126 A 
ATOM      5  C   LIG    1      -40.093  77.760  28.352  0.00  0.00    +0.063 A 
ATOM      6  C   LIG    1      -39.621  77.619  29.594  0.00  0.00    +0.118 A 
ATOM      7  N   LIG    1      -38.309  77.235  29.796  0.00  0.00    -0.221 N 
ATOM      8  N   LIG    1      -37.684  77.048  30.981  0.00  0.00    -0.173 NA
ATOM      9  C   LIG    1      -36.442  76.700  30.643  0.00  0.00    +0.150 A 
ENDROOT
BRANCH   4  10
ATOM     10  N   LIG    1      -39.625  77.632  25.908  0.00  0.00    -0.308 N 
ATOM     11  C   LIG    1      -38.971  77.071  24.713  0.00  0.00    +0.108 C 
ATOM     12  C   LIG    1      -39.267  78.126  23.634  0.00  0.00    +0.029 C 
ATOM     13  C   LIG    1      -40.635  78.667  24.015  0.00  0.00    +0.021 C 
ATOM     14  C   LIG    1      -40.621  78.639  25.537  0.00  0.00    +0.107 C 
BRANCH  11  15
ATOM     15  C   LIG    1      -39.521  75.691  24.381  0.00  0.00    +0.011 A 
ATOM     16  C   LIG    1      -38.785  74.542  24.701  0.00  0.00    +0.129 A 
ATOM     17  F   LIG    1      -37.571  74.661  25.256  0.00  0.00    -0.205 F 
ATOM     18  C   LIG    1      -39.281  73.256  24.458  0.00  0.00    +0.041 A 
ATOM     19  C   LIG    1      -40.530  73.094  23.861  0.00  0.00    +0.041 A 
ATOM     20  C   LIG    1      -41.257  74.222  23.508  0.00  0.00    +0.124 A 
ATOM     21  F   LIG    1      -42.448  74.080  22.915  0.00  0.00    -0.205 F 
ATOM     22  C   LIG    1      -40.770  75.501  23.761  0.00  0.00    +0.046 A 
ENDBRANCH  11  15
ENDBRANCH   4  10
BRANCH   1  25
ATOM     23  N   LIG    1      -34.623  77.303  27.631  0.00  0.00    -0.309 N 
ATOM     24  H   LIG    1      -35.309  78.022  27.408  0.00  0.00    +0.149 HD
ATOM     25  C   LIG    1      -34.999  76.355  28.563  0.00  0.00    +0.249 C 
ATOM     26  O   LIG    1      -34.351  75.353  28.803  0.00  0.00    -0.270 OA
BRANCH  23  27
ATOM     27  C   LIG    1      -33.434  77.116  26.823  0.00  0.00    +0.138 C 
BRANCH  27  28
ATOM     28  C   LIG    1      -32.511  78.341  26.868  0.00  0.00    +0.157 C 
BRANCH  28  29
ATOM     29  O   LIG    1      -32.281  78.845  25.544  0.00  0.00    -0.388 OA
ATOM     30  H   LIG    1      -32.777  79.680  25.469  0.00  0.00    +0.210 HD
ENDBRANCH  28  29
BRANCH  28  31
ATOM     31  C   LIG    1      -33.119  79.458  27.720  0.00  0.00    +0.188 C 
BRANCH  31  32
ATOM     32  O   LIG    1      -33.929  80.323  26.934  0.00  0.00    -0.392 OA
ATOM     33  H   LIG    1      -34.851  80.029  27.050  0.00  0.00    +0.210 HD
ENDBRANCH  31  32
ENDBRANCH  28  31
ENDBRANCH  27  28
ENDBRANCH  23  27
ENDBRANCH   1  25
TORSDOF 8
ENDMDL
MODEL 4
REMARK VINA RESULT:      -5.4     17.430     19.845
REMARK  Name = pdb/CHEMBL3671154.pdb
REMARK                            x       y       z     vdW  Elec       q    Type
REMARK                         _______ _______ _______ _____ _____    ______ ____
ROOT
ATOM      1  C   LIG    1      -22.922  76.758  30.606  0.00  0.00    +0.100 A 
ATOM      2  C   LIG    1      -21.907  77.124  31.474  0.00  0.00    +0.170 A 
ATOM      3  N   LIG    1      -21.901  77.363  32.832  0.00  0.00    -0.212 NA
ATOM      4  C   LIG    1      -20.769  77.743  33.387  0.00  0.00    +0.126 A 
ATOM      5  C   LIG    1      -19.497  77.883  32.578  0.00  0.00    +0.063 A 
ATOM      6  C   LIG    1      -19.558  77.620  31.269  0.00  0.00    +0.118 A 
ATOM      7  N   LIG    1      -20.756  77.239  30.696  0.00  0.00    -0.221 N 
ATOM      8  N   LIG    1      -20.982  76.938  29.396  0.00  0.00    -0.173 NA
ATOM      9  C   LIG    1      -22.283  76.648  29.350  0.00  0.00    +0.150 A 
ENDROOT
BRANCH   4  10
ATOM     10  N   LIG    1      -20.720  78.020  34.745  0.00  0.00    -0.308 N 
ATOM     11  C   LIG    1      -20.429  79.350  35.310  0.00  0.00    +0.108 C 
ATOM     12  C   LIG    1      -19.661  79.013  36.598  0.00  0.00    +0.029 C 
ATOM     13  C   LIG    1      -20.280  77.706  37.064  0.00  0.00    +0.021 C 
ATOM     14  C   LIG    1      -20.602  76.979  35.766  0.00  0.00    +0.107 C 
BRANCH  11  15
ATOM     15  C   LIG    1      -21.711  80.135  35.554  0.00  0.00    +0.011 A 
ATOM     16  C   LIG    1      -21.651  81.491  35.903  0.00  0.00    +0.129 A 
ATOM     17  F   LIG    1      -20.461  82.084  36.071  0.00  0.00    -0.205 F 
ATOM     18  C   LIG    1      -22.807  82.258  36.086  0.00  0.00    +0.041 A 
ATOM     19  C   LIG    1      -24.062  81.668  35.942  0.00  0.00    +0.041 A 
ATOM     20  C   LIG    1      -24.138  80.319  35.628  0.00  0.00    +0.124 A 
ATOM     21  F   LIG    1      -25.337  79.736  35.509  0.00  0.00    -0.205 F 
ATOM     22  C   LIG    1      -22.988  79.558  35.434  0.00  0.00    +0.046 A 
ENDBRANCH  11  15
ENDBRANCH   4  10
BRANCH   1  25
ATOM     23  N   LIG    1      -24.569  75.826  32.035  0.00  0.00    -0.309 N 
ATOM     24  H   LIG    1      -23.763  75.391  32.481  0.00  0.00    +0.149 HD
ATOM     25  C   LIG    1      -24.325  76.548  30.883  0.00  0.00    +0.249 C 
ATOM     26  O   LIG    1      -25.204  76.981  30.161  0.00  0.00    -0.270 OA
BRANCH  23  27
ATOM     27  C   LIG    1      -25.923  75.484  32.422  0.00  0.00    +0.138 C 
BRANCH  27  28
ATOM     28  C   LIG    1      -26.590  76.605  33.230  0.00  0.00    +0.157 C 
BRANCH  28  29
ATOM     29  O   LIG    1      -25.799  77.801  33.177  0.00  0.00    -0.388 OA
ATOM     30  H   LIG    1      -24.880  77.542  33.370  0.00  0.00    +0.210 HD
ENDBRANCH  28  29
BRANCH  28  31
ATOM     31  C   LIG    1      -27.988  76.918  32.691  0.00  0.00    +0.188 C 
BRANCH  31  32
ATOM     32  O   LIG    1      -27.920  77.561  31.425  0.00  0.00    -0.392 OA
ATOM     33  H   LIG    1      -27.093  78.076  31.414  0.00  0.00    +0.210 HD
ENDBRANCH  31  32
ENDBRANCH  28  31
ENDBRANCH  27  28
ENDBRANCH  23  27
ENDBRANCH   1  25
TORSDOF 8
ENDMDL
MODEL 5
REMARK VINA RESULT:      -5.2     18.283     20.427
REMARK  Name = pdb/CHEMBL3671154.pdb
REMARK                            x       y       z     vdW  Elec       q    Type
REMARK                         _______ _______ _______ _____ _____    ______ ____
ROOT
ATOM      1  C   LIG    1      -23.374  79.873  15.262  0.00  0.00    +0.100 A 
ATOM      2  C   LIG    1      -22.169  79.205  15.410  0.00  0.00    +0.170 A 
ATOM      3  N   LIG    1      -21.757  77.952  15.010  0.00  0.00    -0.212 NA
ATOM      4  C   LIG    1      -20.541  77.568  15.336  0.00  0.00    +0.126 A 
ATOM      5  C   LIG    1      -19.599  78.478  16.096  0.00  0.00    +0.063 A 
ATOM      6  C   LIG    1      -20.046  79.689  16.441  0.00  0.00    +0.118 A 
ATOM      7  N   LIG    1      -21.331  80.074  16.108  0.00  0.00    -0.221 N 
ATOM      8  N   LIG    1      -21.928  81.257  16.381  0.00  0.00    -0.173 NA
ATOM      9  C   LIG    1      -23.153  81.129  15.868  0.00  0.00    +0.150 A 
ENDROOT
BRANCH   4  10
ATOM     10  N   LIG    1      -20.091  76.307  14.977  0.00  0.00    -0.308 N 
ATOM     11  C   LIG    1      -19.287  75.434  15.851  0.00  0.00    +0.108 C 
ATOM     12  C   LIG    1      -18.375  74.699  14.855  0.00  0.00    +0.029 C 
ATOM     13  C   LIG    1      -19.233  74.557  13.608  0.00  0.00    +0.021 C 
ATOM     14  C   LIG    1      -20.057  75.837  13.592  0.00  0.00    +0.107 C 
BRANCH  11  15
ATOM     15  C   LIG    1      -20.174  74.502  16.665  0.00  0.00    +0.011 A 
ATOM     16  C   LIG    1      -19.616  73.690  17.661  0.00  0.00    +0.129 A 
ATOM     17  F   LIG    1      -18.292  73.698  17.865  0.00  0.00    -0.205 F 
ATOM     18  C   LIG    1      -20.406  72.859  18.464  0.00  0.00    +0.041 A 
ATOM     19  C   LIG    1      -21.785  72.807  18.265  0.00  0.00    +0.041 A 
ATOM     20  C   LIG    1      -22.348  73.580  17.260  0.00  0.00    +0.124 A 
ATOM     21  F   LIG    1      -23.668  73.524  17.045  0.00  0.00    -0.205 F 
ATOM     22  C   LIG    1      -21.564  74.417  16.470  0.00  0.00    +0.046 A 
ENDBRANCH  11  15
ENDBRANCH   4  10
BRANCH   1  25
ATOM     23  N   LIG    1      -24.416  78.455  13.671  0.00  0.00    -0.309 N 
ATOM     24  H   LIG    1      -23.457  78.286  13.373  0.00  0.00    +0.149 HD
ATOM     25  C   LIG    1      -24.600  79.412  14.651  0.00  0.00    +0.249 C 
ATOM     26  O   LIG    1      -25.693  79.831  14.985  0.00  0.00    -0.270 OA
BRANCH  23  27
ATOM     27  C   LIG    1      -25.543  77.932  12.925  0.00  0.00    +0.138 C 
BRANCH  27  28
ATOM     28  C   LIG    1      -25.802  76.453  13.240  0.00  0.00    +0.157 C 
BRANCH  28  29
ATOM     29  O   LIG    1      -24.778  75.935  14.100  0.00  0.00    -0.388 OA
ATOM     30  H   LIG    1      -25.177  75.207  14.609  0.00  0.00    +0.210 HD
ENDBRANCH  28  29
BRANCH  28  31
ATOM     31  C   LIG    1      -27.159  76.263  13.923  0.00  0.00    +0.188 C 
BRANCH  31  32
ATOM     32  O   LIG    1      -27.386  77.268  14.903  0.00  0.00    -0.392 OA
ATOM     33  H   LIG    1      -26.694  77.943  14.782  0.00  0.00    +0.210 HD
ENDBRANCH  31  32
ENDBRANCH  28  31
ENDBRANCH  27  28
ENDBRANCH  23  27
ENDBRANCH   1  25
TORSDOF 8
ENDMDL
MODEL 6
REMARK VINA RESULT:      -5.1     21.331     23.079
REMARK  Name = pdb/CHEMBL3671154.pdb
REMARK                            x       y       z     vdW  Elec       q    Type
REMARK                         _______ _______ _______ _____ _____    ______ ____
ROOT
ATOM      1  C   LIG    1      -24.815  81.497  12.684  0.00  0.00    +0.100 A 
ATOM      2  C   LIG    1      -24.326  82.733  12.298  0.00  0.00    +0.170 A 
ATOM      3  N   LIG    1      -23.608  83.693  12.980  0.00  0.00    -0.212 NA
ATOM      4  C   LIG    1      -23.314  84.809  12.348  0.00  0.00    +0.126 A 
ATOM      5  C   LIG    1      -23.714  85.034  10.905  0.00  0.00    +0.063 A 
ATOM      6  C   LIG    1      -24.393  84.061  10.288  0.00  0.00    +0.118 A 
ATOM      7  N   LIG    1      -24.711  82.901  10.967  0.00  0.00    -0.221 N 
ATOM      8  N   LIG    1      -25.386  81.831  10.489  0.00  0.00    -0.173 NA
ATOM      9  C   LIG    1      -25.443  80.992  11.524  0.00  0.00    +0.150 A 
ENDROOT
BRANCH   4  10
ATOM     10  N   LIG    1      -22.615  85.813  13.001  0.00  0.00    -0.308 N 
ATOM     11  C   LIG    1      -21.739  85.592  14.165  0.00  0.00    +0.108 C 
ATOM     12  C   LIG    1      -21.929  86.879  14.985  0.00  0.00    +0.029 C 
ATOM     13  C   LIG    1      -22.151  87.955  13.935  0.00  0.00    +0.021 C 
ATOM     14  C   LIG    1      -22.928  87.234  12.842  0.00  0.00    +0.107 C 
BRANCH  11  15
ATOM     15  C   LIG    1      -20.299  85.355  13.732  0.00  0.00    +0.011 A 
ATOM     16  C   LIG    1      -19.797  84.050  13.637  0.00  0.00    +0.129 A 
ATOM     17  F   LIG    1      -20.573  83.011  13.977  0.00  0.00    -0.205 F 
ATOM     18  C   LIG    1      -18.495  83.790  13.194  0.00  0.00    +0.041 A 
ATOM     19  C   LIG    1      -17.653  84.847  12.854  0.00  0.00    +0.041 A 
ATOM     20  C   LIG    1      -18.124  86.147  12.973  0.00  0.00    +0.124 A 
ATOM     21  F   LIG    1      -17.318  87.172  12.671  0.00  0.00    -0.205 F 
ATOM     22  C   LIG    1      -19.423  86.405  13.403  0.00  0.00    +0.046 A 
ENDBRANCH  11  15
ENDBRANCH   4  10
BRANCH   1  25
ATOM     23  N   LIG    1      -23.544  81.063  14.639  0.00  0.00    -0.309 N 
ATOM     24  H   LIG    1      -22.798  81.509  14.107  0.00  0.00    +0.149 HD
ATOM     25  C   LIG    1      -24.736  80.850  13.975  0.00  0.00    +0.249 C 
ATOM     26  O   LIG    1      -25.651  80.187  14.429  0.00  0.00    -0.270 OA
BRANCH  23  27
ATOM     27  C   LIG    1      -23.288  80.437  15.922  0.00  0.00    +0.138 C 
BRANCH  27  28
ATOM     28  C   LIG    1      -22.261  81.222  16.748  0.00  0.00    +0.157 C 
BRANCH  28  29
ATOM     29  O   LIG    1      -20.927  80.890  16.338  0.00  0.00    -0.388 OA
ATOM     30  H   LIG    1      -20.402  80.772  17.150  0.00  0.00    +0.210 HD
ENDBRANCH  28  29
BRANCH  28  31
ATOM     31  C   LIG    1      -22.462  82.731  16.590  0.00  0.00    +0.188 C 
BRANCH  31  32
ATOM     32  O   LIG    1      -22.448  83.388  17.850  0.00  0.00    -0.392 OA
ATOM     33  H   LIG    1      -21.993  84.239  17.720  0.00  0.00    +0.210 HD
ENDBRANCH  31  32
ENDBRANCH  28  31
ENDBRANCH  27  28
ENDBRANCH  23  27
ENDBRANCH   1  25
TORSDOF 8
ENDMDL
MODEL 7
REMARK VINA RESULT:      -5.0     20.175     23.210
REMARK  Name = pdb/CHEMBL3671154.pdb
REMARK                            x       y       z     vdW  Elec       q    Type
REMARK                         _______ _______ _______ _____ _____    ______ ____
ROOT
ATOM      1  C   LIG    1      -28.809  87.667  34.371  0.00  0.00    +0.100 A 
ATOM      2  C   LIG    1      -28.149  88.818  34.767  0.00  0.00    +0.170 A 
ATOM      3  N   LIG    1      -28.486  90.152  34.665  0.00  0.00    -0.212 NA
ATOM      4  C   LIG    1      -27.621  91.042  35.103  0.00  0.00    +0.126 A 
ATOM      5  C   LIG    1      -26.308  90.629  35.735  0.00  0.00    +0.063 A 
ATOM      6  C   LIG    1      -26.043  89.322  35.824  0.00  0.00    +0.118 A 
ATOM      7  N   LIG    1      -26.952  88.398  35.344  0.00  0.00    -0.221 N 
ATOM      8  N   LIG    1      -26.835  87.050  35.361  0.00  0.00    -0.173 NA
ATOM      9  C   LIG    1      -27.953  86.618  34.778  0.00  0.00    +0.150 A 
ENDROOT
BRANCH   4  10
ATOM     10  N   LIG    1      -27.904  92.395  34.999  0.00  0.00    -0.308 N 
ATOM     11  C   LIG    1      -27.584  93.221  33.822  0.00  0.00    +0.108 C 
ATOM     12  C   LIG    1      -27.256  94.589  34.443  0.00  0.00    +0.029 C 
ATOM     13  C   LIG    1      -28.167  94.669  35.656  0.00  0.00    +0.021 C 
ATOM     14  C   LIG    1      -28.227  93.232  36.156  0.00  0.00    +0.107 C 
BRANCH  11  15
ATOM     15  C   LIG    1      -28.751  93.261  32.844  0.00  0.00    +0.011 A 
ATOM     16  C   LIG    1      -28.615  93.913  31.611  0.00  0.00    +0.129 A 
ATOM     17  F   LIG    1      -27.472  94.545  31.313  0.00  0.00    -0.205 F 
ATOM     18  C   LIG    1      -29.648  93.926  30.666  0.00  0.00    +0.041 A 
ATOM     19  C   LIG    1      -30.859  93.299  30.952  0.00  0.00    +0.041 A 
ATOM     20  C   LIG    1      -31.020  92.677  32.182  0.00  0.00    +0.124 A 
ATOM     21  F   LIG    1      -32.186  92.090  32.477  0.00  0.00    -0.205 F 
ATOM     22  C   LIG    1      -29.989  92.652  33.117  0.00  0.00    +0.046 A 
ENDBRANCH  11  15
ENDBRANCH   4  10
BRANCH   1  25
ATOM     23  N   LIG    1      -30.290  88.494  32.714  0.00  0.00    -0.309 N 
ATOM     24  H   LIG    1      -29.633  89.272  32.687  0.00  0.00    +0.149 HD
ATOM     25  C   LIG    1      -30.073  87.533  33.682  0.00  0.00    +0.249 C 
ATOM     26  O   LIG    1      -30.863  86.642  33.935  0.00  0.00    -0.270 OA
BRANCH  23  27
ATOM     27  C   LIG    1      -31.535  88.529  31.972  0.00  0.00    +0.138 C 
BRANCH  27  28
ATOM     28  C   LIG    1      -31.306  88.394  30.461  0.00  0.00    +0.157 C 
BRANCH  28  29
ATOM     29  O   LIG    1      -31.196  89.688  29.851  0.00  0.00    -0.388 OA
ATOM     30  H   LIG    1      -32.069  90.111  29.926  0.00  0.00    +0.210 HD
ENDBRANCH  28  29
BRANCH  28  31
ATOM     31  C   LIG    1      -30.030  87.602  30.165  0.00  0.00    +0.188 C 
BRANCH  31  32
ATOM     32  O   LIG    1      -30.200  86.222  30.462  0.00  0.00    -0.392 OA
ATOM     33  H   LIG    1      -29.918  85.726  29.672  0.00  0.00    +0.210 HD
ENDBRANCH  31  32
ENDBRANCH  28  31
ENDBRANCH  27  28
ENDBRANCH  23  27
ENDBRANCH   1  25
TORSDOF 8
ENDMDL
MODEL 8
REMARK VINA RESULT:      -4.9     11.332     14.486
REMARK  Name = pdb/CHEMBL3671154.pdb
REMARK                            x       y       z     vdW  Elec       q    Type
REMARK                         _______ _______ _______ _____ _____    ______ ____
ROOT
ATOM      1  C   LIG    1      -33.217  85.156  30.051  0.00  0.00    +0.100 A 
ATOM      2  C   LIG    1      -34.092  84.111  29.809  0.00  0.00    +0.170 A 
ATOM      3  N   LIG    1      -34.106  82.803  30.244  0.00  0.00    -0.212 NA
ATOM      4  C   LIG    1      -35.064  82.015  29.805  0.00  0.00    +0.126 A 
ATOM      5  C   LIG    1      -36.147  82.525  28.877  0.00  0.00    +0.063 A 
ATOM      6  C   LIG    1      -36.094  83.808  28.504  0.00  0.00    +0.118 A 
ATOM      7  N   LIG    1      -35.073  84.619  28.958  0.00  0.00    -0.221 N 
ATOM      8  N   LIG    1      -34.880  85.929  28.676  0.00  0.00    -0.173 NA
ATOM      9  C   LIG    1      -33.766  86.244  29.337  0.00  0.00    +0.150 A 
ENDROOT
BRANCH   4  10
ATOM     10  N   LIG    1      -35.104  80.685  30.194  0.00  0.00    -0.308 N 
ATOM     11  C   LIG    1      -35.501  79.574  29.311  0.00  0.00    +0.108 C 
ATOM     12  C   LIG    1      -36.202  78.604  30.276  0.00  0.00    +0.029 C 
ATOM     13  C   LIG    1      -35.453  78.785  31.586  0.00  0.00    +0.021 C 
ATOM     14  C   LIG    1      -35.099  80.265  31.596  0.00  0.00    +0.107 C 
BRANCH  11  15
ATOM     15  C   LIG    1      -34.292  78.968  28.612  0.00  0.00    +0.011 A 
ATOM     16  C   LIG    1      -33.725  79.610  27.502  0.00  0.00    +0.129 A 
ATOM     17  F   LIG    1      -34.278  80.733  27.026  0.00  0.00    -0.205 F 
ATOM     18  C   LIG    1      -32.582  79.111  26.865  0.00  0.00    +0.041 A 
ATOM     19  C   LIG    1      -31.994  77.932  27.320  0.00  0.00    +0.041 A 
ATOM     20  C   LIG    1      -32.563  77.267  28.396  0.00  0.00    +0.124 A 
ATOM     21  F   LIG    1      -32.019  76.123  28.828  0.00  0.00    -0.205 F 
ATOM     22  C   LIG    1      -33.692  77.770  29.038  0.00  0.00    +0.046 A 
ENDBRANCH  11  15
ENDBRANCH   4  10
BRANCH   1  25
ATOM     23  N   LIG    1      -32.184  84.828  32.162  0.00  0.00    -0.309 N 
ATOM     24  H   LIG    1      -33.147  84.766  32.488  0.00  0.00    +0.149 HD
ATOM     25  C   LIG    1      -32.001  85.162  30.834  0.00  0.00    +0.249 C 
ATOM     26  O   LIG    1      -30.916  85.430  30.351  0.00  0.00    -0.270 OA
BRANCH  23  27
ATOM     27  C   LIG    1      -31.071  84.841  33.090  0.00  0.00    +0.138 C 
BRANCH  27  28
ATOM     28  C   LIG    1      -31.156  86.017  34.071  0.00  0.00    +0.157 C 
BRANCH  28  29
ATOM     29  O   LIG    1      -30.348  85.764  35.230  0.00  0.00    -0.388 OA
ATOM     30  H   LIG    1      -30.741  86.268  35.965  0.00  0.00    +0.210 HD
ENDBRANCH  28  29
BRANCH  28  31
ATOM     31  C   LIG    1      -30.682  87.317  33.417  0.00  0.00    +0.188 C 
BRANCH  31  32
ATOM     32  O   LIG    1      -29.673  87.067  32.447  0.00  0.00    -0.392 OA
ATOM     33  H   LIG    1      -29.371  86.151  32.583  0.00  0.00    +0.210 HD
ENDBRANCH  31  32
ENDBRANCH  28  31
ENDBRANCH  27  28
ENDBRANCH  23  27
ENDBRANCH   1  25
TORSDOF 8
ENDMDL
MODEL 9
REMARK VINA RESULT:      -4.9     22.013     23.920
REMARK  Name = pdb/CHEMBL3671154.pdb
REMARK                            x       y       z     vdW  Elec       q    Type
REMARK                         _______ _______ _______ _____ _____    ______ ____
ROOT
ATOM      1  C   LIG    1      -23.989  85.697  11.160  0.00  0.00    +0.100 A 
ATOM      2  C   LIG    1      -23.875  84.481  11.812  0.00  0.00    +0.170 A 
ATOM      3  N   LIG    1      -23.176  84.103  12.939  0.00  0.00    -0.212 NA
ATOM      4  C   LIG    1      -23.228  82.840  13.304  0.00  0.00    +0.126 A 
ATOM      5  C   LIG    1      -24.055  81.827  12.540  0.00  0.00    +0.063 A 
ATOM      6  C   LIG    1      -24.727  82.253  11.466  0.00  0.00    +0.118 A 
ATOM      7  N   LIG    1      -24.650  83.579  11.084  0.00  0.00    -0.221 N 
ATOM      8  N   LIG    1      -25.266  84.164  10.031  0.00  0.00    -0.173 NA
ATOM      9  C   LIG    1      -24.867  85.435  10.084  0.00  0.00    +0.150 A 
ENDROOT
BRANCH   4  10
ATOM     10  N   LIG    1      -22.521  82.408  14.416  0.00  0.00    -0.308 N 
ATOM     11  C   LIG    1      -21.523  81.324  14.394  0.00  0.00    +0.108 C 
ATOM     12  C   LIG    1      -21.697  80.671  15.775  0.00  0.00    +0.029 C 
ATOM     13  C   LIG    1      -22.078  81.829  16.683  0.00  0.00    +0.021 C 
ATOM     14  C   LIG    1      -22.922  82.725  15.787  0.00  0.00    +0.107 C 
BRANCH  11  15
ATOM     15  C   LIG    1      -20.123  81.871  14.153  0.00  0.00    +0.011 A 
ATOM     16  C   LIG    1      -19.028  80.998  14.082  0.00  0.00    +0.129 A 
ATOM     17  F   LIG    1      -19.208  79.685  14.277  0.00  0.00    -0.205 F 
ATOM     18  C   LIG    1      -17.734  81.458  13.811  0.00  0.00    +0.041 A 
ATOM     19  C   LIG    1      -17.506  82.820  13.625  0.00  0.00    +0.041 A 
ATOM     20  C   LIG    1      -18.574  83.701  13.724  0.00  0.00    +0.124 A 
ATOM     21  F   LIG    1      -18.364  85.014  13.569  0.00  0.00    -0.205 F 
ATOM     22  C   LIG    1      -19.863  83.242  13.981  0.00  0.00    +0.046 A 
ENDBRANCH  11  15
ENDBRANCH   4  10
BRANCH   1  25
ATOM     23  N   LIG    1      -23.226  87.206  12.823  0.00  0.00    -0.309 N 
ATOM     24  H   LIG    1      -23.714  86.571  13.452  0.00  0.00    +0.149 HD
ATOM     25  C   LIG    1      -23.355  86.958  11.470  0.00  0.00    +0.249 C 
ATOM     26  O   LIG    1      -22.965  87.722  10.606  0.00  0.00    -0.270 OA
BRANCH  23  27
ATOM     27  C   LIG    1      -22.659  88.453  13.297  0.00  0.00    +0.138 C 
BRANCH  27  28
ATOM     28  C   LIG    1      -21.649  88.231  14.430  0.00  0.00    +0.157 C 
BRANCH  28  29
ATOM     29  O   LIG    1      -22.270  88.446  15.706  0.00  0.00    -0.388 OA
ATOM     30  H   LIG    1      -21.554  88.503  16.363  0.00  0.00    +0.210 HD
ENDBRANCH  28  29
BRANCH  28  31
ATOM     31  C   LIG    1      -21.083  86.809  14.393  0.00  0.00    +0.188 C 
BRANCH  31  32
ATOM     32  O   LIG    1      -21.888  85.914  15.149  0.00  0.00    -0.392 OA
ATOM     33  H   LIG    1      -21.631  86.022  16.083  0.00  0.00    +0.210 HD
ENDBRANCH  31  32
ENDBRANCH  28  31
ENDBRANCH  27  28
ENDBRANCH  23  27
ENDBRANCH   1  25
TORSDOF 8
ENDMDL
