MODEL 1
REMARK VINA RESULT:      -6.2      0.000      0.000
REMARK  Name = pdb/CHEMBL3913529.pdb
REMARK                            x       y       z     vdW  Elec       q    Type
REMARK                         _______ _______ _______ _____ _____    ______ ____
ROOT
ATOM      1  C   LIG    1      -32.020  93.970  23.115  0.00  0.00    +0.179 A 
ATOM      2  N   LIG    1      -32.095  93.553  21.803  0.00  0.00    -0.193 N 
ATOM      3  N   LIG    1      -33.143  92.879  21.273  0.00  0.00    -0.148 NA
ATOM      4  C   LIG    1      -33.093  92.624  19.996  0.00  0.00    +0.143 A 
ATOM      5  C   LIG    1      -31.909  93.058  19.173  0.00  0.00    +0.049 A 
ATOM      6  C   LIG    1      -30.912  93.736  19.760  0.00  0.00    +0.051 A 
ATOM      7  C   LIG    1      -30.981  94.020  21.141  0.00  0.00    +0.157 A 
ATOM      8  N   LIG    1      -30.166  94.654  21.951  0.00  0.00    -0.232 NA
ATOM      9  C   LIG    1      -30.787  94.604  23.178  0.00  0.00    +0.161 A 
ENDROOT
BRANCH   4  10
ATOM     10  N   LIG    1      -34.172  91.936  19.451  0.00  0.00    -0.307 N 
ATOM     11  C   LIG    1      -34.027  90.524  18.994  0.00  0.00    +0.108 C 
ATOM     12  C   LIG    1      -35.273  89.808  19.566  0.00  0.00    +0.029 C 
ATOM     13  C   LIG    1      -35.975  90.842  20.431  0.00  0.00    +0.021 C 
ATOM     14  C   LIG    1      -35.562  92.164  19.813  0.00  0.00    +0.107 C 
BRANCH  11  15
ATOM     15  C   LIG    1      -33.946  90.395  17.483  0.00  0.00    +0.011 A 
ATOM     16  C   LIG    1      -33.472  89.196  16.924  0.00  0.00    +0.129 A 
ATOM     17  F   LIG    1      -33.092  88.191  17.728  0.00  0.00    -0.205 F 
ATOM     18  C   LIG    1      -33.406  88.998  15.546  0.00  0.00    +0.041 A 
ATOM     19  C   LIG    1      -33.807  90.017  14.686  0.00  0.00    +0.041 A 
ATOM     20  C   LIG    1      -34.252  91.221  15.222  0.00  0.00    +0.124 A 
ATOM     21  F   LIG    1      -34.637  92.203  14.396  0.00  0.00    -0.205 F 
ATOM     22  C   LIG    1      -34.317  91.420  16.600  0.00  0.00    +0.046 A 
ENDBRANCH  11  15
ENDBRANCH   4  10
BRANCH   1  24
ATOM     23  C   LIG    1      -32.758  92.719  24.951  0.00  0.00    +0.285 C 
ATOM     24  N   LIG    1      -32.937  93.647  24.083  0.00  0.00    -0.178 NA
BRANCH  23  25
ATOM     25  N   LIG    1      -33.641  92.415  25.965  0.00  0.00    -0.285 N 
ATOM     26  C   LIG    1      -35.037  92.819  25.790  0.00  0.00    +0.109 C 
ATOM     27  C   LIG    1      -35.770  92.789  27.130  0.00  0.00    +0.019 C 
ATOM     28  C   LIG    1      -35.611  91.438  27.822  0.00  0.00    +0.003 C 
ATOM     29  C   LIG    1      -34.137  91.083  27.964  0.00  0.00    +0.019 C 
ATOM     30  C   LIG    1      -33.445  91.121  26.614  0.00  0.00    +0.109 C 
ENDBRANCH  23  25
BRANCH  23  31
ATOM     31  O   LIG    1      -31.699  91.879  25.008  0.00  0.00    -0.481 OA
ATOM     32  H   LIG    1      -31.695  91.289  24.242  0.00  0.00    +0.295 HD
ENDBRANCH  23  31
ENDBRANCH   1  24
TORSDOF 5
ENDMDL
MODEL 2
REMARK VINA RESULT:      -6.2     21.028     23.281
REMARK  Name = pdb/CHEMBL3913529.pdb
REMARK                            x       y       z     vdW  Elec       q    Type
REMARK                         _______ _______ _______ _____ _____    ______ ____
ROOT
ATOM      1  C   LIG    1      -24.532  77.832  33.109  0.00  0.00    +0.179 A 
ATOM      2  N   LIG    1      -24.558  78.455  34.338  0.00  0.00    -0.193 N 
ATOM      3  N   LIG    1      -23.515  79.133  34.875  0.00  0.00    -0.148 NA
ATOM      4  C   LIG    1      -23.727  79.731  36.013  0.00  0.00    +0.143 A 
ATOM      5  C   LIG    1      -25.071  79.647  36.686  0.00  0.00    +0.049 A 
ATOM      6  C   LIG    1      -26.064  78.970  36.091  0.00  0.00    +0.051 A 
ATOM      7  C   LIG    1      -25.830  78.338  34.851  0.00  0.00    +0.157 A 
ATOM      8  N   LIG    1      -26.606  77.628  34.064  0.00  0.00    -0.232 NA
ATOM      9  C   LIG    1      -25.804  77.289  32.999  0.00  0.00    +0.161 A 
ENDROOT
BRANCH   4  10
ATOM     10  N   LIG    1      -22.657  80.431  36.561  0.00  0.00    -0.307 N 
ATOM     11  C   LIG    1      -21.585  80.994  35.689  0.00  0.00    +0.108 C 
ATOM     12  C   LIG    1      -21.373  82.430  36.225  0.00  0.00    +0.029 C 
ATOM     13  C   LIG    1      -22.444  82.631  37.285  0.00  0.00    +0.021 C 
ATOM     14  C   LIG    1      -22.727  81.225  37.778  0.00  0.00    +0.107 C 
BRANCH  11  15
ATOM     15  C   LIG    1      -20.302  80.182  35.727  0.00  0.00    +0.011 A 
ATOM     16  C   LIG    1      -19.964  79.388  34.619  0.00  0.00    +0.129 A 
ATOM     17  F   LIG    1      -20.778  79.349  33.554  0.00  0.00    -0.205 F 
ATOM     18  C   LIG    1      -18.784  78.647  34.574  0.00  0.00    +0.041 A 
ATOM     19  C   LIG    1      -17.912  78.676  35.659  0.00  0.00    +0.041 A 
ATOM     20  C   LIG    1      -18.245  79.436  36.776  0.00  0.00    +0.124 A 
ATOM     21  F   LIG    1      -17.408  79.465  37.821  0.00  0.00    -0.205 F 
ATOM     22  C   LIG    1      -19.425  80.176  36.823  0.00  0.00    +0.046 A 
ENDBRANCH  11  15
ENDBRANCH   4  10
BRANCH   1  24
ATOM     23  C   LIG    1      -22.579  76.736  32.425  0.00  0.00    +0.285 C 
ATOM     24  N   LIG    1      -23.410  77.709  32.328  0.00  0.00    -0.178 NA
BRANCH  23  25
ATOM     25  N   LIG    1      -21.478  76.564  31.614  0.00  0.00    -0.285 N 
ATOM     26  C   LIG    1      -21.277  77.528  30.532  0.00  0.00    +0.109 C 
ATOM     27  C   LIG    1      -20.289  76.976  29.506  0.00  0.00    +0.019 C 
ATOM     28  C   LIG    1      -18.989  76.528  30.168  0.00  0.00    +0.003 C 
ATOM     29  C   LIG    1      -19.276  75.532  31.283  0.00  0.00    +0.019 C 
ATOM     30  C   LIG    1      -20.258  76.116  32.283  0.00  0.00    +0.109 C 
ENDBRANCH  23  25
BRANCH  23  31
ATOM     31  O   LIG    1      -22.628  75.738  33.337  0.00  0.00    -0.481 OA
ATOM     32  H   LIG    1      -22.175  76.001  34.150  0.00  0.00    +0.295 HD
ENDBRANCH  23  31
ENDBRANCH   1  24
TORSDOF 5
ENDMDL
MODEL 3
REMARK VINA RESULT:      -6.1     17.934     19.945
REMARK  Name = pdb/CHEMBL3913529.pdb
REMARK                            x       y       z     vdW  Elec       q    Type
REMARK                         _______ _______ _______ _____ _____    ______ ____
ROOT
ATOM      1  C   LIG    1      -37.887  76.457  25.198  0.00  0.00    +0.179 A 
ATOM      2  N   LIG    1      -38.636  75.383  24.768  0.00  0.00    -0.193 N 
ATOM      3  N   LIG    1      -38.250  74.089  24.873  0.00  0.00    -0.148 NA
ATOM      4  C   LIG    1      -39.107  73.186  24.487  0.00  0.00    +0.143 A 
ATOM      5  C   LIG    1      -40.451  73.588  23.942  0.00  0.00    +0.049 A 
ATOM      6  C   LIG    1      -40.774  74.889  23.879  0.00  0.00    +0.051 A 
ATOM      7  C   LIG    1      -39.845  75.859  24.313  0.00  0.00    +0.157 A 
ATOM      8  N   LIG    1      -39.900  77.170  24.363  0.00  0.00    -0.232 NA
ATOM      9  C   LIG    1      -38.684  77.548  24.885  0.00  0.00    +0.161 A 
ENDROOT
BRANCH   4  10
ATOM     10  N   LIG    1      -38.711  71.858  24.601  0.00  0.00    -0.307 N 
ATOM     11  C   LIG    1      -38.487  71.239  25.940  0.00  0.00    +0.108 C 
ATOM     12  C   LIG    1      -39.203  69.870  25.852  0.00  0.00    +0.029 C 
ATOM     13  C   LIG    1      -39.906  69.865  24.505  0.00  0.00    +0.021 C 
ATOM     14  C   LIG    1      -39.069  70.807  23.662  0.00  0.00    +0.107 C 
BRANCH  11  15
ATOM     15  C   LIG    1      -37.016  71.086  26.284  0.00  0.00    +0.011 A 
ATOM     16  C   LIG    1      -36.466  71.881  27.304  0.00  0.00    +0.129 A 
ATOM     17  F   LIG    1      -37.241  72.766  27.949  0.00  0.00    -0.205 F 
ATOM     18  C   LIG    1      -35.133  71.766  27.694  0.00  0.00    +0.041 A 
ATOM     19  C   LIG    1      -34.307  70.847  27.052  0.00  0.00    +0.041 A 
ATOM     20  C   LIG    1      -34.827  70.071  26.022  0.00  0.00    +0.124 A 
ATOM     21  F   LIG    1      -34.034  69.187  25.402  0.00  0.00    -0.205 F 
ATOM     22  C   LIG    1      -36.160  70.187  25.630  0.00  0.00    +0.046 A 
ENDBRANCH  11  15
ENDBRANCH   4  10
BRANCH   1  24
ATOM     23  C   LIG    1      -36.302  76.388  26.920  0.00  0.00    +0.285 C 
ATOM     24  N   LIG    1      -36.603  76.364  25.673  0.00  0.00    -0.178 NA
BRANCH  23  25
ATOM     25  N   LIG    1      -35.026  76.240  27.420  0.00  0.00    -0.285 N 
ATOM     26  C   LIG    1      -34.197  77.442  27.525  0.00  0.00    +0.109 C 
ATOM     27  C   LIG    1      -32.727  77.060  27.691  0.00  0.00    +0.019 C 
ATOM     28  C   LIG    1      -32.532  76.085  28.848  0.00  0.00    +0.003 C 
ATOM     29  C   LIG    1      -33.427  74.865  28.674  0.00  0.00    +0.019 C 
ATOM     30  C   LIG    1      -34.877  75.284  28.514  0.00  0.00    +0.109 C 
ENDBRANCH  23  25
BRANCH  23  31
ATOM     31  O   LIG    1      -37.168  76.579  27.942  0.00  0.00    -0.481 OA
ATOM     32  H   LIG    1      -37.574  77.454  27.880  0.00  0.00    +0.295 HD
ENDBRANCH  23  31
ENDBRANCH   1  24
TORSDOF 5
ENDMDL
MODEL 4
REMARK VINA RESULT:      -6.1     20.134     22.285
REMARK  Name = pdb/CHEMBL3913529.pdb
REMARK                            x       y       z     vdW  Elec       q    Type
REMARK                         _______ _______ _______ _____ _____    ______ ____
ROOT
ATOM      1  C   LIG    1      -23.059  76.686  30.975  0.00  0.00    +0.179 A 
ATOM      2  N   LIG    1      -21.798  77.186  31.216  0.00  0.00    -0.193 N 
ATOM      3  N   LIG    1      -21.391  77.700  32.402  0.00  0.00    -0.148 NA
ATOM      4  C   LIG    1      -20.143  78.061  32.489  0.00  0.00    +0.143 A 
ATOM      5  C   LIG    1      -19.217  77.917  31.311  0.00  0.00    +0.049 A 
ATOM      6  C   LIG    1      -19.683  77.386  30.170  0.00  0.00    +0.051 A 
ATOM      7  C   LIG    1      -21.033  76.984  30.089  0.00  0.00    +0.157 A 
ATOM      8  N   LIG    1      -21.735  76.445  29.118  0.00  0.00    -0.232 NA
ATOM      9  C   LIG    1      -22.994  76.282  29.649  0.00  0.00    +0.161 A 
ENDROOT
BRANCH   4  10
ATOM     10  N   LIG    1      -19.725  78.584  33.709  0.00  0.00    -0.307 N 
ATOM     11  C   LIG    1      -20.578  78.456  34.927  0.00  0.00    +0.108 C 
ATOM     12  C   LIG    1      -19.596  78.007  36.034  0.00  0.00    +0.029 C 
ATOM     13  C   LIG    1      -18.269  77.776  35.332  0.00  0.00    +0.021 C 
ATOM     14  C   LIG    1      -18.337  78.695  34.127  0.00  0.00    +0.107 C 
BRANCH  11  15
ATOM     15  C   LIG    1      -21.288  79.748  35.292  0.00  0.00    +0.011 A 
ATOM     16  C   LIG    1      -22.678  79.840  35.110  0.00  0.00    +0.129 A 
ATOM     17  F   LIG    1      -23.354  78.794  34.611  0.00  0.00    -0.205 F 
ATOM     18  C   LIG    1      -23.395  80.983  35.459  0.00  0.00    +0.041 A 
ATOM     19  C   LIG    1      -22.724  82.080  35.992  0.00  0.00    +0.041 A 
ATOM     20  C   LIG    1      -21.344  82.017  36.153  0.00  0.00    +0.124 A 
ATOM     21  F   LIG    1      -20.695  83.071  36.664  0.00  0.00    -0.205 F 
ATOM     22  C   LIG    1      -20.625  80.875  35.803  0.00  0.00    +0.046 A 
ENDBRANCH  11  15
ENDBRANCH   4  10
BRANCH   1  24
ATOM     23  C   LIG    1      -25.261  77.222  31.562  0.00  0.00    +0.285 C 
ATOM     24  N   LIG    1      -24.103  76.759  31.863  0.00  0.00    -0.178 NA
BRANCH  23  25
ATOM     25  N   LIG    1      -26.338  77.253  32.422  0.00  0.00    -0.285 N 
ATOM     26  C   LIG    1      -27.609  76.718  31.933  0.00  0.00    +0.109 C 
ATOM     27  C   LIG    1      -28.760  77.193  32.818  0.00  0.00    +0.019 C 
ATOM     28  C   LIG    1      -28.497  76.885  34.289  0.00  0.00    +0.003 C 
ATOM     29  C   LIG    1      -27.159  77.467  34.724  0.00  0.00    +0.019 C 
ATOM     30  C   LIG    1      -26.042  76.971  33.824  0.00  0.00    +0.109 C 
ENDBRANCH  23  25
BRANCH  23  31
ATOM     31  O   LIG    1      -25.613  77.770  30.376  0.00  0.00    -0.481 OA
ATOM     32  H   LIG    1      -25.333  77.201  29.646  0.00  0.00    +0.295 HD
ENDBRANCH  23  31
ENDBRANCH   1  24
TORSDOF 5
ENDMDL
MODEL 5
REMARK VINA RESULT:      -6.1     21.584     23.905
REMARK  Name = pdb/CHEMBL3913529.pdb
REMARK                            x       y       z     vdW  Elec       q    Type
REMARK                         _______ _______ _______ _____ _____    ______ ____
ROOT
ATOM      1  C   LIG    1      -35.023  68.336  24.829  0.00  0.00    +0.179 A 
ATOM      2  N   LIG    1      -36.129  68.872  25.451  0.00  0.00    -0.193 N 
ATOM      3  N   LIG    1      -37.277  69.212  24.816  0.00  0.00    -0.148 NA
ATOM      4  C   LIG    1      -38.258  69.635  25.561  0.00  0.00    +0.143 A 
ATOM      5  C   LIG    1      -38.097  69.745  27.054  0.00  0.00    +0.049 A 
ATOM      6  C   LIG    1      -36.937  69.377  27.620  0.00  0.00    +0.051 A 
ATOM      7  C   LIG    1      -35.884  68.906  26.806  0.00  0.00    +0.157 A 
ATOM      8  N   LIG    1      -34.673  68.487  27.090  0.00  0.00    -0.232 NA
ATOM      9  C   LIG    1      -34.125  68.158  25.871  0.00  0.00    +0.161 A 
ENDROOT
BRANCH   4  10
ATOM     10  N   LIG    1      -39.437  69.979  24.908  0.00  0.00    -0.307 N 
ATOM     11  C   LIG    1      -39.408  70.771  23.645  0.00  0.00    +0.108 C 
ATOM     12  C   LIG    1      -40.399  70.037  22.711  0.00  0.00    +0.029 C 
ATOM     13  C   LIG    1      -40.822  68.789  23.468  0.00  0.00    +0.021 C 
ATOM     14  C   LIG    1      -40.652  69.179  24.924  0.00  0.00    +0.107 C 
BRANCH  11  15
ATOM     15  C   LIG    1      -39.797  72.225  23.847  0.00  0.00    +0.011 A 
ATOM     16  C   LIG    1      -38.869  73.106  24.429  0.00  0.00    +0.129 A 
ATOM     17  F   LIG    1      -37.664  72.650  24.805  0.00  0.00    -0.205 F 
ATOM     18  C   LIG    1      -39.148  74.460  24.611  0.00  0.00    +0.041 A 
ATOM     19  C   LIG    1      -40.384  74.965  24.220  0.00  0.00    +0.041 A 
ATOM     20  C   LIG    1      -41.325  74.102  23.667  0.00  0.00    +0.124 A 
ATOM     21  F   LIG    1      -42.516  74.585  23.291  0.00  0.00    -0.205 F 
ATOM     22  C   LIG    1      -41.048  72.747  23.487  0.00  0.00    +0.046 A 
ENDBRANCH  11  15
ENDBRANCH   4  10
BRANCH   1  24
ATOM     23  C   LIG    1      -34.874  67.060  22.871  0.00  0.00    +0.285 C 
ATOM     24  N   LIG    1      -34.893  68.195  23.470  0.00  0.00    -0.178 NA
BRANCH  23  25
ATOM     25  N   LIG    1      -34.800  66.898  21.504  0.00  0.00    -0.285 N 
ATOM     26  C   LIG    1      -33.729  66.050  20.980  0.00  0.00    +0.109 C 
ATOM     27  C   LIG    1      -33.534  66.304  19.486  0.00  0.00    +0.019 C 
ATOM     28  C   LIG    1      -34.847  66.165  18.721  0.00  0.00    +0.003 C 
ATOM     29  C   LIG    1      -35.913  67.070  19.324  0.00  0.00    +0.019 C 
ATOM     30  C   LIG    1      -36.079  66.788  20.806  0.00  0.00    +0.109 C 
ENDBRANCH  23  25
BRANCH  23  31
ATOM     31  O   LIG    1      -34.903  65.847  23.469  0.00  0.00    -0.481 OA
ATOM     32  H   LIG    1      -35.816  65.571  23.629  0.00  0.00    +0.295 HD
ENDBRANCH  23  31
ENDBRANCH   1  24
TORSDOF 5
ENDMDL
MODEL 6
REMARK VINA RESULT:      -6.0     17.531     20.007
REMARK  Name = pdb/CHEMBL3913529.pdb
REMARK                            x       y       z     vdW  Elec       q    Type
REMARK                         _______ _______ _______ _____ _____    ______ ____
ROOT
ATOM      1  C   LIG    1      -34.634  71.652  28.199  0.00  0.00    +0.179 A 
ATOM      2  N   LIG    1      -33.870  72.782  28.394  0.00  0.00    -0.193 N 
ATOM      3  N   LIG    1      -34.173  74.006  27.900  0.00  0.00    -0.148 NA
ATOM      4  C   LIG    1      -33.387  74.988  28.240  0.00  0.00    +0.143 A 
ATOM      5  C   LIG    1      -32.197  74.746  29.130  0.00  0.00    +0.049 A 
ATOM      6  C   LIG    1      -31.964  73.509  29.596  0.00  0.00    +0.051 A 
ATOM      7  C   LIG    1      -32.829  72.455  29.234  0.00  0.00    +0.157 A 
ATOM      8  N   LIG    1      -32.837  71.178  29.541  0.00  0.00    -0.232 NA
ATOM      9  C   LIG    1      -33.934  70.670  28.884  0.00  0.00    +0.161 A 
ENDROOT
BRANCH   4  10
ATOM     10  N   LIG    1      -33.702  76.246  27.737  0.00  0.00    -0.307 N 
ATOM     11  C   LIG    1      -34.750  77.087  28.385  0.00  0.00    +0.108 C 
ATOM     12  C   LIG    1      -34.111  78.494  28.468  0.00  0.00    +0.029 C 
ATOM     13  C   LIG    1      -32.682  78.321  27.982  0.00  0.00    +0.021 C 
ATOM     14  C   LIG    1      -32.762  77.122  27.057  0.00  0.00    +0.107 C 
BRANCH  11  15
ATOM     15  C   LIG    1      -36.057  77.106  27.613  0.00  0.00    +0.011 A 
ATOM     16  C   LIG    1      -37.130  77.868  28.104  0.00  0.00    +0.129 A 
ATOM     17  F   LIG    1      -36.990  78.557  29.246  0.00  0.00    -0.205 F 
ATOM     18  C   LIG    1      -38.345  77.958  27.426  0.00  0.00    +0.041 A 
ATOM     19  C   LIG    1      -38.518  77.265  26.231  0.00  0.00    +0.041 A 
ATOM     20  C   LIG    1      -37.475  76.483  25.744  0.00  0.00    +0.124 A 
ATOM     21  F   LIG    1      -37.639  75.815  24.595  0.00  0.00    -0.205 F 
ATOM     22  C   LIG    1      -36.261  76.392  26.422  0.00  0.00    +0.046 A 
ENDBRANCH  11  15
ENDBRANCH   4  10
BRANCH   1  24
ATOM     23  C   LIG    1      -35.664  71.345  26.118  0.00  0.00    +0.285 C 
ATOM     24  N   LIG    1      -35.731  71.593  27.376  0.00  0.00    -0.178 NA
BRANCH  23  25
ATOM     25  N   LIG    1      -36.756  71.227  25.285  0.00  0.00    -0.285 N 
ATOM     26  C   LIG    1      -37.041  69.904  24.727  0.00  0.00    +0.109 C 
ATOM     27  C   LIG    1      -37.992  70.024  23.538  0.00  0.00    +0.019 C 
ATOM     28  C   LIG    1      -39.247  70.811  23.904  0.00  0.00    +0.003 C 
ATOM     29  C   LIG    1      -38.873  72.170  24.481  0.00  0.00    +0.019 C 
ATOM     30  C   LIG    1      -37.931  72.010  25.660  0.00  0.00    +0.109 C 
ENDBRANCH  23  25
BRANCH  23  31
ATOM     31  O   LIG    1      -34.529  71.180  25.401  0.00  0.00    -0.481 OA
ATOM     32  H   LIG    1      -34.409  70.250  25.168  0.00  0.00    +0.295 HD
ENDBRANCH  23  31
ENDBRANCH   1  24
TORSDOF 5
ENDMDL
MODEL 7
REMARK VINA RESULT:      -6.0     20.498     21.444
REMARK  Name = pdb/CHEMBL3913529.pdb
REMARK                            x       y       z     vdW  Elec       q    Type
REMARK                         _______ _______ _______ _____ _____    ______ ____
ROOT
ATOM      1  C   LIG    1      -23.145  79.949  34.979  0.00  0.00    +0.179 A 
ATOM      2  N   LIG    1      -22.170  79.303  34.251  0.00  0.00    -0.193 N 
ATOM      3  N   LIG    1      -22.415  78.373  33.297  0.00  0.00    -0.148 NA
ATOM      4  C   LIG    1      -21.385  77.911  32.647  0.00  0.00    +0.143 A 
ATOM      5  C   LIG    1      -19.996  78.394  32.968  0.00  0.00    +0.049 A 
ATOM      6  C   LIG    1      -19.826  79.329  33.915  0.00  0.00    +0.051 A 
ATOM      7  C   LIG    1      -20.950  79.834  34.604  0.00  0.00    +0.157 A 
ATOM      8  N   LIG    1      -21.069  80.733  35.554  0.00  0.00    -0.232 NA
ATOM      9  C   LIG    1      -22.420  80.791  35.809  0.00  0.00    +0.161 A 
ENDROOT
BRANCH   4  10
ATOM     10  N   LIG    1      -21.639  76.960  31.664  0.00  0.00    -0.307 N 
ATOM     11  C   LIG    1      -22.814  77.096  30.755  0.00  0.00    +0.108 C 
ATOM     12  C   LIG    1      -22.245  76.793  29.349  0.00  0.00    +0.029 C 
ATOM     13  C   LIG    1      -20.746  76.639  29.541  0.00  0.00    +0.021 C 
ATOM     14  C   LIG    1      -20.615  76.185  30.982  0.00  0.00    +0.107 C 
BRANCH  11  15
ATOM     15  C   LIG    1      -23.955  76.161  31.116  0.00  0.00    +0.011 A 
ATOM     16  C   LIG    1      -25.119  76.694  31.693  0.00  0.00    +0.129 A 
ATOM     17  F   LIG    1      -25.204  78.013  31.925  0.00  0.00    -0.205 F 
ATOM     18  C   LIG    1      -26.217  75.897  32.015  0.00  0.00    +0.041 A 
ATOM     19  C   LIG    1      -26.165  74.527  31.774  0.00  0.00    +0.041 A 
ATOM     20  C   LIG    1      -25.009  73.978  31.229  0.00  0.00    +0.124 A 
ATOM     21  F   LIG    1      -24.956  72.660  30.997  0.00  0.00    -0.205 F 
ATOM     22  C   LIG    1      -23.910  74.774  30.908  0.00  0.00    +0.046 A 
ENDBRANCH  11  15
ENDBRANCH   4  10
BRANCH   1  24
ATOM     23  C   LIG    1      -25.065  78.844  35.737  0.00  0.00    +0.285 C 
ATOM     24  N   LIG    1      -24.482  79.645  34.921  0.00  0.00    -0.178 NA
BRANCH  23  25
ATOM     25  N   LIG    1      -26.416  78.568  35.731  0.00  0.00    -0.285 N 
ATOM     26  C   LIG    1      -26.844  77.296  35.150  0.00  0.00    +0.109 C 
ATOM     27  C   LIG    1      -28.342  77.328  34.848  0.00  0.00    +0.019 C 
ATOM     28  C   LIG    1      -29.149  77.735  36.076  0.00  0.00    +0.003 C 
ATOM     29  C   LIG    1      -28.646  79.062  36.628  0.00  0.00    +0.019 C 
ATOM     30  C   LIG    1      -27.157  78.991  36.917  0.00  0.00    +0.109 C 
ENDBRANCH  23  25
BRANCH  23  31
ATOM     31  O   LIG    1      -24.462  78.129  36.715  0.00  0.00    -0.481 OA
ATOM     32  H   LIG    1      -24.859  78.331  37.573  0.00  0.00    +0.295 HD
ENDBRANCH  23  31
ENDBRANCH   1  24
TORSDOF 5
ENDMDL
MODEL 8
REMARK VINA RESULT:      -6.0     14.823     17.155
REMARK  Name = pdb/CHEMBL3913529.pdb
REMARK                            x       y       z     vdW  Elec       q    Type
REMARK                         _______ _______ _______ _____ _____    ______ ____
ROOT
ATOM      1  C   LIG    1      -24.207  83.654  10.861  0.00  0.00    +0.179 A 
ATOM      2  N   LIG    1      -24.732  82.402  11.099  0.00  0.00    -0.193 N 
ATOM      3  N   LIG    1      -24.385  81.612  12.144  0.00  0.00    -0.148 NA
ATOM      4  C   LIG    1      -25.029  80.487  12.270  0.00  0.00    +0.143 A 
ATOM      5  C   LIG    1      -26.096  80.099  11.281  0.00  0.00    +0.049 A 
ATOM      6  C   LIG    1      -26.400  80.936  10.278  0.00  0.00    +0.051 A 
ATOM      7  C   LIG    1      -25.706  82.159  10.157  0.00  0.00    +0.157 A 
ATOM      8  N   LIG    1      -25.801  83.143   9.293  0.00  0.00    -0.232 NA
ATOM      9  C   LIG    1      -24.860  84.058   9.705  0.00  0.00    +0.161 A 
ENDROOT
BRANCH   4  10
ATOM     10  N   LIG    1      -24.676  79.680  13.346  0.00  0.00    -0.307 N 
ATOM     11  C   LIG    1      -24.636  80.229  14.733  0.00  0.00    +0.108 C 
ATOM     12  C   LIG    1      -25.359  79.162  15.587  0.00  0.00    +0.029 C 
ATOM     13  C   LIG    1      -25.885  78.136  14.597  0.00  0.00    +0.021 C 
ATOM     14  C   LIG    1      -24.930  78.250  13.424  0.00  0.00    +0.107 C 
BRANCH  11  15
ATOM     15  C   LIG    1      -23.223  80.487  15.228  0.00  0.00    +0.011 A 
ATOM     16  C   LIG    1      -22.800  81.811  15.430  0.00  0.00    +0.129 A 
ATOM     17  F   LIG    1      -23.641  82.825  15.175  0.00  0.00    -0.205 F 
ATOM     18  C   LIG    1      -21.530  82.116  15.917  0.00  0.00    +0.041 A 
ATOM     19  C   LIG    1      -20.639  81.085  16.203  0.00  0.00    +0.041 A 
ATOM     20  C   LIG    1      -21.031  79.769  15.983  0.00  0.00    +0.124 A 
ATOM     21  F   LIG    1      -20.175  78.776  16.257  0.00  0.00    -0.205 F 
ATOM     22  C   LIG    1      -22.301  79.463  15.494  0.00  0.00    +0.046 A 
ENDBRANCH  11  15
ENDBRANCH   4  10
BRANCH   1  24
ATOM     23  C   LIG    1      -23.331  85.162  12.422  0.00  0.00    +0.285 C 
ATOM     24  N   LIG    1      -23.177  84.210  11.576  0.00  0.00    -0.178 NA
BRANCH  23  25
ATOM     25  N   LIG    1      -22.320  85.697  13.191  0.00  0.00    -0.285 N 
ATOM     26  C   LIG    1      -20.978  85.741  12.610  0.00  0.00    +0.109 C 
ATOM     27  C   LIG    1      -19.933  85.962  13.702  0.00  0.00    +0.019 C 
ATOM     28  C   LIG    1      -20.266  87.184  14.552  0.00  0.00    +0.003 C 
ATOM     29  C   LIG    1      -21.675  87.072  15.118  0.00  0.00    +0.019 C 
ATOM     30  C   LIG    1      -22.683  86.855  14.005  0.00  0.00    +0.109 C 
ENDBRANCH  23  25
BRANCH  23  31
ATOM     31  O   LIG    1      -24.490  85.809  12.686  0.00  0.00    -0.481 OA
ATOM     32  H   LIG    1      -24.568  86.600  12.136  0.00  0.00    +0.295 HD
ENDBRANCH  23  31
ENDBRANCH   1  24
TORSDOF 5
ENDMDL
MODEL 9
REMARK VINA RESULT:      -5.9     13.953     15.020
REMARK  Name = pdb/CHEMBL3913529.pdb
REMARK                            x       y       z     vdW  Elec       q    Type
REMARK                         _______ _______ _______ _____ _____    ______ ____
ROOT
ATOM      1  C   LIG    1      -22.178  85.936  14.167  0.00  0.00    +0.179 A 
ATOM      2  N   LIG    1      -22.829  86.630  13.171  0.00  0.00    -0.193 N 
ATOM      3  N   LIG    1      -23.757  86.092  12.343  0.00  0.00    -0.148 NA
ATOM      4  C   LIG    1      -24.336  86.902  11.503  0.00  0.00    +0.143 A 
ATOM      5  C   LIG    1      -23.964  88.360  11.463  0.00  0.00    +0.049 A 
ATOM      6  C   LIG    1      -23.047  88.830  12.322  0.00  0.00    +0.051 A 
ATOM      7  C   LIG    1      -22.435  87.947  13.239  0.00  0.00    +0.157 A 
ATOM      8  N   LIG    1      -21.529  88.135  14.170  0.00  0.00    -0.232 NA
ATOM      9  C   LIG    1      -21.345  86.892  14.731  0.00  0.00    +0.161 A 
ENDROOT
BRANCH   4  10
ATOM     10  N   LIG    1      -25.293  86.350  10.658  0.00  0.00    -0.307 N 
ATOM     11  C   LIG    1      -26.142  85.209  11.108  0.00  0.00    +0.108 C 
ATOM     12  C   LIG    1      -27.572  85.600  10.665  0.00  0.00    +0.029 C 
ATOM     13  C   LIG    1      -27.454  87.010  10.111  0.00  0.00    +0.021 C 
ATOM     14  C   LIG    1      -26.016  87.089   9.636  0.00  0.00    +0.107 C 
BRANCH  11  15
ATOM     15  C   LIG    1      -25.712  83.878  10.515  0.00  0.00    +0.011 A 
ATOM     16  C   LIG    1      -25.684  82.740  11.338  0.00  0.00    +0.129 A 
ATOM     17  F   LIG    1      -26.026  82.845  12.631  0.00  0.00    -0.205 F 
ATOM     18  C   LIG    1      -25.333  81.483  10.849  0.00  0.00    +0.041 A 
ATOM     19  C   LIG    1      -24.986  81.339   9.509  0.00  0.00    +0.041 A 
ATOM     20  C   LIG    1      -24.981  82.461   8.686  0.00  0.00    +0.124 A 
ATOM     21  F   LIG    1      -24.647  82.325   7.396  0.00  0.00    -0.205 F 
ATOM     22  C   LIG    1      -25.330  83.719   9.174  0.00  0.00    +0.046 A 
ENDBRANCH  11  15
ENDBRANCH   4  10
BRANCH   1  24
ATOM     23  C   LIG    1      -22.680  84.059  15.473  0.00  0.00    +0.285 C 
ATOM     24  N   LIG    1      -22.291  84.583  14.369  0.00  0.00    -0.178 NA
BRANCH  23  25
ATOM     25  N   LIG    1      -22.854  82.707  15.679  0.00  0.00    -0.285 N 
ATOM     26  C   LIG    1      -23.630  81.965  14.685  0.00  0.00    +0.109 C 
ATOM     27  C   LIG    1      -24.072  80.618  15.254  0.00  0.00    +0.019 C 
ATOM     28  C   LIG    1      -22.888  79.832  15.809  0.00  0.00    +0.003 C 
ATOM     29  C   LIG    1      -22.127  80.666  16.830  0.00  0.00    +0.019 C 
ATOM     30  C   LIG    1      -21.704  81.994  16.229  0.00  0.00    +0.109 C 
ENDBRANCH  23  25
BRANCH  23  31
ATOM     31  O   LIG    1      -22.964  84.729  16.614  0.00  0.00    -0.481 OA
ATOM     32  H   LIG    1      -23.514  84.188  17.196  0.00  0.00    +0.295 HD
ENDBRANCH  23  31
ENDBRANCH   1  24
TORSDOF 5
ENDMDL
