MODEL 1
REMARK VINA RESULT:      -6.0      0.000      0.000
REMARK  Name = pdb/CHEMBL3661490.pdb
REMARK                            x       y       z     vdW  Elec       q    Type
REMARK                         _______ _______ _______ _____ _____    ______ ____
ROOT
ATOM      1  C   LIG    1      -20.459  77.078  30.555  0.00  0.00    +0.042 A 
ATOM      2  C   LIG    1      -20.672  77.891  31.672  0.00  0.00    +0.038 A 
ATOM      3  C   LIG    1      -19.592  78.325  32.443  0.00  0.00    +0.052 A 
ATOM      4  C   LIG    1      -18.324  77.911  32.042  0.00  0.00    +0.134 A 
ATOM      5  N   LIG    1      -18.081  77.170  30.931  0.00  0.00    -0.261 NA
ATOM      6  C   LIG    1      -19.156  76.764  30.220  0.00  0.00    +0.122 A 
ENDROOT
BRANCH   3   7
ATOM      7  N   LIG    1      -19.871  79.134  33.562  0.00  0.00    -0.283 N 
ATOM      8  H   LIG    1      -20.391  79.992  33.385  0.00  0.00    +0.155 HD
ATOM      9  C   LIG    1      -19.541  78.859  34.881  0.00  0.00    +0.239 C 
ATOM     10  O   LIG    1      -19.000  77.837  35.273  0.00  0.00    -0.273 OA
BRANCH   9  11
ATOM     11  C   LIG    1      -19.987  79.901  35.889  0.00  0.00    +0.239 C 
BRANCH  11  12
ATOM     12  N   LIG    1      -21.410  80.191  35.849  0.00  0.00    -0.259 N 
ATOM     13  C   LIG    1      -22.066  81.331  36.235  0.00  0.00    +0.037 A 
ATOM     14  C   LIG    1      -21.412  82.583  36.688  0.00  0.00    +0.065 C 
ATOM     15  C   LIG    1      -23.406  81.044  36.111  0.00  0.00    +0.056 A 
ATOM     16  C   LIG    1      -23.480  79.742  35.560  0.00  0.00    +0.165 A 
ATOM     17  N   LIG    1      -22.241  79.254  35.336  0.00  0.00    -0.167 NA
BRANCH  16  18
ATOM     18  C   LIG    1      -24.758  79.008  35.240  0.00  0.00    +0.436 C 
ATOM     19  F   LIG    1      -24.944  78.913  33.895  0.00  0.00    -0.164 F 
ATOM     20  F   LIG    1      -25.844  79.666  35.731  0.00  0.00    -0.164 F 
ATOM     21  F   LIG    1      -24.805  77.745  35.733  0.00  0.00    -0.164 F 
ENDBRANCH  16  18
ENDBRANCH  11  12
ENDBRANCH   9  11
ENDBRANCH   3   7
BRANCH   1  22
ATOM     22  C   LIG    1      -21.636  76.441  29.904  0.00  0.00    +0.197 C 
ATOM     23  O   LIG    1      -21.676  76.418  28.682  0.00  0.00    -0.287 OA
BRANCH  22  31
ATOM     24  N   LIG    1      -23.826  74.516  32.082  0.00  0.00    -0.329 N 
ATOM     25  C   LIG    1      -24.698  75.543  31.797  0.00  0.00    +0.145 A 
ATOM     26  N   LIG    1      -25.964  75.644  32.242  0.00  0.00    -0.218 NA
ATOM     27  C   LIG    1      -26.567  76.758  31.796  0.00  0.00    +0.223 A 
ATOM     28  N   LIG    1      -26.051  77.720  31.008  0.00  0.00    -0.243 NA
ATOM     29  C   LIG    1      -24.778  77.577  30.590  0.00  0.00    +0.124 A 
ATOM     30  C   LIG    1      -24.044  76.446  30.967  0.00  0.00    +0.048 A 
ATOM     31  C   LIG    1      -22.732  75.952  30.726  0.00  0.00    +0.051 A 
ATOM     32  C   LIG    1      -22.609  74.810  31.512  0.00  0.00    +0.100 A 
BRANCH  24  34
ATOM     33  C   LIG    1      -23.478  72.064  32.324  0.00  0.00    +0.030 C 
ATOM     34  C   LIG    1      -24.137  73.330  32.886  0.00  0.00    +0.083 C 
ATOM     35  C   LIG    1      -23.737  73.488  34.360  0.00  0.00    +0.030 C 
ENDBRANCH  24  34
ENDBRANCH  22  31
ENDBRANCH   1  22
TORSDOF 7
ENDMDL
MODEL 2
REMARK VINA RESULT:      -5.8      3.004      7.880
REMARK  Name = pdb/CHEMBL3661490.pdb
REMARK                            x       y       z     vdW  Elec       q    Type
REMARK                         _______ _______ _______ _____ _____    ______ ____
ROOT
ATOM      1  C   LIG    1      -23.626  80.224  35.164  0.00  0.00    +0.042 A 
ATOM      2  C   LIG    1      -23.639  79.345  34.077  0.00  0.00    +0.038 A 
ATOM      3  C   LIG    1      -24.643  78.382  33.963  0.00  0.00    +0.052 A 
ATOM      4  C   LIG    1      -25.606  78.352  34.968  0.00  0.00    +0.134 A 
ATOM      5  N   LIG    1      -25.653  79.229  36.004  0.00  0.00    -0.261 NA
ATOM      6  C   LIG    1      -24.656  80.138  36.081  0.00  0.00    +0.122 A 
ENDROOT
BRANCH   3   7
ATOM      7  N   LIG    1      -24.596  77.518  32.852  0.00  0.00    -0.283 N 
ATOM      8  H   LIG    1      -23.714  77.033  32.688  0.00  0.00    +0.155 HD
ATOM      9  C   LIG    1      -25.640  77.235  31.983  0.00  0.00    +0.239 C 
ATOM     10  O   LIG    1      -26.780  77.660  32.090  0.00  0.00    -0.273 OA
BRANCH   9  11
ATOM     11  C   LIG    1      -25.314  76.246  30.881  0.00  0.00    +0.239 C 
BRANCH  11  12
ATOM     12  N   LIG    1      -23.899  75.935  30.765  0.00  0.00    -0.259 N 
ATOM     13  C   LIG    1      -23.242  74.780  31.102  0.00  0.00    +0.037 A 
ATOM     14  C   LIG    1      -23.892  73.531  31.569  0.00  0.00    +0.065 C 
ATOM     15  C   LIG    1      -21.906  75.049  30.914  0.00  0.00    +0.056 A 
ATOM     16  C   LIG    1      -21.839  76.358  30.379  0.00  0.00    +0.165 A 
ATOM     17  N   LIG    1      -23.080  76.867  30.225  0.00  0.00    -0.167 NA
BRANCH  16  18
ATOM     18  C   LIG    1      -20.568  77.077  30.006  0.00  0.00    +0.436 C 
ATOM     19  F   LIG    1      -20.291  76.928  28.682  0.00  0.00    -0.164 F 
ATOM     20  F   LIG    1      -19.497  76.575  30.679  0.00  0.00    -0.164 F 
ATOM     21  F   LIG    1      -20.598  78.411  30.252  0.00  0.00    -0.164 F 
ENDBRANCH  16  18
ENDBRANCH  11  12
ENDBRANCH   9  11
ENDBRANCH   3   7
BRANCH   1  22
ATOM     22  C   LIG    1      -22.421  81.070  35.381  0.00  0.00    +0.197 C 
ATOM     23  O   LIG    1      -22.520  82.274  35.191  0.00  0.00    -0.287 OA
BRANCH  22  31
ATOM     24  N   LIG    1      -19.403  79.879  37.028  0.00  0.00    -0.329 N 
ATOM     25  C   LIG    1      -19.138  79.387  35.770  0.00  0.00    +0.145 A 
ATOM     26  N   LIG    1      -18.031  78.713  35.408  0.00  0.00    -0.218 NA
ATOM     27  C   LIG    1      -18.058  78.360  34.112  0.00  0.00    +0.223 A 
ATOM     28  N   LIG    1      -19.030  78.592  33.210  0.00  0.00    -0.243 NA
ATOM     29  C   LIG    1      -20.122  79.267  33.621  0.00  0.00    +0.124 A 
ATOM     30  C   LIG    1      -20.209  79.713  34.946  0.00  0.00    +0.048 A 
ATOM     31  C   LIG    1      -21.155  80.439  35.720  0.00  0.00    +0.051 A 
ATOM     32  C   LIG    1      -20.662  80.432  37.021  0.00  0.00    +0.100 A 
BRANCH  24  34
ATOM     33  C   LIG    1      -18.762  80.918  39.197  0.00  0.00    +0.030 C 
ATOM     34  C   LIG    1      -18.505  79.795  38.185  0.00  0.00    +0.083 C 
ATOM     35  C   LIG    1      -18.590  78.443  38.908  0.00  0.00    +0.030 C 
ENDBRANCH  24  34
ENDBRANCH  22  31
ENDBRANCH   1  22
TORSDOF 7
ENDMDL
MODEL 3
REMARK VINA RESULT:      -5.7      7.072     11.012
REMARK  Name = pdb/CHEMBL3661490.pdb
REMARK                            x       y       z     vdW  Elec       q    Type
REMARK                         _______ _______ _______ _____ _____    ______ ____
ROOT
ATOM      1  C   LIG    1      -33.328  74.006  29.103  0.00  0.00    +0.042 A 
ATOM      2  C   LIG    1      -32.409  74.656  29.931  0.00  0.00    +0.038 A 
ATOM      3  C   LIG    1      -31.410  73.928  30.581  0.00  0.00    +0.052 A 
ATOM      4  C   LIG    1      -31.384  72.554  30.357  0.00  0.00    +0.134 A 
ATOM      5  N   LIG    1      -32.226  71.903  29.514  0.00  0.00    -0.261 NA
ATOM      6  C   LIG    1      -33.183  72.645  28.914  0.00  0.00    +0.122 A 
ENDROOT
BRANCH   3   7
ATOM      7  N   LIG    1      -30.520  74.637  31.411  0.00  0.00    -0.283 N 
ATOM      8  H   LIG    1      -30.249  74.182  32.282  0.00  0.00    +0.155 HD
ATOM      9  C   LIG    1      -29.948  75.872  31.142  0.00  0.00    +0.239 C 
ATOM     10  O   LIG    1      -30.097  76.507  30.110  0.00  0.00    -0.273 OA
BRANCH   9  11
ATOM     11  C   LIG    1      -29.003  76.392  32.208  0.00  0.00    +0.239 C 
BRANCH  11  12
ATOM     12  N   LIG    1      -27.598  76.279  31.858  0.00  0.00    -0.259 N 
ATOM     13  C   LIG    1      -26.773  75.188  31.958  0.00  0.00    +0.037 A 
ATOM     14  C   LIG    1      -27.199  73.826  32.359  0.00  0.00    +0.065 C 
ATOM     15  C   LIG    1      -25.519  75.643  31.618  0.00  0.00    +0.056 A 
ATOM     16  C   LIG    1      -25.682  76.998  31.240  0.00  0.00    +0.165 A 
ATOM     17  N   LIG    1      -26.981  77.358  31.323  0.00  0.00    -0.167 NA
BRANCH  16  18
ATOM     18  C   LIG    1      -24.571  77.908  30.780  0.00  0.00    +0.436 C 
ATOM     19  F   LIG    1      -23.766  77.282  29.880  0.00  0.00    -0.164 F 
ATOM     20  F   LIG    1      -23.771  78.278  31.817  0.00  0.00    -0.164 F 
ATOM     21  F   LIG    1      -25.005  79.051  30.190  0.00  0.00    -0.164 F 
ENDBRANCH  16  18
ENDBRANCH  11  12
ENDBRANCH   9  11
ENDBRANCH   3   7
BRANCH   1  22
ATOM     22  C   LIG    1      -34.515  74.765  28.623  0.00  0.00    +0.197 C 
ATOM     23  O   LIG    1      -35.500  74.132  28.271  0.00  0.00    -0.287 OA
BRANCH  22  31
ATOM     24  N   LIG    1      -35.023  78.358  28.885  0.00  0.00    -0.329 N 
ATOM     25  C   LIG    1      -34.025  78.378  27.937  0.00  0.00    +0.145 A 
ATOM     26  N   LIG    1      -33.519  79.479  27.352  0.00  0.00    -0.218 NA
ATOM     27  C   LIG    1      -32.554  79.181  26.466  0.00  0.00    +0.223 A 
ATOM     28  N   LIG    1      -32.075  77.965  26.142  0.00  0.00    -0.243 NA
ATOM     29  C   LIG    1      -32.610  76.892  26.757  0.00  0.00    +0.124 A 
ATOM     30  C   LIG    1      -33.642  77.065  27.688  0.00  0.00    +0.048 A 
ATOM     31  C   LIG    1      -34.438  76.213  28.502  0.00  0.00    +0.051 A 
ATOM     32  C   LIG    1      -35.207  77.059  29.295  0.00  0.00    +0.100 A 
BRANCH  24  34
ATOM     33  C   LIG    1      -37.106  79.161  29.985  0.00  0.00    +0.030 C 
ATOM     34  C   LIG    1      -35.740  79.532  29.394  0.00  0.00    +0.083 C 
ATOM     35  C   LIG    1      -34.937  80.313  30.445  0.00  0.00    +0.030 C 
ENDBRANCH  24  34
ENDBRANCH  22  31
ENDBRANCH   1  22
TORSDOF 7
ENDMDL
MODEL 4
REMARK VINA RESULT:      -5.6      4.546      8.861
REMARK  Name = pdb/CHEMBL3661490.pdb
REMARK                            x       y       z     vdW  Elec       q    Type
REMARK                         _______ _______ _______ _____ _____    ______ ____
ROOT
ATOM      1  C   LIG    1      -26.115  76.229  31.506  0.00  0.00    +0.042 A 
ATOM      2  C   LIG    1      -25.516  74.972  31.385  0.00  0.00    +0.038 A 
ATOM      3  C   LIG    1      -26.138  73.842  31.920  0.00  0.00    +0.052 A 
ATOM      4  C   LIG    1      -27.357  74.037  32.562  0.00  0.00    +0.134 A 
ATOM      5  N   LIG    1      -27.991  75.235  32.645  0.00  0.00    -0.261 NA
ATOM      6  C   LIG    1      -27.350  76.303  32.123  0.00  0.00    +0.122 A 
ENDROOT
BRANCH   3   7
ATOM      7  N   LIG    1      -25.480  72.605  31.775  0.00  0.00    -0.283 N 
ATOM      8  H   LIG    1      -25.557  72.151  30.865  0.00  0.00    +0.155 HD
ATOM      9  C   LIG    1      -24.709  71.962  32.734  0.00  0.00    +0.239 C 
ATOM     10  O   LIG    1      -24.444  72.410  33.839  0.00  0.00    -0.273 OA
BRANCH   9  11
ATOM     11  C   LIG    1      -24.098  70.646  32.296  0.00  0.00    +0.239 C 
BRANCH  11  12
ATOM     12  N   LIG    1      -24.696  70.086  31.096  0.00  0.00    -0.259 N 
ATOM     13  C   LIG    1      -25.710  69.170  30.988  0.00  0.00    +0.037 A 
ATOM     14  C   LIG    1      -26.500  68.629  32.122  0.00  0.00    +0.065 C 
ATOM     15  C   LIG    1      -25.809  68.886  29.645  0.00  0.00    +0.056 A 
ATOM     16  C   LIG    1      -24.880  69.736  28.996  0.00  0.00    +0.165 A 
ATOM     17  N   LIG    1      -24.252  70.522  29.895  0.00  0.00    -0.167 NA
BRANCH  16  18
ATOM     18  C   LIG    1      -24.643  69.781  27.507  0.00  0.00    +0.436 C 
ATOM     19  F   LIG    1      -24.005  68.658  27.078  0.00  0.00    -0.164 F 
ATOM     20  F   LIG    1      -23.846  70.829  27.163  0.00  0.00    -0.164 F 
ATOM     21  F   LIG    1      -25.779  69.892  26.773  0.00  0.00    -0.164 F 
ENDBRANCH  16  18
ENDBRANCH  11  12
ENDBRANCH   9  11
ENDBRANCH   3   7
BRANCH   1  22
ATOM     22  C   LIG    1      -25.321  77.434  31.143  0.00  0.00    +0.197 C 
ATOM     23  O   LIG    1      -25.873  78.315  30.498  0.00  0.00    -0.287 OA
BRANCH  22  31
ATOM     24  N   LIG    1      -22.097  77.908  32.762  0.00  0.00    -0.329 N 
ATOM     25  C   LIG    1      -21.633  77.494  31.534  0.00  0.00    +0.145 A 
ATOM     26  N   LIG    1      -20.339  77.382  31.181  0.00  0.00    -0.218 NA
ATOM     27  C   LIG    1      -20.197  76.953  29.916  0.00  0.00    +0.223 A 
ATOM     28  N   LIG    1      -21.165  76.637  29.036  0.00  0.00    -0.243 NA
ATOM     29  C   LIG    1      -22.446  76.762  29.435  0.00  0.00    +0.124 A 
ATOM     30  C   LIG    1      -22.731  77.222  30.727  0.00  0.00    +0.048 A 
ATOM     31  C   LIG    1      -23.907  77.488  31.481  0.00  0.00    +0.051 A 
ATOM     32  C   LIG    1      -23.470  77.814  32.761  0.00  0.00    +0.100 A 
BRANCH  24  34
ATOM     33  C   LIG    1      -21.862  79.552  34.615  0.00  0.00    +0.030 C 
ATOM     34  C   LIG    1      -21.264  78.341  33.889  0.00  0.00    +0.083 C 
ATOM     35  C   LIG    1      -21.013  77.221  34.909  0.00  0.00    +0.030 C 
ENDBRANCH  24  34
ENDBRANCH  22  31
ENDBRANCH   1  22
TORSDOF 7
ENDMDL
MODEL 5
REMARK VINA RESULT:      -5.6     17.503     21.000
REMARK  Name = pdb/CHEMBL3661490.pdb
REMARK                            x       y       z     vdW  Elec       q    Type
REMARK                         _______ _______ _______ _____ _____    ______ ____
ROOT
ATOM      1  C   LIG    1      -40.275  70.667  23.104  0.00  0.00    +0.042 A 
ATOM      2  C   LIG    1      -39.101  69.908  23.078  0.00  0.00    +0.038 A 
ATOM      3  C   LIG    1      -38.936  68.901  22.125  0.00  0.00    +0.052 A 
ATOM      4  C   LIG    1      -39.980  68.707  21.225  0.00  0.00    +0.134 A 
ATOM      5  N   LIG    1      -41.106  69.465  21.189  0.00  0.00    -0.261 NA
ATOM      6  C   LIG    1      -41.229  70.421  22.136  0.00  0.00    +0.122 A 
ENDROOT
BRANCH   3   7
ATOM      7  N   LIG    1      -37.736  68.164  22.155  0.00  0.00    -0.283 N 
ATOM      8  H   LIG    1      -37.503  67.709  23.037  0.00  0.00    +0.155 HD
ATOM      9  C   LIG    1      -36.863  67.965  21.096  0.00  0.00    +0.239 C 
ATOM     10  O   LIG    1      -37.038  68.363  19.955  0.00  0.00    -0.273 OA
BRANCH   9  11
ATOM     11  C   LIG    1      -35.654  67.105  21.407  0.00  0.00    +0.239 C 
BRANCH  11  12
ATOM     12  N   LIG    1      -35.319  67.045  22.820  0.00  0.00    -0.259 N 
ATOM     13  C   LIG    1      -35.339  65.964  23.663  0.00  0.00    +0.037 A 
ATOM     14  C   LIG    1      -35.614  64.565  23.255  0.00  0.00    +0.065 C 
ATOM     15  C   LIG    1      -35.060  66.467  24.913  0.00  0.00    +0.056 A 
ATOM     16  C   LIG    1      -34.797  67.847  24.731  0.00  0.00    +0.165 A 
ATOM     17  N   LIG    1      -34.890  68.176  23.426  0.00  0.00    -0.167 NA
BRANCH  16  18
ATOM     18  C   LIG    1      -34.436  68.811  25.833  0.00  0.00    +0.436 C 
ATOM     19  F   LIG    1      -35.550  69.358  26.390  0.00  0.00    -0.164 F 
ATOM     20  F   LIG    1      -33.695  69.850  25.360  0.00  0.00    -0.164 F 
ATOM     21  F   LIG    1      -33.727  68.249  26.844  0.00  0.00    -0.164 F 
ENDBRANCH  16  18
ENDBRANCH  11  12
ENDBRANCH   9  11
ENDBRANCH   3   7
BRANCH   1  22
ATOM     22  C   LIG    1      -40.520  71.558  24.271  0.00  0.00    +0.197 C 
ATOM     23  O   LIG    1      -40.773  71.040  25.349  0.00  0.00    -0.287 OA
BRANCH  22  31
ATOM     24  N   LIG    1      -39.806  75.126  24.255  0.00  0.00    -0.329 N 
ATOM     25  C   LIG    1      -41.038  75.178  23.643  0.00  0.00    +0.145 A 
ATOM     26  N   LIG    1      -41.671  76.297  23.245  0.00  0.00    -0.218 NA
ATOM     27  C   LIG    1      -42.859  76.029  22.678  0.00  0.00    +0.223 A 
ATOM     28  N   LIG    1      -43.428  74.825  22.476  0.00  0.00    -0.243 NA
ATOM     29  C   LIG    1      -42.754  73.733  22.888  0.00  0.00    +0.124 A 
ATOM     30  C   LIG    1      -41.511  73.876  23.516  0.00  0.00    +0.048 A 
ATOM     31  C   LIG    1      -40.543  73.000  24.078  0.00  0.00    +0.051 A 
ATOM     32  C   LIG    1      -39.465  73.806  24.433  0.00  0.00    +0.100 A 
BRANCH  24  34
ATOM     33  C   LIG    1      -39.483  76.960  25.905  0.00  0.00    +0.030 C 
ATOM     34  C   LIG    1      -38.985  76.285  24.621  0.00  0.00    +0.083 C 
ATOM     35  C   LIG    1      -37.499  75.935  24.785  0.00  0.00    +0.030 C 
ENDBRANCH  24  34
ENDBRANCH  22  31
ENDBRANCH   1  22
TORSDOF 7
ENDMDL
MODEL 6
REMARK VINA RESULT:      -5.5     17.071     19.677
REMARK  Name = pdb/CHEMBL3661490.pdb
REMARK                            x       y       z     vdW  Elec       q    Type
REMARK                         _______ _______ _______ _____ _____    ______ ____
ROOT
ATOM      1  C   LIG    1      -34.486  66.517  20.195  0.00  0.00    +0.042 A 
ATOM      2  C   LIG    1      -33.112  66.676  20.395  0.00  0.00    +0.038 A 
ATOM      3  C   LIG    1      -32.262  66.887  19.308  0.00  0.00    +0.052 A 
ATOM      4  C   LIG    1      -32.850  66.931  18.046  0.00  0.00    +0.134 A 
ATOM      5  N   LIG    1      -34.187  66.838  17.826  0.00  0.00    -0.261 NA
ATOM      6  C   LIG    1      -34.971  66.624  18.905  0.00  0.00    +0.122 A 
ENDROOT
BRANCH   3   7
ATOM      7  N   LIG    1      -30.886  67.030  19.572  0.00  0.00    -0.283 N 
ATOM      8  H   LIG    1      -30.592  67.911  19.992  0.00  0.00    +0.155 HD
ATOM      9  C   LIG    1      -29.901  66.078  19.353  0.00  0.00    +0.239 C 
ATOM     10  O   LIG    1      -30.096  64.944  18.943  0.00  0.00    -0.273 OA
BRANCH   9  11
ATOM     11  C   LIG    1      -28.499  66.494  19.753  0.00  0.00    +0.239 C 
BRANCH  11  12
ATOM     12  N   LIG    1      -27.946  67.564  18.941  0.00  0.00    -0.259 N 
ATOM     13  C   LIG    1      -26.791  67.573  18.202  0.00  0.00    +0.037 A 
ATOM     14  C   LIG    1      -25.899  66.406  17.993  0.00  0.00    +0.065 C 
ATOM     15  C   LIG    1      -26.666  68.860  17.730  0.00  0.00    +0.056 A 
ATOM     16  C   LIG    1      -27.829  69.548  18.153  0.00  0.00    +0.165 A 
ATOM     17  N   LIG    1      -28.645  68.718  18.837  0.00  0.00    -0.167 NA
BRANCH  16  18
ATOM     18  C   LIG    1      -28.133  70.995  17.858  0.00  0.00    +0.436 C 
ATOM     19  F   LIG    1      -28.516  71.655  18.985  0.00  0.00    -0.164 F 
ATOM     20  F   LIG    1      -29.163  71.116  16.976  0.00  0.00    -0.164 F 
ATOM     21  F   LIG    1      -27.085  71.682  17.338  0.00  0.00    -0.164 F 
ENDBRANCH  16  18
ENDBRANCH  11  12
ENDBRANCH   9  11
ENDBRANCH   3   7
BRANCH   1  22
ATOM     22  C   LIG    1      -35.323  66.056  21.336  0.00  0.00    +0.197 C 
ATOM     23  O   LIG    1      -35.799  64.931  21.284  0.00  0.00    -0.287 OA
BRANCH  22  31
ATOM     24  N   LIG    1      -35.397  67.927  24.456  0.00  0.00    -0.329 N 
ATOM     25  C   LIG    1      -36.500  68.502  23.865  0.00  0.00    +0.145 A 
ATOM     26  N   LIG    1      -37.287  69.441  24.420  0.00  0.00    -0.218 NA
ATOM     27  C   LIG    1      -38.286  69.809  23.602  0.00  0.00    +0.223 A 
ATOM     28  N   LIG    1      -38.545  69.362  22.358  0.00  0.00    -0.243 NA
ATOM     29  C   LIG    1      -37.726  68.423  21.843  0.00  0.00    +0.124 A 
ATOM     30  C   LIG    1      -36.657  67.937  22.605  0.00  0.00    +0.048 A 
ATOM     31  C   LIG    1      -35.624  66.978  22.421  0.00  0.00    +0.051 A 
ATOM     32  C   LIG    1      -34.813  67.075  23.547  0.00  0.00    +0.100 A 
BRANCH  24  34
ATOM     33  C   LIG    1      -34.219  66.989  26.437  0.00  0.00    +0.030 C 
ATOM     34  C   LIG    1      -34.911  68.206  25.811  0.00  0.00    +0.083 C 
ATOM     35  C   LIG    1      -33.955  69.406  25.866  0.00  0.00    +0.030 C 
ENDBRANCH  24  34
ENDBRANCH  22  31
ENDBRANCH   1  22
TORSDOF 7
ENDMDL
MODEL 7
REMARK VINA RESULT:      -5.5     20.444     22.506
REMARK  Name = pdb/CHEMBL3661490.pdb
REMARK                            x       y       z     vdW  Elec       q    Type
REMARK                         _______ _______ _______ _____ _____    ______ ____
ROOT
ATOM      1  C   LIG    1      -21.601  86.203  14.041  0.00  0.00    +0.042 A 
ATOM      2  C   LIG    1      -22.175  87.012  13.057  0.00  0.00    +0.038 A 
ATOM      3  C   LIG    1      -22.738  88.243  13.398  0.00  0.00    +0.052 A 
ATOM      4  C   LIG    1      -22.692  88.607  14.741  0.00  0.00    +0.134 A 
ATOM      5  N   LIG    1      -22.090  87.870  15.710  0.00  0.00    -0.261 NA
ATOM      6  C   LIG    1      -21.568  86.681  15.337  0.00  0.00    +0.122 A 
ENDROOT
BRANCH   3   7
ATOM      7  N   LIG    1      -23.310  89.009  12.365  0.00  0.00    -0.283 N 
ATOM      8  H   LIG    1      -22.993  89.975  12.283  0.00  0.00    +0.155 HD
ATOM      9  C   LIG    1      -24.232  88.570  11.425  0.00  0.00    +0.239 C 
ATOM     10  O   LIG    1      -24.645  87.425  11.327  0.00  0.00    -0.273 OA
BRANCH   9  11
ATOM     11  C   LIG    1      -24.663  89.607  10.408  0.00  0.00    +0.239 C 
BRANCH  11  12
ATOM     12  N   LIG    1      -25.115  90.858  10.993  0.00  0.00    -0.259 N 
ATOM     13  C   LIG    1      -24.851  92.141  10.590  0.00  0.00    +0.037 A 
ATOM     14  C   LIG    1      -24.109  92.517   9.362  0.00  0.00    +0.065 C 
ATOM     15  C   LIG    1      -25.409  92.951  11.552  0.00  0.00    +0.056 A 
ATOM     16  C   LIG    1      -26.068  92.087  12.460  0.00  0.00    +0.165 A 
ATOM     17  N   LIG    1      -25.941  90.803  12.064  0.00  0.00    -0.167 NA
BRANCH  16  18
ATOM     18  C   LIG    1      -26.832  92.534  13.681  0.00  0.00    +0.436 C 
ATOM     19  F   LIG    1      -28.154  92.692  13.401  0.00  0.00    -0.164 F 
ATOM     20  F   LIG    1      -26.389  93.740  14.130  0.00  0.00    -0.164 F 
ATOM     21  F   LIG    1      -26.752  91.670  14.725  0.00  0.00    -0.164 F 
ENDBRANCH  16  18
ENDBRANCH  11  12
ENDBRANCH   9  11
ENDBRANCH   3   7
BRANCH   1  22
ATOM     22  C   LIG    1      -21.231  84.805  13.687  0.00  0.00    +0.197 C 
ATOM     23  O   LIG    1      -20.143  84.612  13.162  0.00  0.00    -0.287 OA
BRANCH  22  31
ATOM     24  N   LIG    1      -23.076  81.890  14.843  0.00  0.00    -0.329 N 
ATOM     25  C   LIG    1      -23.878  82.208  13.771  0.00  0.00    +0.145 A 
ATOM     26  N   LIG    1      -24.969  81.525  13.376  0.00  0.00    -0.218 NA
ATOM     27  C   LIG    1      -25.547  82.077  12.297  0.00  0.00    +0.223 A 
ATOM     28  N   LIG    1      -25.165  83.183  11.629  0.00  0.00    -0.243 NA
ATOM     29  C   LIG    1      -24.069  83.835  12.063  0.00  0.00    +0.124 A 
ATOM     30  C   LIG    1      -23.360  83.349  13.168  0.00  0.00    +0.048 A 
ATOM     31  C   LIG    1      -22.197  83.736  13.888  0.00  0.00    +0.051 A 
ATOM     32  C   LIG    1      -22.115  82.866  14.971  0.00  0.00    +0.100 A 
BRANCH  24  34
ATOM     33  C   LIG    1      -22.935  79.410  14.993  0.00  0.00    +0.030 C 
ATOM     34  C   LIG    1      -23.242  80.725  15.719  0.00  0.00    +0.083 C 
ATOM     35  C   LIG    1      -22.383  80.807  16.989  0.00  0.00    +0.030 C 
ENDBRANCH  24  34
ENDBRANCH  22  31
ENDBRANCH   1  22
TORSDOF 7
ENDMDL
MODEL 8
REMARK VINA RESULT:      -5.5      1.604      2.117
REMARK  Name = pdb/CHEMBL3661490.pdb
REMARK                            x       y       z     vdW  Elec       q    Type
REMARK                         _______ _______ _______ _____ _____    ______ ____
ROOT
ATOM      1  C   LIG    1      -21.443  77.399  30.338  0.00  0.00    +0.042 A 
ATOM      2  C   LIG    1      -20.987  77.880  31.568  0.00  0.00    +0.038 A 
ATOM      3  C   LIG    1      -19.646  77.732  31.928  0.00  0.00    +0.052 A 
ATOM      4  C   LIG    1      -18.813  77.096  31.012  0.00  0.00    +0.134 A 
ATOM      5  N   LIG    1      -19.214  76.670  29.786  0.00  0.00    -0.261 NA
ATOM      6  C   LIG    1      -20.522  76.824  29.484  0.00  0.00    +0.122 A 
ENDROOT
BRANCH   3   7
ATOM      7  N   LIG    1      -19.248  78.228  33.185  0.00  0.00    -0.283 N 
ATOM      8  H   LIG    1      -18.946  79.202  33.215  0.00  0.00    +0.155 HD
ATOM      9  C   LIG    1      -19.264  77.537  34.388  0.00  0.00    +0.239 C 
ATOM     10  O   LIG    1      -19.681  76.399  34.540  0.00  0.00    -0.273 OA
BRANCH   9  11
ATOM     11  C   LIG    1      -18.801  78.329  35.595  0.00  0.00    +0.239 C 
BRANCH  11  12
ATOM     12  N   LIG    1      -19.729  79.365  36.014  0.00  0.00    -0.259 N 
ATOM     13  C   LIG    1      -19.676  80.169  37.124  0.00  0.00    +0.037 A 
ATOM     14  C   LIG    1      -18.558  80.212  38.096  0.00  0.00    +0.065 C 
ATOM     15  C   LIG    1      -20.853  80.883  37.117  0.00  0.00    +0.056 A 
ATOM     16  C   LIG    1      -21.526  80.520  35.925  0.00  0.00    +0.165 A 
ATOM     17  N   LIG    1      -20.789  79.637  35.218  0.00  0.00    -0.167 NA
BRANCH  16  18
ATOM     18  C   LIG    1      -22.863  81.062  35.487  0.00  0.00    +0.436 C 
ATOM     19  F   LIG    1      -23.843  80.717  36.366  0.00  0.00    -0.164 F 
ATOM     20  F   LIG    1      -23.234  80.552  34.281  0.00  0.00    -0.164 F 
ATOM     21  F   LIG    1      -22.897  82.413  35.371  0.00  0.00    -0.164 F 
ENDBRANCH  16  18
ENDBRANCH  11  12
ENDBRANCH   9  11
ENDBRANCH   3   7
BRANCH   1  22
ATOM     22  C   LIG    1      -22.910  77.355  30.091  0.00  0.00    +0.197 C 
ATOM     23  O   LIG    1      -23.417  78.275  29.464  0.00  0.00    -0.287 OA
BRANCH  22  31
ATOM     24  N   LIG    1      -24.167  74.178  31.342  0.00  0.00    -0.329 N 
ATOM     25  C   LIG    1      -25.307  74.923  31.541  0.00  0.00    +0.145 A 
ATOM     26  N   LIG    1      -26.471  74.460  32.033  0.00  0.00    -0.218 NA
ATOM     27  C   LIG    1      -27.403  75.425  32.113  0.00  0.00    +0.223 A 
ATOM     28  N   LIG    1      -27.280  76.724  31.781  0.00  0.00    -0.243 NA
ATOM     29  C   LIG    1      -26.093  77.142  31.297  0.00  0.00    +0.124 A 
ATOM     30  C   LIG    1      -25.044  76.228  31.142  0.00  0.00    +0.048 A 
ATOM     31  C   LIG    1      -23.703  76.282  30.672  0.00  0.00    +0.051 A 
ATOM     32  C   LIG    1      -23.170  75.018  30.905  0.00  0.00    +0.100 A 
BRANCH  24  34
ATOM     33  C   LIG    1      -24.255  71.913  30.314  0.00  0.00    +0.030 C 
ATOM     34  C   LIG    1      -24.034  72.738  31.588  0.00  0.00    +0.083 C 
ATOM     35  C   LIG    1      -22.675  72.360  32.197  0.00  0.00    +0.030 C 
ENDBRANCH  24  34
ENDBRANCH  22  31
ENDBRANCH   1  22
TORSDOF 7
ENDMDL
MODEL 9
REMARK VINA RESULT:      -5.4     14.319     17.939
REMARK  Name = pdb/CHEMBL3661490.pdb
REMARK                            x       y       z     vdW  Elec       q    Type
REMARK                         _______ _______ _______ _____ _____    ______ ____
ROOT
ATOM      1  C   LIG    1      -39.698  74.853  25.150  0.00  0.00    +0.042 A 
ATOM      2  C   LIG    1      -38.438  75.045  25.723  0.00  0.00    +0.038 A 
ATOM      3  C   LIG    1      -37.636  76.115  25.318  0.00  0.00    +0.052 A 
ATOM      4  C   LIG    1      -38.156  76.957  24.338  0.00  0.00    +0.134 A 
ATOM      5  N   LIG    1      -39.398  76.830  23.806  0.00  0.00    -0.261 NA
ATOM      6  C   LIG    1      -40.135  75.775  24.219  0.00  0.00    +0.122 A 
ENDROOT
BRANCH   3   7
ATOM      7  N   LIG    1      -36.372  76.250  25.924  0.00  0.00    -0.283 N 
ATOM      8  H   LIG    1      -35.568  75.959  25.370  0.00  0.00    +0.155 HD
ATOM      9  C   LIG    1      -36.112  76.774  27.182  0.00  0.00    +0.239 C 
ATOM     10  O   LIG    1      -36.950  77.248  27.934  0.00  0.00    -0.273 OA
BRANCH   9  11
ATOM     11  C   LIG    1      -34.648  76.821  27.573  0.00  0.00    +0.239 C 
BRANCH  11  12
ATOM     12  N   LIG    1      -34.128  75.558  28.068  0.00  0.00    -0.259 N 
ATOM     13  C   LIG    1      -32.966  75.317  28.755  0.00  0.00    +0.037 A 
ATOM     14  C   LIG    1      -32.027  76.357  29.240  0.00  0.00    +0.065 C 
ATOM     15  C   LIG    1      -32.887  73.948  28.874  0.00  0.00    +0.056 A 
ATOM     16  C   LIG    1      -34.080  73.434  28.311  0.00  0.00    +0.165 A 
ATOM     17  N   LIG    1      -34.870  74.442  27.883  0.00  0.00    -0.167 NA
BRANCH  16  18
ATOM     18  C   LIG    1      -34.438  71.972  28.226  0.00  0.00    +0.436 C 
ATOM     19  F   LIG    1      -35.354  71.636  29.174  0.00  0.00    -0.164 F 
ATOM     20  F   LIG    1      -33.352  71.182  28.445  0.00  0.00    -0.164 F 
ATOM     21  F   LIG    1      -34.959  71.603  27.029  0.00  0.00    -0.164 F 
ENDBRANCH  16  18
ENDBRANCH  11  12
ENDBRANCH   9  11
ENDBRANCH   3   7
BRANCH   1  22
ATOM     22  C   LIG    1      -40.418  73.580  25.424  0.00  0.00    +0.197 C 
ATOM     23  O   LIG    1      -41.097  73.509  26.439  0.00  0.00    -0.287 OA
BRANCH  22  31
ATOM     24  N   LIG    1      -40.817  70.822  23.085  0.00  0.00    -0.329 N 
ATOM     25  C   LIG    1      -39.485  70.632  23.374  0.00  0.00    +0.145 A 
ATOM     26  N   LIG    1      -38.707  69.651  22.882  0.00  0.00    -0.218 NA
ATOM     27  C   LIG    1      -37.448  69.725  23.346  0.00  0.00    +0.223 A 
ATOM     28  N   LIG    1      -36.930  70.636  24.192  0.00  0.00    -0.243 NA
ATOM     29  C   LIG    1      -37.748  71.602  24.656  0.00  0.00    +0.124 A 
ATOM     30  C   LIG    1      -39.092  71.624  24.265  0.00  0.00    +0.048 A 
ATOM     31  C   LIG    1      -40.223  72.442  24.539  0.00  0.00    +0.051 A 
ATOM     32  C   LIG    1      -41.239  71.970  23.715  0.00  0.00    +0.100 A 
BRANCH  24  34
ATOM     33  C   LIG    1      -42.934  69.526  22.909  0.00  0.00    +0.030 C 
ATOM     34  C   LIG    1      -41.635  69.962  22.222  0.00  0.00    +0.083 C 
ATOM     35  C   LIG    1      -41.978  70.620  20.878  0.00  0.00    +0.030 C 
ENDBRANCH  24  34
ENDBRANCH  22  31
ENDBRANCH   1  22
TORSDOF 7
ENDMDL
