MODEL 1
REMARK VINA RESULT:      -6.2      0.000      0.000
REMARK  Name = pdb/CHEMBL3671421.pdb
REMARK                            x       y       z     vdW  Elec       q    Type
REMARK                         _______ _______ _______ _____ _____    ______ ____
ROOT
ATOM      1  C   LIG    1      -33.908  71.555  29.182  0.00  0.00    +0.197 C 
ATOM      2  O   LIG    1      -33.933  70.966  30.275  0.00  0.00    -0.287 OA
ENDROOT
BRANCH   1  10
ATOM      3  N   LIG    1      -33.818  75.179  28.505  0.00  0.00    -0.323 N 
ATOM      4  C   LIG    1      -32.665  75.057  29.247  0.00  0.00    +0.147 A 
ATOM      5  N   LIG    1      -31.814  76.052  29.539  0.00  0.00    -0.197 NA
ATOM      6  C   LIG    1      -30.804  75.697  30.327  0.00  0.00    +0.214 A 
ATOM      7  N   LIG    1      -30.572  74.467  30.797  0.00  0.00    -0.222 NA
ATOM      8  C   LIG    1      -31.441  73.471  30.482  0.00  0.00    +0.126 A 
ATOM      9  C   LIG    1      -32.540  73.737  29.663  0.00  0.00    +0.048 A 
ATOM     10  C   LIG    1      -33.613  72.989  29.088  0.00  0.00    +0.051 A 
ATOM     11  C   LIG    1      -34.384  73.925  28.408  0.00  0.00    +0.100 A 
BRANCH   3  12
ATOM     12  C   LIG    1      -34.412  76.410  27.923  0.00  0.00    +0.065 C 
ATOM     13  C   LIG    1      -35.744  76.156  27.176  0.00  0.00    +0.036 C 
ATOM     14  C   LIG    1      -34.718  77.428  29.045  0.00  0.00    +0.036 C 
BRANCH  12  15
ATOM     15  C   LIG    1      -33.424  77.047  26.900  0.00  0.00    +0.187 C 
BRANCH  15  17
ATOM     16  C   LIG    1      -32.275  79.130  26.931  0.00  0.00    +0.194 C 
ATOM     17  O   LIG    1      -33.530  78.473  26.912  0.00  0.00    -0.381 OA
ENDBRANCH  15  17
ENDBRANCH  12  15
ENDBRANCH   3  12
BRANCH   6  18
ATOM     18  N   LIG    1      -29.908  76.695  30.660  0.00  0.00    -0.327 N 
ATOM     19  H   LIG    1      -29.040  76.554  30.161  0.00  0.00    +0.145 HD
ATOM     20  H   LIG    1      -29.858  76.794  31.663  0.00  0.00    +0.145 HD
ENDBRANCH   6  18
ENDBRANCH   1  10
BRANCH   1  21
ATOM     21  C   LIG    1      -34.175  70.773  27.940  0.00  0.00    +0.042 A 
ATOM     22  C   LIG    1      -35.225  71.104  27.061  0.00  0.00    +0.038 A 
ATOM     23  C   LIG    1      -35.448  70.348  25.897  0.00  0.00    +0.052 A 
ATOM     24  C   LIG    1      -34.587  69.273  25.675  0.00  0.00    +0.134 A 
ATOM     25  N   LIG    1      -33.584  68.906  26.515  0.00  0.00    -0.261 NA
ATOM     26  C   LIG    1      -33.414  69.651  27.628  0.00  0.00    +0.122 A 
BRANCH  23  27
ATOM     27  N   LIG    1      -36.514  70.714  25.031  0.00  0.00    -0.284 N 
ATOM     28  H   LIG    1      -36.261  71.211  24.184  0.00  0.00    +0.155 HD
ATOM     29  C   LIG    1      -37.864  70.424  25.209  0.00  0.00    +0.223 C 
ATOM     30  O   LIG    1      -38.338  69.803  26.160  0.00  0.00    -0.275 OA
BRANCH  29  31
ATOM     31  C   LIG    1      -38.779  70.951  24.115  0.00  0.00    +0.151 C 
BRANCH  31  32
ATOM     32  C   LIG    1      -39.080  72.418  24.278  0.00  0.00    +0.050 A 
ATOM     33  N   LIG    1      -38.107  73.180  24.839  0.00  0.00    -0.258 NA
ATOM     34  C   LIG    1      -38.351  74.512  24.953  0.00  0.00    +0.131 A 
ATOM     35  C   LIG    1      -39.517  75.127  24.523  0.00  0.00    +0.059 A 
ATOM     36 CL   LIG    1      -39.719  76.826  24.652  0.00  0.00    -0.082 Cl
ATOM     37  C   LIG    1      -40.511  74.333  23.971  0.00  0.00    +0.023 A 
ATOM     38  C   LIG    1      -40.298  72.957  23.854  0.00  0.00    +0.025 A 
ENDBRANCH  31  32
ENDBRANCH  29  31
ENDBRANCH  23  27
ENDBRANCH   1  21
TORSDOF 9
ENDMDL
MODEL 2
REMARK VINA RESULT:      -6.1     10.479     15.715
REMARK  Name = pdb/CHEMBL3671421.pdb
REMARK                            x       y       z     vdW  Elec       q    Type
REMARK                         _______ _______ _______ _____ _____    ______ ____
ROOT
ATOM      1  C   LIG    1      -21.695  76.425  29.839  0.00  0.00    +0.197 C 
ATOM      2  O   LIG    1      -21.579  76.462  28.604  0.00  0.00    -0.287 OA
ENDROOT
BRANCH   1  10
ATOM      3  N   LIG    1      -24.209  74.330  31.539  0.00  0.00    -0.323 N 
ATOM      4  C   LIG    1      -24.964  75.461  31.323  0.00  0.00    +0.147 A 
ATOM      5  N   LIG    1      -26.255  75.615  31.653  0.00  0.00    -0.197 NA
ATOM      6  C   LIG    1      -26.746  76.823  31.400  0.00  0.00    +0.214 A 
ATOM      7  N   LIG    1      -26.081  77.837  30.833  0.00  0.00    -0.222 NA
ATOM      8  C   LIG    1      -24.777  77.657  30.498  0.00  0.00    +0.126 A 
ATOM      9  C   LIG    1      -24.161  76.425  30.725  0.00  0.00    +0.048 A 
ATOM     10  C   LIG    1      -22.878  75.844  30.483  0.00  0.00    +0.051 A 
ATOM     11  C   LIG    1      -22.950  74.566  31.026  0.00  0.00    +0.100 A 
BRANCH   3  12
ATOM     12  C   LIG    1      -24.608  73.075  32.225  0.00  0.00    +0.065 C 
ATOM     13  C   LIG    1      -23.469  72.030  32.307  0.00  0.00    +0.036 C 
ATOM     14  C   LIG    1      -25.036  73.381  33.678  0.00  0.00    +0.036 C 
BRANCH  12  15
ATOM     15  C   LIG    1      -25.794  72.406  31.465  0.00  0.00    +0.187 C 
BRANCH  15  17
ATOM     16  C   LIG    1      -26.191  70.393  30.262  0.00  0.00    +0.194 C 
ATOM     17  O   LIG    1      -25.313  71.481  30.486  0.00  0.00    -0.381 OA
ENDBRANCH  15  17
ENDBRANCH  12  15
ENDBRANCH   3  12
BRANCH   6  18
ATOM     18  N   LIG    1      -28.071  77.027  31.734  0.00  0.00    -0.327 N 
ATOM     19  H   LIG    1      -28.417  76.235  32.257  0.00  0.00    +0.145 HD
ATOM     20  H   LIG    1      -28.593  77.309  30.917  0.00  0.00    +0.145 HD
ENDBRANCH   6  18
ENDBRANCH   1  10
BRANCH   1  21
ATOM     21  C   LIG    1      -20.593  76.978  30.680  0.00  0.00    +0.042 A 
ATOM     22  C   LIG    1      -20.838  77.889  31.726  0.00  0.00    +0.038 A 
ATOM     23  C   LIG    1      -19.778  78.389  32.501  0.00  0.00    +0.052 A 
ATOM     24  C   LIG    1      -18.498  77.940  32.175  0.00  0.00    +0.134 A 
ATOM     25  N   LIG    1      -18.220  77.087  31.154  0.00  0.00    -0.261 NA
ATOM     26  C   LIG    1      -19.267  76.642  30.426  0.00  0.00    +0.122 A 
BRANCH  23  27
ATOM     27  N   LIG    1      -20.063  79.304  33.552  0.00  0.00    -0.284 N 
ATOM     28  H   LIG    1      -20.335  80.241  33.275  0.00  0.00    +0.155 HD
ATOM     29  C   LIG    1      -20.043  79.033  34.916  0.00  0.00    +0.223 C 
ATOM     30  O   LIG    1      -19.767  77.945  35.421  0.00  0.00    -0.275 OA
BRANCH  29  31
ATOM     31  C   LIG    1      -20.388  80.216  35.807  0.00  0.00    +0.151 C 
BRANCH  31  32
ATOM     32  C   LIG    1      -21.862  80.294  36.108  0.00  0.00    +0.050 A 
ATOM     33  N   LIG    1      -22.707  80.151  35.055  0.00  0.00    -0.258 NA
ATOM     34  C   LIG    1      -24.039  80.177  35.320  0.00  0.00    +0.131 A 
ATOM     35  C   LIG    1      -24.575  80.326  36.590  0.00  0.00    +0.059 A 
ATOM     36 CL   LIG    1      -26.272  80.289  36.843  0.00  0.00    -0.082 Cl
ATOM     37  C   LIG    1      -23.701  80.492  37.654  0.00  0.00    +0.023 A 
ATOM     38  C   LIG    1      -22.324  80.486  37.412  0.00  0.00    +0.025 A 
ENDBRANCH  31  32
ENDBRANCH  29  31
ENDBRANCH  23  27
ENDBRANCH   1  21
TORSDOF 9
ENDMDL
MODEL 3
REMARK VINA RESULT:      -6.0      3.452      5.251
REMARK  Name = pdb/CHEMBL3671421.pdb
REMARK                            x       y       z     vdW  Elec       q    Type
REMARK                         _______ _______ _______ _____ _____    ______ ____
ROOT
ATOM      1  C   LIG    1      -34.770  72.543  29.057  0.00  0.00    +0.197 C 
ATOM      2  O   LIG    1      -35.059  72.324  30.244  0.00  0.00    -0.287 OA
ENDROOT
BRANCH   1  10
ATOM      3  N   LIG    1      -33.975  75.990  28.015  0.00  0.00    -0.323 N 
ATOM      4  C   LIG    1      -35.250  75.888  27.508  0.00  0.00    +0.147 A 
ATOM      5  N   LIG    1      -35.917  76.859  26.866  0.00  0.00    -0.197 NA
ATOM      6  C   LIG    1      -37.112  76.496  26.413  0.00  0.00    +0.214 A 
ATOM      7  N   LIG    1      -37.682  75.297  26.575  0.00  0.00    -0.222 NA
ATOM      8  C   LIG    1      -36.993  74.330  27.236  0.00  0.00    +0.126 A 
ATOM      9  C   LIG    1      -35.724  74.604  27.750  0.00  0.00    +0.048 A 
ATOM     10  C   LIG    1      -34.738  73.905  28.512  0.00  0.00    +0.051 A 
ATOM     11  C   LIG    1      -33.672  74.790  28.625  0.00  0.00    +0.100 A 
BRANCH   3  12
ATOM     12  C   LIG    1      -33.037  77.138  27.922  0.00  0.00    +0.065 C 
ATOM     13  C   LIG    1      -31.756  76.957  28.773  0.00  0.00    +0.036 C 
ATOM     14  C   LIG    1      -32.576  77.324  26.458  0.00  0.00    +0.036 C 
BRANCH  12  15
ATOM     15  C   LIG    1      -33.737  78.441  28.415  0.00  0.00    +0.187 C 
BRANCH  15  17
ATOM     16  C   LIG    1      -34.476  80.599  27.740  0.00  0.00    +0.194 C 
ATOM     17  O   LIG    1      -33.880  79.378  27.343  0.00  0.00    -0.381 OA
ENDBRANCH  15  17
ENDBRANCH  12  15
ENDBRANCH   3  12
BRANCH   6  18
ATOM     18  N   LIG    1      -37.830  77.465  25.738  0.00  0.00    -0.327 N 
ATOM     19  H   LIG    1      -38.499  77.026  25.119  0.00  0.00    +0.145 HD
ATOM     20  H   LIG    1      -37.201  78.144  25.335  0.00  0.00    +0.145 HD
ENDBRANCH   6  18
ENDBRANCH   1  10
BRANCH   1  21
ATOM     21  C   LIG    1      -34.437  71.387  28.175  0.00  0.00    +0.042 A 
ATOM     22  C   LIG    1      -35.107  71.160  26.957  0.00  0.00    +0.038 A 
ATOM     23  C   LIG    1      -34.767  70.063  26.147  0.00  0.00    +0.052 A 
ATOM     24  C   LIG    1      -33.750  69.230  26.616  0.00  0.00    +0.134 A 
ATOM     25  N   LIG    1      -33.103  69.400  27.799  0.00  0.00    -0.261 NA
ATOM     26  C   LIG    1      -33.471  70.459  28.552  0.00  0.00    +0.122 A 
BRANCH  23  27
ATOM     27  N   LIG    1      -35.462  69.867  24.923  0.00  0.00    -0.284 N 
ATOM     28  H   LIG    1      -35.059  70.298  24.098  0.00  0.00    +0.155 HD
ATOM     29  C   LIG    1      -36.617  69.113  24.735  0.00  0.00    +0.223 C 
ATOM     30  O   LIG    1      -37.216  68.500  25.618  0.00  0.00    -0.275 OA
BRANCH  29  31
ATOM     31  C   LIG    1      -37.140  69.090  23.308  0.00  0.00    +0.151 C 
BRANCH  31  32
ATOM     32  C   LIG    1      -36.324  68.191  22.415  0.00  0.00    +0.050 A 
ATOM     33  N   LIG    1      -35.111  67.805  22.886  0.00  0.00    -0.258 NA
ATOM     34  C   LIG    1      -34.384  66.960  22.107  0.00  0.00    +0.131 A 
ATOM     35  C   LIG    1      -34.813  66.470  20.885  0.00  0.00    +0.059 A 
ATOM     36 CL   LIG    1      -33.855  65.359  19.993  0.00  0.00    -0.082 Cl
ATOM     37  C   LIG    1      -36.046  66.888  20.407  0.00  0.00    +0.023 A 
ATOM     38  C   LIG    1      -36.811  67.769  21.175  0.00  0.00    +0.025 A 
ENDBRANCH  31  32
ENDBRANCH  29  31
ENDBRANCH  23  27
ENDBRANCH   1  21
TORSDOF 9
ENDMDL
MODEL 4
REMARK VINA RESULT:      -5.9      8.374     11.501
REMARK  Name = pdb/CHEMBL3671421.pdb
REMARK                            x       y       z     vdW  Elec       q    Type
REMARK                         _______ _______ _______ _____ _____    ______ ____
ROOT
ATOM      1  C   LIG    1      -39.511  83.781  22.162  0.00  0.00    +0.197 C 
ATOM      2  O   LIG    1      -39.558  83.851  20.923  0.00  0.00    -0.287 OA
ENDROOT
BRANCH   1  10
ATOM      3  N   LIG    1      -38.339  86.854  23.827  0.00  0.00    -0.323 N 
ATOM      4  C   LIG    1      -37.456  85.950  24.372  0.00  0.00    +0.147 A 
ATOM      5  N   LIG    1      -36.466  86.242  25.229  0.00  0.00    -0.197 NA
ATOM      6  C   LIG    1      -35.788  85.185  25.665  0.00  0.00    +0.214 A 
ATOM      7  N   LIG    1      -35.993  83.916  25.297  0.00  0.00    -0.222 NA
ATOM      8  C   LIG    1      -36.995  83.643  24.420  0.00  0.00    +0.126 A 
ATOM      9  C   LIG    1      -37.773  84.681  23.904  0.00  0.00    +0.048 A 
ATOM     10  C   LIG    1      -38.842  84.810  22.965  0.00  0.00    +0.051 A 
ATOM     11  C   LIG    1      -39.172  86.161  22.975  0.00  0.00    +0.100 A 
BRANCH   3  12
ATOM     12  C   LIG    1      -38.448  88.311  24.098  0.00  0.00    +0.065 C 
ATOM     13  C   LIG    1      -39.628  88.987  23.359  0.00  0.00    +0.036 C 
ATOM     14  C   LIG    1      -38.673  88.551  25.608  0.00  0.00    +0.036 C 
BRANCH  12  15
ATOM     15  C   LIG    1      -37.144  89.037  23.646  0.00  0.00    +0.187 C 
BRANCH  15  17
ATOM     16  C   LIG    1      -36.639  89.638  21.401  0.00  0.00    +0.194 C 
ATOM     17  O   LIG    1      -36.738  88.591  22.349  0.00  0.00    -0.381 OA
ENDBRANCH  15  17
ENDBRANCH  12  15
ENDBRANCH   3  12
BRANCH   6  18
ATOM     18  N   LIG    1      -34.765  85.441  26.558  0.00  0.00    -0.327 N 
ATOM     19  H   LIG    1      -33.893  85.087  26.188  0.00  0.00    +0.145 HD
ATOM     20  H   LIG    1      -35.032  85.142  27.484  0.00  0.00    +0.145 HD
ENDBRANCH   6  18
ENDBRANCH   1  10
BRANCH   1  21
ATOM     21  C   LIG    1      -40.164  82.623  22.840  0.00  0.00    +0.042 A 
ATOM     22  C   LIG    1      -39.547  81.358  22.915  0.00  0.00    +0.038 A 
ATOM     23  C   LIG    1      -40.188  80.289  23.564  0.00  0.00    +0.052 A 
ATOM     24  C   LIG    1      -41.444  80.550  24.111  0.00  0.00    +0.134 A 
ATOM     25  N   LIG    1      -42.082  81.747  24.031  0.00  0.00    -0.261 NA
ATOM     26  C   LIG    1      -41.437  82.744  23.387  0.00  0.00    +0.122 A 
BRANCH  23  27
ATOM     27  N   LIG    1      -39.534  79.027  23.624  0.00  0.00    -0.284 N 
ATOM     28  H   LIG    1      -39.287  78.602  22.736  0.00  0.00    +0.155 HD
ATOM     29  C   LIG    1      -39.166  78.337  24.774  0.00  0.00    +0.223 C 
ATOM     30  O   LIG    1      -39.360  78.724  25.927  0.00  0.00    -0.275 OA
BRANCH  29  31
ATOM     31  C   LIG    1      -38.482  77.002  24.527  0.00  0.00    +0.151 C 
BRANCH  31  32
ATOM     32  C   LIG    1      -39.468  75.902  24.228  0.00  0.00    +0.050 A 
ATOM     33  N   LIG    1      -40.654  76.279  23.686  0.00  0.00    -0.258 NA
ATOM     34  C   LIG    1      -41.534  75.291  23.372  0.00  0.00    +0.131 A 
ATOM     35  C   LIG    1      -41.285  73.941  23.562  0.00  0.00    +0.059 A 
ATOM     36 CL   LIG    1      -42.430  72.756  23.083  0.00  0.00    -0.082 Cl
ATOM     37  C   LIG    1      -40.077  73.572  24.135  0.00  0.00    +0.023 A 
ATOM     38  C   LIG    1      -39.157  74.564  24.484  0.00  0.00    +0.025 A 
ENDBRANCH  31  32
ENDBRANCH  29  31
ENDBRANCH  23  27
ENDBRANCH   1  21
TORSDOF 9
ENDMDL
MODEL 5
REMARK VINA RESULT:      -5.9      2.843      3.811
REMARK  Name = pdb/CHEMBL3671421.pdb
REMARK                            x       y       z     vdW  Elec       q    Type
REMARK                         _______ _______ _______ _____ _____    ______ ____
ROOT
ATOM      1  C   LIG    1      -34.129  72.280  29.588  0.00  0.00    +0.197 C 
ATOM      2  O   LIG    1      -34.653  71.951  30.664  0.00  0.00    -0.287 OA
ENDROOT
BRANCH   1  10
ATOM      3  N   LIG    1      -33.364  75.740  28.568  0.00  0.00    -0.323 N 
ATOM      4  C   LIG    1      -32.303  75.513  29.415  0.00  0.00    +0.147 A 
ATOM      5  N   LIG    1      -31.314  76.380  29.680  0.00  0.00    -0.197 NA
ATOM      6  C   LIG    1      -30.438  75.953  30.583  0.00  0.00    +0.214 A 
ATOM      7  N   LIG    1      -30.455  74.761  31.190  0.00  0.00    -0.222 NA
ATOM      8  C   LIG    1      -31.461  73.894  30.900  0.00  0.00    +0.126 A 
ATOM      9  C   LIG    1      -32.438  74.246  29.968  0.00  0.00    +0.048 A 
ATOM     10  C   LIG    1      -33.583  73.626  29.379  0.00  0.00    +0.051 A 
ATOM     11  C   LIG    1      -34.132  74.595  28.547  0.00  0.00    +0.100 A 
BRANCH   3  12
ATOM     12  C   LIG    1      -33.695  76.980  27.819  0.00  0.00    +0.065 C 
ATOM     13  C   LIG    1      -33.854  78.223  28.727  0.00  0.00    +0.036 C 
ATOM     14  C   LIG    1      -32.567  77.304  26.813  0.00  0.00    +0.036 C 
BRANCH  12  15
ATOM     15  C   LIG    1      -35.039  76.796  27.050  0.00  0.00    +0.187 C 
BRANCH  15  17
ATOM     16  C   LIG    1      -37.274  77.587  27.248  0.00  0.00    +0.194 C 
ATOM     17  O   LIG    1      -35.898  77.922  27.252  0.00  0.00    -0.381 OA
ENDBRANCH  15  17
ENDBRANCH  12  15
ENDBRANCH   3  12
BRANCH   6  18
ATOM     18  N   LIG    1      -29.406  76.820  30.891  0.00  0.00    -0.327 N 
ATOM     19  H   LIG    1      -29.266  76.840  31.892  0.00  0.00    +0.145 HD
ATOM     20  H   LIG    1      -29.545  77.703  30.422  0.00  0.00    +0.145 HD
ENDBRANCH   6  18
ENDBRANCH   1  10
BRANCH   1  21
ATOM     21  C   LIG    1      -34.046  71.271  28.492  0.00  0.00    +0.042 A 
ATOM     22  C   LIG    1      -34.868  71.341  27.351  0.00  0.00    +0.038 A 
ATOM     23  C   LIG    1      -34.764  70.376  26.334  0.00  0.00    +0.052 A 
ATOM     24  C   LIG    1      -33.820  69.367  26.525  0.00  0.00    +0.134 A 
ATOM     25  N   LIG    1      -33.032  69.249  27.625  0.00  0.00    -0.261 NA
ATOM     26  C   LIG    1      -33.175  70.190  28.584  0.00  0.00    +0.122 A 
BRANCH  23  27
ATOM     27  N   LIG    1      -35.608  70.480  25.195  0.00  0.00    -0.284 N 
ATOM     28  H   LIG    1      -35.216  70.942  24.381  0.00  0.00    +0.155 HD
ATOM     29  C   LIG    1      -36.900  69.980  25.070  0.00  0.00    +0.223 C 
ATOM     30  O   LIG    1      -37.512  69.368  25.945  0.00  0.00    -0.275 OA
BRANCH  29  31
ATOM     31  C   LIG    1      -37.563  70.249  23.728  0.00  0.00    +0.151 C 
BRANCH  31  32
ATOM     32  C   LIG    1      -37.204  69.212  22.696  0.00  0.00    +0.050 A 
ATOM     33  N   LIG    1      -36.086  68.479  22.932  0.00  0.00    -0.258 NA
ATOM     34  C   LIG    1      -35.777  67.512  22.029  0.00  0.00    +0.131 A 
ATOM     35  C   LIG    1      -36.535  67.230  20.904  0.00  0.00    +0.059 A 
ATOM     36 CL   LIG    1      -36.102  65.950  19.845  0.00  0.00    -0.082 Cl
ATOM     37  C   LIG    1      -37.663  68.000  20.664  0.00  0.00    +0.023 A 
ATOM     38  C   LIG    1      -38.001  69.013  21.565  0.00  0.00    +0.025 A 
ENDBRANCH  31  32
ENDBRANCH  29  31
ENDBRANCH  23  27
ENDBRANCH   1  21
TORSDOF 9
ENDMDL
MODEL 6
REMARK VINA RESULT:      -5.9      2.914      8.298
REMARK  Name = pdb/CHEMBL3671421.pdb
REMARK                            x       y       z     vdW  Elec       q    Type
REMARK                         _______ _______ _______ _____ _____    ______ ____
ROOT
ATOM      1  C   LIG    1      -39.370  71.588  24.273  0.00  0.00    +0.197 C 
ATOM      2  O   LIG    1      -40.422  71.105  23.824  0.00  0.00    -0.287 OA
ENDROOT
BRANCH   1  10
ATOM      3  N   LIG    1      -36.659  69.771  25.990  0.00  0.00    -0.323 N 
ATOM      4  C   LIG    1      -36.482  69.290  24.712  0.00  0.00    +0.147 A 
ATOM      5  N   LIG    1      -35.527  68.431  24.325  0.00  0.00    -0.197 NA
ATOM      6  C   LIG    1      -35.603  68.064  23.051  0.00  0.00    +0.214 A 
ATOM      7  N   LIG    1      -36.503  68.498  22.162  0.00  0.00    -0.222 NA
ATOM      8  C   LIG    1      -37.457  69.375  22.572  0.00  0.00    +0.126 A 
ATOM      9  C   LIG    1      -37.471  69.823  23.894  0.00  0.00    +0.048 A 
ATOM     10  C   LIG    1      -38.243  70.738  24.674  0.00  0.00    +0.051 A 
ATOM     11  C   LIG    1      -37.722  70.650  25.960  0.00  0.00    +0.100 A 
BRANCH   3  12
ATOM     12  C   LIG    1      -35.902  69.419  27.219  0.00  0.00    +0.065 C 
ATOM     13  C   LIG    1      -36.351  70.217  28.467  0.00  0.00    +0.036 C 
ATOM     14  C   LIG    1      -36.103  67.923  27.551  0.00  0.00    +0.036 C 
BRANCH  12  15
ATOM     15  C   LIG    1      -34.384  69.705  27.011  0.00  0.00    +0.187 C 
BRANCH  15  17
ATOM     16  C   LIG    1      -32.744  69.156  28.644  0.00  0.00    +0.194 C 
ATOM     17  O   LIG    1      -33.759  70.060  28.248  0.00  0.00    -0.381 OA
ENDBRANCH  15  17
ENDBRANCH  12  15
ENDBRANCH   3  12
BRANCH   6  18
ATOM     18  N   LIG    1      -34.642  67.172  22.612  0.00  0.00    -0.327 N 
ATOM     19  H   LIG    1      -34.007  67.639  21.979  0.00  0.00    +0.145 HD
ATOM     20  H   LIG    1      -35.081  66.323  22.288  0.00  0.00    +0.145 HD
ENDBRANCH   6  18
ENDBRANCH   1  10
BRANCH   1  21
ATOM     21  C   LIG    1      -39.255  73.070  24.392  0.00  0.00    +0.042 A 
ATOM     22  C   LIG    1      -38.126  73.688  24.964  0.00  0.00    +0.038 A 
ATOM     23  C   LIG    1      -38.048  75.088  25.059  0.00  0.00    +0.052 A 
ATOM     24  C   LIG    1      -39.135  75.810  24.565  0.00  0.00    +0.134 A 
ATOM     25  N   LIG    1      -40.253  75.249  24.036  0.00  0.00    -0.261 NA
ATOM     26  C   LIG    1      -40.292  73.900  23.977  0.00  0.00    +0.122 A 
BRANCH  23  27
ATOM     27  N   LIG    1      -36.891  75.677  25.639  0.00  0.00    -0.284 N 
ATOM     28  H   LIG    1      -36.073  75.752  25.043  0.00  0.00    +0.155 HD
ATOM     29  C   LIG    1      -36.779  76.194  26.925  0.00  0.00    +0.223 C 
ATOM     30  O   LIG    1      -37.680  76.214  27.764  0.00  0.00    -0.275 OA
BRANCH  29  31
ATOM     31  C   LIG    1      -35.409  76.758  27.270  0.00  0.00    +0.151 C 
BRANCH  31  32
ATOM     32  C   LIG    1      -34.520  75.736  27.929  0.00  0.00    +0.050 A 
ATOM     33  N   LIG    1      -34.913  74.439  27.840  0.00  0.00    -0.258 NA
ATOM     34  C   LIG    1      -34.097  73.504  28.394  0.00  0.00    +0.131 A 
ATOM     35  C   LIG    1      -32.898  73.797  29.025  0.00  0.00    +0.059 A 
ATOM     36 CL   LIG    1      -31.899  72.548  29.646  0.00  0.00    -0.082 Cl
ATOM     37  C   LIG    1      -32.519  75.127  29.127  0.00  0.00    +0.023 A 
ATOM     38  C   LIG    1      -33.344  76.114  28.582  0.00  0.00    +0.025 A 
ENDBRANCH  31  32
ENDBRANCH  29  31
ENDBRANCH  23  27
ENDBRANCH   1  21
TORSDOF 9
ENDMDL
MODEL 7
REMARK VINA RESULT:      -5.8      8.418     13.876
REMARK  Name = pdb/CHEMBL3671421.pdb
REMARK                            x       y       z     vdW  Elec       q    Type
REMARK                         _______ _______ _______ _____ _____    ______ ____
ROOT
ATOM      1  C   LIG    1      -26.037  74.528  32.885  0.00  0.00    +0.197 C 
ATOM      2  O   LIG    1      -25.769  74.425  34.093  0.00  0.00    -0.287 OA
ENDROOT
BRANCH   1  10
ATOM      3  N   LIG    1      -28.777  72.539  31.425  0.00  0.00    -0.323 N 
ATOM      4  C   LIG    1      -27.705  71.760  31.049  0.00  0.00    +0.147 A 
ATOM      5  N   LIG    1      -27.777  70.603  30.375  0.00  0.00    -0.197 NA
ATOM      6  C   LIG    1      -26.598  70.070  30.073  0.00  0.00    +0.214 A 
ATOM      7  N   LIG    1      -25.403  70.567  30.410  0.00  0.00    -0.222 NA
ATOM      8  C   LIG    1      -25.353  71.736  31.101  0.00  0.00    +0.126 A 
ATOM      9  C   LIG    1      -26.535  72.383  31.465  0.00  0.00    +0.048 A 
ATOM     10  C   LIG    1      -26.894  73.553  32.202  0.00  0.00    +0.051 A 
ATOM     11  C   LIG    1      -28.281  73.619  32.125  0.00  0.00    +0.100 A 
BRANCH   3  12
ATOM     12  C   LIG    1      -30.217  72.327  31.128  0.00  0.00    +0.065 C 
ATOM     13  C   LIG    1      -30.473  71.718  29.728  0.00  0.00    +0.036 C 
ATOM     14  C   LIG    1      -30.829  71.350  32.157  0.00  0.00    +0.036 C 
BRANCH  12  15
ATOM     15  C   LIG    1      -30.979  73.686  31.186  0.00  0.00    +0.187 C 
BRANCH  15  17
ATOM     16  C   LIG    1      -31.538  75.601  29.889  0.00  0.00    +0.194 C 
ATOM     17  O   LIG    1      -31.112  74.250  29.878  0.00  0.00    -0.381 OA
ENDBRANCH  15  17
ENDBRANCH  12  15
ENDBRANCH   3  12
BRANCH   6  18
ATOM     18  N   LIG    1      -26.627  68.880  29.370  0.00  0.00    -0.327 N 
ATOM     19  H   LIG    1      -27.226  68.976  28.561  0.00  0.00    +0.145 HD
ATOM     20  H   LIG    1      -26.813  68.112  29.998  0.00  0.00    +0.145 HD
ENDBRANCH   6  18
ENDBRANCH   1  10
BRANCH   1  21
ATOM     21  C   LIG    1      -25.478  75.682  32.122  0.00  0.00    +0.042 A 
ATOM     22  C   LIG    1      -24.095  75.833  31.905  0.00  0.00    +0.038 A 
ATOM     23  C   LIG    1      -23.600  76.931  31.179  0.00  0.00    +0.052 A 
ATOM     24  C   LIG    1      -24.544  77.842  30.703  0.00  0.00    +0.134 A 
ATOM     25  N   LIG    1      -25.881  77.746  30.919  0.00  0.00    -0.261 NA
ATOM     26  C   LIG    1      -26.312  76.683  31.633  0.00  0.00    +0.122 A 
BRANCH  23  27
ATOM     27  N   LIG    1      -22.198  77.049  30.977  0.00  0.00    -0.284 N 
ATOM     28  H   LIG    1      -21.648  77.350  31.774  0.00  0.00    +0.155 HD
ATOM     29  C   LIG    1      -21.501  76.756  29.809  0.00  0.00    +0.223 C 
ATOM     30  O   LIG    1      -22.006  76.350  28.763  0.00  0.00    -0.275 OA
BRANCH  29  31
ATOM     31  C   LIG    1      -20.000  76.984  29.886  0.00  0.00    +0.151 C 
BRANCH  31  32
ATOM     32  C   LIG    1      -19.554  77.387  31.268  0.00  0.00    +0.050 A 
ATOM     33  N   LIG    1      -19.873  78.644  31.668  0.00  0.00    -0.258 NA
ATOM     34  C   LIG    1      -19.513  79.004  32.928  0.00  0.00    +0.131 A 
ATOM     35  C   LIG    1      -18.859  78.166  33.817  0.00  0.00    +0.059 A 
ATOM     36 CL   LIG    1      -18.493  78.683  35.413  0.00  0.00    -0.082 Cl
ATOM     37  C   LIG    1      -18.521  76.891  33.389  0.00  0.00    +0.023 A 
ATOM     38  C   LIG    1      -18.863  76.495  32.092  0.00  0.00    +0.025 A 
ENDBRANCH  31  32
ENDBRANCH  29  31
ENDBRANCH  23  27
ENDBRANCH   1  21
TORSDOF 9
ENDMDL
MODEL 8
REMARK VINA RESULT:      -5.7     18.931     22.873
REMARK  Name = pdb/CHEMBL3671421.pdb
REMARK                            x       y       z     vdW  Elec       q    Type
REMARK                         _______ _______ _______ _____ _____    ______ ____
ROOT
ATOM      1  C   LIG    1      -22.889  87.829  11.596  0.00  0.00    +0.197 C 
ATOM      2  O   LIG    1      -21.924  87.974  10.829  0.00  0.00    -0.287 OA
ENDROOT
BRANCH   1  10
ATOM      3  N   LIG    1      -26.298  87.575  10.216  0.00  0.00    -0.323 N 
ATOM      4  C   LIG    1      -26.312  88.892  10.616  0.00  0.00    +0.147 A 
ATOM      5  N   LIG    1      -27.333  89.748  10.456  0.00  0.00    -0.197 NA
ATOM      6  C   LIG    1      -27.130  90.949  10.985  0.00  0.00    +0.214 A 
ATOM      7  N   LIG    1      -26.016  91.355  11.606  0.00  0.00    -0.222 NA
ATOM      8  C   LIG    1      -24.991  90.475  11.750  0.00  0.00    +0.126 A 
ATOM      9  C   LIG    1      -25.102  89.183  11.234  0.00  0.00    +0.048 A 
ATOM     10  C   LIG    1      -24.269  88.026  11.141  0.00  0.00    +0.051 A 
ATOM     11  C   LIG    1      -25.060  87.057  10.532  0.00  0.00    +0.100 A 
BRANCH   3  12
ATOM     12  C   LIG    1      -27.395  86.792   9.591  0.00  0.00    +0.065 C 
ATOM     13  C   LIG    1      -28.735  86.888  10.360  0.00  0.00    +0.036 C 
ATOM     14  C   LIG    1      -27.664  87.311   8.161  0.00  0.00    +0.036 C 
BRANCH  12  15
ATOM     15  C   LIG    1      -27.005  85.283   9.531  0.00  0.00    +0.187 C 
BRANCH  15  17
ATOM     16  C   LIG    1      -26.605  83.901  11.425  0.00  0.00    +0.194 C 
ATOM     17  O   LIG    1      -27.571  84.568  10.633  0.00  0.00    -0.381 OA
ENDBRANCH  15  17
ENDBRANCH  12  15
ENDBRANCH   3  12
BRANCH   6  18
ATOM     18  N   LIG    1      -28.161  91.860  10.850  0.00  0.00    -0.327 N 
ATOM     19  H   LIG    1      -27.857  92.770  11.168  0.00  0.00    +0.145 HD
ATOM     20  H   LIG    1      -29.007  91.485  11.253  0.00  0.00    +0.145 HD
ENDBRANCH   6  18
ENDBRANCH   1  10
BRANCH   1  21
ATOM     21  C   LIG    1      -22.627  87.432  13.011  0.00  0.00    +0.042 A 
ATOM     22  C   LIG    1      -22.480  86.084  13.392  0.00  0.00    +0.038 A 
ATOM     23  C   LIG    1      -22.231  85.744  14.733  0.00  0.00    +0.052 A 
ATOM     24  C   LIG    1      -22.144  86.800  15.641  0.00  0.00    +0.134 A 
ATOM     25  N   LIG    1      -22.310  88.108  15.315  0.00  0.00    -0.261 NA
ATOM     26  C   LIG    1      -22.561  88.389  14.019  0.00  0.00    +0.122 A 
BRANCH  23  27
ATOM     27  N   LIG    1      -22.085  84.373  15.081  0.00  0.00    -0.284 N 
ATOM     28  H   LIG    1      -21.555  83.795  14.437  0.00  0.00    +0.155 HD
ATOM     29  C   LIG    1      -22.563  83.753  16.232  0.00  0.00    +0.223 C 
ATOM     30  O   LIG    1      -23.195  84.311  17.129  0.00  0.00    -0.275 OA
BRANCH  29  31
ATOM     31  C   LIG    1      -22.258  82.267  16.331  0.00  0.00    +0.151 C 
BRANCH  31  32
ATOM     32  C   LIG    1      -23.290  81.424  15.628  0.00  0.00    +0.050 A 
ATOM     33  N   LIG    1      -23.986  82.023  14.628  0.00  0.00    -0.258 NA
ATOM     34  C   LIG    1      -24.890  81.260  13.958  0.00  0.00    +0.131 A 
ATOM     35  C   LIG    1      -25.127  79.921  14.229  0.00  0.00    +0.059 A 
ATOM     36 CL   LIG    1      -26.246  79.016  13.294  0.00  0.00    -0.082 Cl
ATOM     37  C   LIG    1      -24.423  79.328  15.266  0.00  0.00    +0.023 A 
ATOM     38  C   LIG    1      -23.498  80.089  15.985  0.00  0.00    +0.025 A 
ENDBRANCH  31  32
ENDBRANCH  29  31
ENDBRANCH  23  27
ENDBRANCH   1  21
TORSDOF 9
ENDMDL
MODEL 9
REMARK VINA RESULT:      -5.7     16.099     18.473
REMARK  Name = pdb/CHEMBL3671421.pdb
REMARK                            x       y       z     vdW  Elec       q    Type
REMARK                         _______ _______ _______ _____ _____    ______ ____
ROOT
ATOM      1  C   LIG    1      -19.442  75.826  15.261  0.00  0.00    +0.197 C 
ATOM      2  O   LIG    1      -18.887  75.553  14.184  0.00  0.00    -0.287 OA
ENDROOT
BRANCH   1  10
ATOM      3  N   LIG    1      -21.160  73.144  17.119  0.00  0.00    -0.323 N 
ATOM      4  C   LIG    1      -20.058  73.311  17.927  0.00  0.00    +0.147 A 
ATOM      5  N   LIG    1      -19.816  72.645  19.066  0.00  0.00    -0.197 NA
ATOM      6  C   LIG    1      -18.650  72.937  19.634  0.00  0.00    +0.214 A 
ATOM      7  N   LIG    1      -17.762  73.832  19.187  0.00  0.00    -0.222 NA
ATOM      8  C   LIG    1      -18.031  74.502  18.036  0.00  0.00    +0.126 A 
ATOM      9  C   LIG    1      -19.227  74.267  17.355  0.00  0.00    +0.048 A 
ATOM     10  C   LIG    1      -19.876  74.777  16.189  0.00  0.00    +0.051 A 
ATOM     11  C   LIG    1      -21.047  74.036  16.072  0.00  0.00    +0.100 A 
BRANCH   3  12
ATOM     12  C   LIG    1      -22.276  72.175  17.273  0.00  0.00    +0.065 C 
ATOM     13  C   LIG    1      -21.812  70.698  17.274  0.00  0.00    +0.036 C 
ATOM     14  C   LIG    1      -23.001  72.415  18.616  0.00  0.00    +0.036 C 
BRANCH  12  15
ATOM     15  C   LIG    1      -23.289  72.339  16.099  0.00  0.00    +0.187 C 
BRANCH  15  17
ATOM     16  C   LIG    1      -25.658  72.508  15.953  0.00  0.00    +0.194 C 
ATOM     17  O   LIG    1      -24.472  73.013  16.540  0.00  0.00    -0.381 OA
ENDBRANCH  15  17
ENDBRANCH  12  15
ENDBRANCH   3  12
BRANCH   6  18
ATOM     18  N   LIG    1      -18.357  72.267  20.807  0.00  0.00    -0.327 N 
ATOM     19  H   LIG    1      -17.435  72.528  21.127  0.00  0.00    +0.145 HD
ATOM     20  H   LIG    1      -18.550  71.282  20.699  0.00  0.00    +0.145 HD
ENDBRANCH   6  18
ENDBRANCH   1  10
BRANCH   1  21
ATOM     21  C   LIG    1      -19.655  77.259  15.614  0.00  0.00    +0.042 A 
ATOM     22  C   LIG    1      -20.753  77.993  15.123  0.00  0.00    +0.038 A 
ATOM     23  C   LIG    1      -20.927  79.342  15.476  0.00  0.00    +0.052 A 
ATOM     24  C   LIG    1      -19.966  79.896  16.322  0.00  0.00    +0.134 A 
ATOM     25  N   LIG    1      -18.879  79.230  16.790  0.00  0.00    -0.261 NA
ATOM     26  C   LIG    1      -18.742  77.939  16.414  0.00  0.00    +0.122 A 
BRANCH  23  27
ATOM     27  N   LIG    1      -22.049  80.050  14.965  0.00  0.00    -0.284 N 
ATOM     28  H   LIG    1      -22.364  79.790  14.036  0.00  0.00    +0.155 HD
ATOM     29  C   LIG    1      -22.779  81.035  15.622  0.00  0.00    +0.223 C 
ATOM     30  O   LIG    1      -22.553  81.446  16.760  0.00  0.00    -0.275 OA
BRANCH  29  31
ATOM     31  C   LIG    1      -23.929  81.622  14.818  0.00  0.00    +0.151 C 
BRANCH  31  32
ATOM     32  C   LIG    1      -24.860  80.559  14.295  0.00  0.00    +0.050 A 
ATOM     33  N   LIG    1      -25.323  79.657  15.198  0.00  0.00    -0.258 NA
ATOM     34  C   LIG    1      -26.197  78.719  14.746  0.00  0.00    +0.131 A 
ATOM     35  C   LIG    1      -26.644  78.643  13.436  0.00  0.00    +0.059 A 
ATOM     36 CL   LIG    1      -27.795  77.461  12.963  0.00  0.00    -0.082 Cl
ATOM     37  C   LIG    1      -26.147  79.558  12.520  0.00  0.00    +0.023 A 
ATOM     38  C   LIG    1      -25.235  80.526  12.949  0.00  0.00    +0.025 A 
ENDBRANCH  31  32
ENDBRANCH  29  31
ENDBRANCH  23  27
ENDBRANCH   1  21
TORSDOF 9
ENDMDL
