MODEL 1
REMARK VINA RESULT:      -6.9      0.000      0.000
REMARK  Name = pdb/CHEMBL3582441.pdb
REMARK                            x       y       z     vdW  Elec       q    Type
REMARK                         _______ _______ _______ _____ _____    ______ ____
ROOT
ATOM      1  C   LIG    1      -34.104  75.898  27.921  0.00  0.00    +0.093 A 
ATOM      2  N   LIG    1      -35.285  75.203  27.678  0.00  0.00    -0.211 N 
ATOM      3  N   LIG    1      -36.390  75.684  27.026  0.00  0.00    -0.149 NA
ATOM      4  C   LIG    1      -37.410  74.867  26.942  0.00  0.00    +0.143 A 
ATOM      5  C   LIG    1      -37.355  73.486  27.531  0.00  0.00    +0.049 A 
ATOM      6  C   LIG    1      -36.242  73.076  28.148  0.00  0.00    +0.051 A 
ATOM      7  C   LIG    1      -35.138  73.946  28.231  0.00  0.00    +0.155 A 
ATOM      8  N   LIG    1      -33.950  73.777  28.767  0.00  0.00    -0.234 NA
ATOM      9  C   LIG    1      -33.307  74.972  28.576  0.00  0.00    +0.141 A 
ENDROOT
BRANCH   1  14
ATOM     10  C   LIG    1      -34.406  79.668  27.843  0.00  0.00    +0.122 A 
ATOM     11  N   LIG    1      -33.373  80.016  27.046  0.00  0.00    -0.240 NA
ATOM     12  C   LIG    1      -32.586  79.034  26.546  0.00  0.00    +0.113 A 
ATOM     13  C   LIG    1      -32.773  77.684  26.789  0.00  0.00    +0.030 A 
ATOM     14  C   LIG    1      -33.848  77.305  27.583  0.00  0.00    +0.007 A 
ATOM     15  C   LIG    1      -34.658  78.321  28.099  0.00  0.00    +0.053 A 
BRANCH  10  19
ATOM     16  N   LIG    1      -35.857  83.440  29.291  0.00  0.00    -0.290 NA
ATOM     17  C   LIG    1      -35.609  82.345  30.249  0.00  0.00    +0.104 C 
ATOM     18  C   LIG    1      -34.781  81.156  29.725  0.00  0.00    +0.122 C 
ATOM     19  N   LIG    1      -35.240  80.662  28.409  0.00  0.00    -0.313 N 
ATOM     20  C   LIG    1      -35.655  81.684  27.431  0.00  0.00    +0.122 C 
ATOM     21  C   LIG    1      -36.471  82.824  28.086  0.00  0.00    +0.104 C 
BRANCH  16  22
ATOM     22  C   LIG    1      -34.637  84.195  28.925  0.00  0.00    +0.205 C 
BRANCH  22  23
ATOM     23  C   LIG    1      -34.922  85.556  28.277  0.00  0.00    +0.319 C 
ATOM     24  O   LIG    1      -35.816  86.341  28.489  0.00  0.00    -0.250 OA
BRANCH  23  25
ATOM     25  O   LIG    1      -33.968  85.865  27.360  0.00  0.00    -0.480 OA
ATOM     26  H   LIG    1      -33.293  86.335  27.901  0.00  0.00    +0.295 HD
ENDBRANCH  23  25
ENDBRANCH  22  23
ENDBRANCH  16  22
ENDBRANCH  10  19
ENDBRANCH   1  14
BRANCH   4  27
ATOM     27  N   LIG    1      -38.555  75.320  26.302  0.00  0.00    -0.307 N 
ATOM     28  C   LIG    1      -38.800  75.278  24.859  0.00  0.00    +0.105 C 
ATOM     29  C   LIG    1      -39.753  76.457  24.617  0.00  0.00    +0.029 C 
ATOM     30  C   LIG    1      -40.572  76.508  25.894  0.00  0.00    +0.021 C 
ATOM     31  C   LIG    1      -39.535  76.189  26.969  0.00  0.00    +0.107 C 
BRANCH  28  32
ATOM     32  C   LIG    1      -39.386  73.946  24.414  0.00  0.00    -0.024 A 
ATOM     33  C   LIG    1      -38.699  72.729  24.565  0.00  0.00    +0.043 A 
ATOM     34  C   LIG    1      -39.273  71.536  24.141  0.00  0.00    +0.124 A 
ATOM     35  F   LIG    1      -38.596  70.390  24.291  0.00  0.00    -0.205 F 
ATOM     36  C   LIG    1      -40.535  71.513  23.563  0.00  0.00    +0.038 A 
ATOM     37  C   LIG    1      -41.236  72.707  23.408  0.00  0.00    +0.003 A 
ATOM     38  C   LIG    1      -40.668  73.913  23.833  0.00  0.00    +0.005 A 
ENDBRANCH  28  32
ENDBRANCH   4  27
TORSDOF 7
ENDMDL
MODEL 2
REMARK VINA RESULT:      -6.9     12.567     16.843
REMARK  Name = pdb/CHEMBL3582441.pdb
REMARK                            x       y       z     vdW  Elec       q    Type
REMARK                         _______ _______ _______ _____ _____    ______ ____
ROOT
ATOM      1  C   LIG    1      -23.567  77.491  31.284  0.00  0.00    +0.093 A 
ATOM      2  N   LIG    1      -22.200  77.229  31.272  0.00  0.00    -0.211 N 
ATOM      3  N   LIG    1      -21.379  77.151  32.365  0.00  0.00    -0.149 NA
ATOM      4  C   LIG    1      -20.112  76.932  32.119  0.00  0.00    +0.143 A 
ATOM      5  C   LIG    1      -19.604  76.777  30.713  0.00  0.00    +0.049 A 
ATOM      6  C   LIG    1      -20.462  76.856  29.691  0.00  0.00    +0.051 A 
ATOM      7  C   LIG    1      -21.827  77.080  29.950  0.00  0.00    +0.155 A 
ATOM      8  N   LIG    1      -22.850  77.186  29.131  0.00  0.00    -0.234 NA
ATOM      9  C   LIG    1      -23.925  77.434  29.946  0.00  0.00    +0.141 A 
ENDROOT
BRANCH   1  14
ATOM     10  C   LIG    1      -26.318  77.342  33.877  0.00  0.00    +0.122 A 
ATOM     11  N   LIG    1      -25.924  78.286  34.758  0.00  0.00    -0.240 NA
ATOM     12  C   LIG    1      -24.773  78.957  34.513  0.00  0.00    +0.113 A 
ATOM     13  C   LIG    1      -23.969  78.748  33.405  0.00  0.00    +0.030 A 
ATOM     14  C   LIG    1      -24.374  77.802  32.473  0.00  0.00    +0.007 A 
ATOM     15  C   LIG    1      -25.560  77.109  32.730  0.00  0.00    +0.053 A 
BRANCH  10  19
ATOM     16  N   LIG    1      -29.850  74.990  33.232  0.00  0.00    -0.290 NA
ATOM     17  C   LIG    1      -29.983  76.369  33.740  0.00  0.00    +0.104 C 
ATOM     18  C   LIG    1      -28.731  77.260  33.626  0.00  0.00    +0.122 C 
ATOM     19  N   LIG    1      -27.499  76.598  34.106  0.00  0.00    -0.313 N 
ATOM     20  C   LIG    1      -27.348  75.170  33.772  0.00  0.00    +0.122 C 
ATOM     21  C   LIG    1      -28.678  74.391  33.919  0.00  0.00    +0.104 C 
BRANCH  16  22
ATOM     22  C   LIG    1      -29.686  74.913  31.762  0.00  0.00    +0.205 C 
BRANCH  22  23
ATOM     23  C   LIG    1      -30.770  75.664  30.978  0.00  0.00    +0.319 C 
ATOM     24  O   LIG    1      -31.958  75.453  30.906  0.00  0.00    -0.250 OA
BRANCH  23  25
ATOM     25  O   LIG    1      -30.240  76.724  30.313  0.00  0.00    -0.480 OA
ATOM     26  H   LIG    1      -30.055  76.349  29.422  0.00  0.00    +0.295 HD
ENDBRANCH  23  25
ENDBRANCH  22  23
ENDBRANCH  16  22
ENDBRANCH  10  19
ENDBRANCH   1  14
BRANCH   4  27
ATOM     27  N   LIG    1      -19.243  76.861  33.198  0.00  0.00    -0.307 N 
ATOM     28  C   LIG    1      -18.367  77.940  33.661  0.00  0.00    +0.105 C 
ATOM     29  C   LIG    1      -17.193  77.200  34.316  0.00  0.00    +0.029 C 
ATOM     30  C   LIG    1      -17.846  75.957  34.895  0.00  0.00    +0.021 C 
ATOM     31  C   LIG    1      -18.864  75.584  33.820  0.00  0.00    +0.107 C 
BRANCH  28  32
ATOM     32  C   LIG    1      -19.076  78.885  34.620  0.00  0.00    -0.024 A 
ATOM     33  C   LIG    1      -20.274  79.541  34.288  0.00  0.00    +0.043 A 
ATOM     34  C   LIG    1      -20.885  80.399  35.196  0.00  0.00    +0.124 A 
ATOM     35  F   LIG    1      -22.023  81.017  34.853  0.00  0.00    -0.205 F 
ATOM     36  C   LIG    1      -20.335  80.627  36.449  0.00  0.00    +0.038 A 
ATOM     37  C   LIG    1      -19.151  79.983  36.802  0.00  0.00    +0.003 A 
ATOM     38  C   LIG    1      -18.528  79.116  35.896  0.00  0.00    +0.005 A 
ENDBRANCH  28  32
ENDBRANCH   4  27
TORSDOF 7
ENDMDL
MODEL 3
REMARK VINA RESULT:      -6.8     17.925     21.730
REMARK  Name = pdb/CHEMBL3582441.pdb
REMARK                            x       y       z     vdW  Elec       q    Type
REMARK                         _______ _______ _______ _____ _____    ______ ____
ROOT
ATOM      1  C   LIG    1      -19.544  82.261  14.236  0.00  0.00    +0.093 A 
ATOM      2  N   LIG    1      -19.471  83.612  13.908  0.00  0.00    -0.211 N 
ATOM      3  N   LIG    1      -20.454  84.546  14.096  0.00  0.00    -0.149 NA
ATOM      4  C   LIG    1      -20.185  85.758  13.678  0.00  0.00    +0.143 A 
ATOM      5  C   LIG    1      -18.869  86.087  13.032  0.00  0.00    +0.049 A 
ATOM      6  C   LIG    1      -17.948  85.128  12.887  0.00  0.00    +0.051 A 
ATOM      7  C   LIG    1      -18.228  83.826  13.345  0.00  0.00    +0.155 A 
ATOM      8  N   LIG    1      -17.497  82.734  13.327  0.00  0.00    -0.234 NA
ATOM      9  C   LIG    1      -18.299  81.768  13.877  0.00  0.00    +0.141 A 
ENDROOT
BRANCH   1  14
ATOM     10  C   LIG    1      -22.770  80.294  14.417  0.00  0.00    +0.122 A 
ATOM     11  N   LIG    1      -22.948  80.170  15.750  0.00  0.00    -0.240 NA
ATOM     12  C   LIG    1      -22.026  80.715  16.577  0.00  0.00    +0.113 A 
ATOM     13  C   LIG    1      -20.905  81.407  16.149  0.00  0.00    +0.030 A 
ATOM     14  C   LIG    1      -20.721  81.570  14.782  0.00  0.00    +0.007 A 
ATOM     15  C   LIG    1      -21.673  81.004  13.930  0.00  0.00    +0.053 A 
BRANCH  10  19
ATOM     16  N   LIG    1      -26.091  78.084  12.832  0.00  0.00    -0.290 NA
ATOM     17  C   LIG    1      -24.718  77.624  12.552  0.00  0.00    +0.104 C 
ATOM     18  C   LIG    1      -23.602  78.245  13.415  0.00  0.00    +0.122 C 
ATOM     19  N   LIG    1      -23.695  79.717  13.515  0.00  0.00    -0.313 N 
ATOM     20  C   LIG    1      -25.050  80.283  13.646  0.00  0.00    +0.122 C 
ATOM     21  C   LIG    1      -26.074  79.566  12.735  0.00  0.00    +0.104 C 
BRANCH  16  22
ATOM     22  C   LIG    1      -26.602  77.655  14.154  0.00  0.00    +0.205 C 
BRANCH  22  23
ATOM     23  C   LIG    1      -27.546  76.447  14.092  0.00  0.00    +0.319 C 
ATOM     24  O   LIG    1      -27.375  75.313  14.470  0.00  0.00    -0.250 OA
BRANCH  23  25
ATOM     25  O   LIG    1      -28.739  76.794  13.540  0.00  0.00    -0.480 OA
ATOM     26  H   LIG    1      -28.977  77.609  14.037  0.00  0.00    +0.295 HD
ENDBRANCH  23  25
ENDBRANCH  22  23
ENDBRANCH  16  22
ENDBRANCH  10  19
ENDBRANCH   1  14
BRANCH   4  27
ATOM     27  N   LIG    1      -21.161  86.732  13.834  0.00  0.00    -0.307 N 
ATOM     28  C   LIG    1      -21.817  87.464  12.749  0.00  0.00    +0.105 C 
ATOM     29  C   LIG    1      -22.201  88.803  13.394  0.00  0.00    +0.029 C 
ATOM     30  C   LIG    1      -22.500  88.422  14.833  0.00  0.00    +0.021 C 
ATOM     31  C   LIG    1      -21.430  87.373  15.129  0.00  0.00    +0.107 C 
BRANCH  28  32
ATOM     32  C   LIG    1      -23.018  86.713  12.192  0.00  0.00    -0.024 A 
ATOM     33  C   LIG    1      -23.197  85.331  12.376  0.00  0.00    +0.043 A 
ATOM     34  C   LIG    1      -24.309  84.686  11.846  0.00  0.00    +0.124 A 
ATOM     35  F   LIG    1      -24.453  83.367  12.030  0.00  0.00    -0.205 F 
ATOM     36  C   LIG    1      -25.269  85.385  11.129  0.00  0.00    +0.038 A 
ATOM     37  C   LIG    1      -25.115  86.756  10.939  0.00  0.00    +0.003 A 
ATOM     38  C   LIG    1      -24.000  87.417  11.470  0.00  0.00    +0.005 A 
ENDBRANCH  28  32
ENDBRANCH   4  27
TORSDOF 7
ENDMDL
MODEL 4
REMARK VINA RESULT:      -6.8      2.495      3.703
REMARK  Name = pdb/CHEMBL3582441.pdb
REMARK                            x       y       z     vdW  Elec       q    Type
REMARK                         _______ _______ _______ _____ _____    ______ ____
ROOT
ATOM      1  C   LIG    1      -32.066  76.159  28.927  0.00  0.00    +0.093 A 
ATOM      2  N   LIG    1      -32.652  74.898  28.981  0.00  0.00    -0.211 N 
ATOM      3  N   LIG    1      -33.726  74.471  28.246  0.00  0.00    -0.149 NA
ATOM      4  C   LIG    1      -34.139  73.252  28.484  0.00  0.00    +0.143 A 
ATOM      5  C   LIG    1      -33.462  72.384  29.508  0.00  0.00    +0.049 A 
ATOM      6  C   LIG    1      -32.412  72.861  30.185  0.00  0.00    +0.051 A 
ATOM      7  C   LIG    1      -31.957  74.167  29.925  0.00  0.00    +0.155 A 
ATOM      8  N   LIG    1      -30.958  74.847  30.441  0.00  0.00    -0.234 NA
ATOM      9  C   LIG    1      -31.016  76.072  29.829  0.00  0.00    +0.141 A 
ENDROOT
BRANCH   1  14
ATOM     10  C   LIG    1      -33.910  79.301  27.909  0.00  0.00    +0.122 A 
ATOM     11  N   LIG    1      -33.421  79.524  26.670  0.00  0.00    -0.240 NA
ATOM     12  C   LIG    1      -32.498  78.665  26.177  0.00  0.00    +0.113 A 
ATOM     13  C   LIG    1      -32.023  77.556  26.856  0.00  0.00    +0.030 A 
ATOM     14  C   LIG    1      -32.536  77.294  28.120  0.00  0.00    +0.007 A 
ATOM     15  C   LIG    1      -33.487  78.184  28.628  0.00  0.00    +0.053 A 
BRANCH  10  19
ATOM     16  N   LIG    1      -35.689  82.769  29.709  0.00  0.00    -0.290 NA
ATOM     17  C   LIG    1      -35.604  81.516  30.483  0.00  0.00    +0.104 C 
ATOM     18  C   LIG    1      -34.667  80.430  29.921  0.00  0.00    +0.122 C 
ATOM     19  N   LIG    1      -34.857  80.187  28.475  0.00  0.00    -0.313 N 
ATOM     20  C   LIG    1      -35.100  81.375  27.636  0.00  0.00    +0.122 C 
ATOM     21  C   LIG    1      -36.049  82.389  28.319  0.00  0.00    +0.104 C 
BRANCH  16  22
ATOM     22  C   LIG    1      -34.438  83.560  29.724  0.00  0.00    +0.205 C 
BRANCH  22  23
ATOM     23  C   LIG    1      -34.619  85.013  29.262  0.00  0.00    +0.319 C 
ATOM     24  O   LIG    1      -35.507  85.795  29.502  0.00  0.00    -0.250 OA
BRANCH  23  25
ATOM     25  O   LIG    1      -33.568  85.411  28.497  0.00  0.00    -0.480 OA
ATOM     26  H   LIG    1      -32.950  84.648  28.566  0.00  0.00    +0.295 HD
ENDBRANCH  23  25
ENDBRANCH  22  23
ENDBRANCH  16  22
ENDBRANCH  10  19
ENDBRANCH   1  14
BRANCH   4  27
ATOM     27  N   LIG    1      -35.234  72.785  27.772  0.00  0.00    -0.307 N 
ATOM     28  C   LIG    1      -36.622  73.213  27.964  0.00  0.00    +0.105 C 
ATOM     29  C   LIG    1      -37.443  71.991  27.528  0.00  0.00    +0.029 C 
ATOM     30  C   LIG    1      -36.598  71.382  26.423  0.00  0.00    +0.021 C 
ATOM     31  C   LIG    1      -35.177  71.569  26.949  0.00  0.00    +0.107 C 
BRANCH  28  32
ATOM     32  C   LIG    1      -36.955  74.463  27.163  0.00  0.00    -0.024 A 
ATOM     33  C   LIG    1      -36.708  75.759  27.646  0.00  0.00    +0.043 A 
ATOM     34  C   LIG    1      -37.032  76.873  26.879  0.00  0.00    +0.124 A 
ATOM     35  F   LIG    1      -36.792  78.098  27.364  0.00  0.00    -0.205 F 
ATOM     36  C   LIG    1      -37.600  76.736  25.621  0.00  0.00    +0.038 A 
ATOM     37  C   LIG    1      -37.849  75.460  25.119  0.00  0.00    +0.003 A 
ATOM     38  C   LIG    1      -37.526  74.332  25.882  0.00  0.00    +0.005 A 
ENDBRANCH  28  32
ENDBRANCH   4  27
TORSDOF 7
ENDMDL
MODEL 5
REMARK VINA RESULT:      -6.7      7.993     12.344
REMARK  Name = pdb/CHEMBL3582441.pdb
REMARK                            x       y       z     vdW  Elec       q    Type
REMARK                         _______ _______ _______ _____ _____    ______ ____
ROOT
ATOM      1  C   LIG    1      -28.015  73.076  32.041  0.00  0.00    +0.093 A 
ATOM      2  N   LIG    1      -26.692  73.260  31.652  0.00  0.00    -0.211 N 
ATOM      3  N   LIG    1      -26.050  74.461  31.502  0.00  0.00    -0.149 NA
ATOM      4  C   LIG    1      -24.809  74.404  31.088  0.00  0.00    +0.143 A 
ATOM      5  C   LIG    1      -24.142  73.089  30.800  0.00  0.00    +0.049 A 
ATOM      6  C   LIG    1      -24.824  71.952  30.976  0.00  0.00    +0.051 A 
ATOM      7  C   LIG    1      -26.154  72.007  31.431  0.00  0.00    +0.155 A 
ATOM      8  N   LIG    1      -27.015  71.047  31.687  0.00  0.00    -0.234 NA
ATOM      9  C   LIG    1      -28.160  71.697  32.067  0.00  0.00    +0.141 A 
ENDROOT
BRANCH   1  14
ATOM     10  C   LIG    1      -31.056  75.296  31.685  0.00  0.00    +0.122 A 
ATOM     11  N   LIG    1      -30.944  76.101  32.763  0.00  0.00    -0.240 NA
ATOM     12  C   LIG    1      -29.894  75.918  33.597  0.00  0.00    +0.113 A 
ATOM     13  C   LIG    1      -28.911  74.960  33.416  0.00  0.00    +0.030 A 
ATOM     14  C   LIG    1      -28.994  74.141  32.297  0.00  0.00    +0.007 A 
ATOM     15  C   LIG    1      -30.081  74.331  31.439  0.00  0.00    +0.053 A 
BRANCH  10  19
ATOM     16  N   LIG    1      -33.485  76.478  28.348  0.00  0.00    -0.290 NA
ATOM     17  C   LIG    1      -33.829  76.961  29.699  0.00  0.00    +0.104 C 
ATOM     18  C   LIG    1      -32.745  76.788  30.781  0.00  0.00    +0.122 C 
ATOM     19  N   LIG    1      -32.152  75.434  30.800  0.00  0.00    -0.313 N 
ATOM     20  C   LIG    1      -31.909  74.805  29.488  0.00  0.00    +0.122 C 
ATOM     21  C   LIG    1      -33.067  75.060  28.494  0.00  0.00    +0.104 C 
BRANCH  16  22
ATOM     22  C   LIG    1      -32.421  77.269  27.690  0.00  0.00    +0.205 C 
BRANCH  22  23
ATOM     23  C   LIG    1      -32.943  78.487  26.917  0.00  0.00    +0.319 C 
ATOM     24  O   LIG    1      -33.806  79.279  27.213  0.00  0.00    -0.250 OA
BRANCH  23  25
ATOM     25  O   LIG    1      -32.264  78.647  25.750  0.00  0.00    -0.480 OA
ATOM     26  H   LIG    1      -32.969  78.528  25.073  0.00  0.00    +0.295 HD
ENDBRANCH  23  25
ENDBRANCH  22  23
ENDBRANCH  16  22
ENDBRANCH  10  19
ENDBRANCH   1  14
BRANCH   4  27
ATOM     27  N   LIG    1      -24.128  75.599  30.908  0.00  0.00    -0.307 N 
ATOM     28  C   LIG    1      -24.736  76.931  30.872  0.00  0.00    +0.105 C 
ATOM     29  C   LIG    1      -23.782  77.742  29.984  0.00  0.00    +0.029 C 
ATOM     30  C   LIG    1      -22.424  77.135  30.289  0.00  0.00    +0.021 C 
ATOM     31  C   LIG    1      -22.745  75.648  30.415  0.00  0.00    +0.107 C 
BRANCH  28  32
ATOM     32  C   LIG    1      -24.897  77.527  32.262  0.00  0.00    -0.024 A 
ATOM     33  C   LIG    1      -25.965  77.190  33.111  0.00  0.00    +0.043 A 
ATOM     34  C   LIG    1      -26.073  77.762  34.374  0.00  0.00    +0.124 A 
ATOM     35  F   LIG    1      -27.103  77.429  35.162  0.00  0.00    -0.205 F 
ATOM     36  C   LIG    1      -25.132  78.676  34.829  0.00  0.00    +0.038 A 
ATOM     37  C   LIG    1      -24.063  79.021  34.007  0.00  0.00    +0.003 A 
ATOM     38  C   LIG    1      -23.943  78.449  32.735  0.00  0.00    +0.005 A 
ENDBRANCH  28  32
ENDBRANCH   4  27
TORSDOF 7
ENDMDL
MODEL 6
REMARK VINA RESULT:      -6.7      6.669     10.092
REMARK  Name = pdb/CHEMBL3582441.pdb
REMARK                            x       y       z     vdW  Elec       q    Type
REMARK                         _______ _______ _______ _____ _____    ______ ____
ROOT
ATOM      1  C   LIG    1      -38.166  74.931  25.095  0.00  0.00    +0.093 A 
ATOM      2  N   LIG    1      -39.372  75.323  24.522  0.00  0.00    -0.211 N 
ATOM      3  N   LIG    1      -40.518  74.577  24.452  0.00  0.00    -0.149 NA
ATOM      4  C   LIG    1      -41.529  75.132  23.832  0.00  0.00    +0.143 A 
ATOM      5  C   LIG    1      -41.422  76.507  23.236  0.00  0.00    +0.049 A 
ATOM      6  C   LIG    1      -40.275  77.185  23.347  0.00  0.00    +0.051 A 
ATOM      7  C   LIG    1      -39.188  76.599  24.023  0.00  0.00    +0.155 A 
ATOM      8  N   LIG    1      -37.981  77.058  24.269  0.00  0.00    -0.234 NA
ATOM      9  C   LIG    1      -37.349  76.039  24.933  0.00  0.00    +0.141 A 
ENDROOT
BRANCH   1  14
ATOM     10  C   LIG    1      -37.755  71.185  25.425  0.00  0.00    +0.122 A 
ATOM     11  N   LIG    1      -37.274  71.064  26.681  0.00  0.00    -0.240 NA
ATOM     12  C   LIG    1      -37.081  72.191  27.407  0.00  0.00    +0.113 A 
ATOM     13  C   LIG    1      -37.355  73.470  26.952  0.00  0.00    +0.030 A 
ATOM     14  C   LIG    1      -37.877  73.611  25.673  0.00  0.00    +0.007 A 
ATOM     15  C   LIG    1      -38.073  72.447  24.924  0.00  0.00    +0.053 A 
BRANCH  10  19
ATOM     16  N   LIG    1      -37.023  67.575  23.219  0.00  0.00    -0.290 NA
ATOM     17  C   LIG    1      -37.394  68.804  22.491  0.00  0.00    +0.104 C 
ATOM     18  C   LIG    1      -37.309  70.120  23.288  0.00  0.00    +0.122 C 
ATOM     19  N   LIG    1      -37.948  70.037  24.619  0.00  0.00    -0.313 N 
ATOM     20  C   LIG    1      -37.756  68.779  25.363  0.00  0.00    +0.122 C 
ATOM     21  C   LIG    1      -37.858  67.536  24.446  0.00  0.00    +0.104 C 
BRANCH  16  22
ATOM     22  C   LIG    1      -35.585  67.504  23.565  0.00  0.00    +0.205 C 
BRANCH  22  23
ATOM     23  C   LIG    1      -34.800  66.475  22.741  0.00  0.00    +0.319 C 
ATOM     24  O   LIG    1      -34.872  65.269  22.739  0.00  0.00    -0.250 OA
BRANCH  23  25
ATOM     25  O   LIG    1      -33.935  67.093  21.893  0.00  0.00    -0.480 OA
ATOM     26  H   LIG    1      -34.511  67.750  21.440  0.00  0.00    +0.295 HD
ENDBRANCH  23  25
ENDBRANCH  22  23
ENDBRANCH  16  22
ENDBRANCH  10  19
ENDBRANCH   1  14
BRANCH   4  27
ATOM     27  N   LIG    1      -42.705  74.403  23.725  0.00  0.00    -0.307 N 
ATOM     28  C   LIG    1      -43.336  73.979  22.472  0.00  0.00    +0.105 C 
ATOM     29  C   LIG    1      -44.827  73.890  22.828  0.00  0.00    +0.029 C 
ATOM     30  C   LIG    1      -44.811  73.453  24.282  0.00  0.00    +0.021 C 
ATOM     31  C   LIG    1      -43.632  74.237  24.853  0.00  0.00    +0.107 C 
BRANCH  28  32
ATOM     32  C   LIG    1      -42.773  72.661  21.962  0.00  0.00    -0.024 A 
ATOM     33  C   LIG    1      -41.913  71.858  22.731  0.00  0.00    +0.043 A 
ATOM     34  C   LIG    1      -41.419  70.662  22.222  0.00  0.00    +0.124 A 
ATOM     35  F   LIG    1      -40.596  69.918  22.972  0.00  0.00    -0.205 F 
ATOM     36  C   LIG    1      -41.764  70.228  20.949  0.00  0.00    +0.038 A 
ATOM     37  C   LIG    1      -42.619  71.005  20.172  0.00  0.00    +0.003 A 
ATOM     38  C   LIG    1      -43.123  72.210  20.675  0.00  0.00    +0.005 A 
ENDBRANCH  28  32
ENDBRANCH   4  27
TORSDOF 7
ENDMDL
MODEL 7
REMARK VINA RESULT:      -6.6     12.066     16.450
REMARK  Name = pdb/CHEMBL3582441.pdb
REMARK                            x       y       z     vdW  Elec       q    Type
REMARK                         _______ _______ _______ _____ _____    ______ ____
ROOT
ATOM      1  C   LIG    1      -21.848  76.927  30.906  0.00  0.00    +0.093 A 
ATOM      2  N   LIG    1      -21.073  77.660  31.800  0.00  0.00    -0.211 N 
ATOM      3  N   LIG    1      -21.522  78.319  32.913  0.00  0.00    -0.149 NA
ATOM      4  C   LIG    1      -20.621  78.980  33.595  0.00  0.00    +0.143 A 
ATOM      5  C   LIG    1      -19.180  79.003  33.168  0.00  0.00    +0.049 A 
ATOM      6  C   LIG    1      -18.806  78.330  32.074  0.00  0.00    +0.051 A 
ATOM      7  C   LIG    1      -19.770  77.608  31.344  0.00  0.00    +0.155 A 
ATOM      8  N   LIG    1      -19.652  76.873  30.261  0.00  0.00    -0.234 NA
ATOM      9  C   LIG    1      -20.926  76.447  29.988  0.00  0.00    +0.141 A 
ENDROOT
BRANCH   1  14
ATOM     10  C   LIG    1      -25.280  75.509  31.627  0.00  0.00    +0.122 A 
ATOM     11  N   LIG    1      -26.090  76.474  31.143  0.00  0.00    -0.240 NA
ATOM     12  C   LIG    1      -25.524  77.576  30.595  0.00  0.00    +0.113 A 
ATOM     13  C   LIG    1      -24.159  77.779  30.485  0.00  0.00    +0.030 A 
ATOM     14  C   LIG    1      -23.310  76.783  30.952  0.00  0.00    +0.007 A 
ATOM     15  C   LIG    1      -23.897  75.649  31.519  0.00  0.00    +0.053 A 
BRANCH  10  19
ATOM     16  N   LIG    1      -27.840  72.170  32.480  0.00  0.00    -0.290 NA
ATOM     17  C   LIG    1      -27.769  73.289  33.439  0.00  0.00    +0.104 C 
ATOM     18  C   LIG    1      -27.112  74.585  32.925  0.00  0.00    +0.122 C 
ATOM     19  N   LIG    1      -25.827  74.352  32.232  0.00  0.00    -0.313 N 
ATOM     20  C   LIG    1      -25.755  73.164  31.362  0.00  0.00    +0.122 C 
ATOM     21  C   LIG    1      -26.458  71.936  31.990  0.00  0.00    +0.104 C 
BRANCH  16  22
ATOM     22  C   LIG    1      -28.758  72.420  31.345  0.00  0.00    +0.205 C 
BRANCH  22  23
ATOM     23  C   LIG    1      -29.426  71.152  30.797  0.00  0.00    +0.319 C 
ATOM     24  O   LIG    1      -30.064  70.304  31.374  0.00  0.00    -0.250 OA
BRANCH  23  25
ATOM     25  O   LIG    1      -29.250  71.055  29.452  0.00  0.00    -0.480 OA
ATOM     26  H   LIG    1      -28.382  71.498  29.317  0.00  0.00    +0.295 HD
ENDBRANCH  23  25
ENDBRANCH  22  23
ENDBRANCH  16  22
ENDBRANCH  10  19
ENDBRANCH   1  14
BRANCH   4  27
ATOM     27  N   LIG    1      -21.037  79.675  34.721  0.00  0.00    -0.307 N 
ATOM     28  C   LIG    1      -22.275  80.451  34.836  0.00  0.00    +0.105 C 
ATOM     29  C   LIG    1      -21.935  81.525  35.879  0.00  0.00    +0.029 C 
ATOM     30  C   LIG    1      -20.965  80.813  36.806  0.00  0.00    +0.021 C 
ATOM     31  C   LIG    1      -20.131  79.978  35.837  0.00  0.00    +0.107 C 
BRANCH  28  32
ATOM     32  C   LIG    1      -23.459  79.587  35.244  0.00  0.00    -0.024 A 
ATOM     33  C   LIG    1      -24.374  79.070  34.311  0.00  0.00    +0.043 A 
ATOM     34  C   LIG    1      -25.445  78.287  34.730  0.00  0.00    +0.124 A 
ATOM     35  F   LIG    1      -26.307  77.811  33.823  0.00  0.00    -0.205 F 
ATOM     36  C   LIG    1      -25.635  77.993  36.073  0.00  0.00    +0.038 A 
ATOM     37  C   LIG    1      -24.736  78.491  37.015  0.00  0.00    +0.003 A 
ATOM     38  C   LIG    1      -23.655  79.278  36.603  0.00  0.00    +0.005 A 
ENDBRANCH  28  32
ENDBRANCH   4  27
TORSDOF 7
ENDMDL
MODEL 8
REMARK VINA RESULT:      -6.6      5.729     11.055
REMARK  Name = pdb/CHEMBL3582441.pdb
REMARK                            x       y       z     vdW  Elec       q    Type
REMARK                         _______ _______ _______ _____ _____    ______ ____
ROOT
ATOM      1  C   LIG    1      -39.497  75.049  24.562  0.00  0.00    +0.093 A 
ATOM      2  N   LIG    1      -38.903  75.941  25.449  0.00  0.00    -0.211 N 
ATOM      3  N   LIG    1      -37.922  75.647  26.359  0.00  0.00    -0.149 NA
ATOM      4  C   LIG    1      -37.532  76.635  27.124  0.00  0.00    +0.143 A 
ATOM      5  C   LIG    1      -38.137  78.006  27.000  0.00  0.00    +0.049 A 
ATOM      6  C   LIG    1      -39.086  78.226  26.084  0.00  0.00    +0.051 A 
ATOM      7  C   LIG    1      -39.501  77.170  25.251  0.00  0.00    +0.155 A 
ATOM      8  N   LIG    1      -40.393  77.138  24.286  0.00  0.00    -0.234 NA
ATOM      9  C   LIG    1      -40.393  75.837  23.854  0.00  0.00    +0.141 A 
ENDROOT
BRANCH   1  14
ATOM     10  C   LIG    1      -39.930  71.370  23.793  0.00  0.00    +0.122 A 
ATOM     11  N   LIG    1      -38.761  70.853  24.229  0.00  0.00    -0.240 NA
ATOM     12  C   LIG    1      -37.842  71.694  24.760  0.00  0.00    +0.113 A 
ATOM     13  C   LIG    1      -38.023  73.060  24.899  0.00  0.00    +0.030 A 
ATOM     14  C   LIG    1      -39.231  73.606  24.483  0.00  0.00    +0.007 A 
ATOM     15  C   LIG    1      -40.176  72.735  23.933  0.00  0.00    +0.053 A 
BRANCH  10  19
ATOM     16  N   LIG    1      -42.867  69.800  21.084  0.00  0.00    -0.290 NA
ATOM     17  C   LIG    1      -43.288  70.254  22.424  0.00  0.00    +0.104 C 
ATOM     18  C   LIG    1      -42.271  71.107  23.205  0.00  0.00    +0.122 C 
ATOM     19  N   LIG    1      -40.908  70.533  23.207  0.00  0.00    -0.313 N 
ATOM     20  C   LIG    1      -40.453  69.918  21.946  0.00  0.00    +0.122 C 
ATOM     21  C   LIG    1      -41.570  69.097  21.259  0.00  0.00    +0.104 C 
BRANCH  16  22
ATOM     22  C   LIG    1      -42.734  70.899  20.101  0.00  0.00    +0.205 C 
BRANCH  22  23
ATOM     23  C   LIG    1      -43.868  70.947  19.069  0.00  0.00    +0.319 C 
ATOM     24  O   LIG    1      -44.324  70.065  18.380  0.00  0.00    -0.250 OA
BRANCH  23  25
ATOM     25  O   LIG    1      -44.405  72.194  18.997  0.00  0.00    -0.480 OA
ATOM     26  H   LIG    1      -44.092  72.611  19.832  0.00  0.00    +0.295 HD
ENDBRANCH  23  25
ENDBRANCH  22  23
ENDBRANCH  16  22
ENDBRANCH  10  19
ENDBRANCH   1  14
BRANCH   4  27
ATOM     27  N   LIG    1      -36.551  76.377  28.070  0.00  0.00    -0.307 N 
ATOM     28  C   LIG    1      -35.184  75.935  27.783  0.00  0.00    +0.105 C 
ATOM     29  C   LIG    1      -34.787  75.143  29.036  0.00  0.00    +0.029 C 
ATOM     30  C   LIG    1      -35.523  75.865  30.151  0.00  0.00    +0.021 C 
ATOM     31  C   LIG    1      -36.859  76.212  29.497  0.00  0.00    +0.107 C 
BRANCH  28  32
ATOM     32  C   LIG    1      -34.249  77.103  27.504  0.00  0.00    -0.024 A 
ATOM     33  C   LIG    1      -34.558  78.424  27.870  0.00  0.00    +0.043 A 
ATOM     34  C   LIG    1      -33.674  79.460  27.591  0.00  0.00    +0.124 A 
ATOM     35  F   LIG    1      -33.995  80.712  27.945  0.00  0.00    -0.205 F 
ATOM     36  C   LIG    1      -32.466  79.220  26.951  0.00  0.00    +0.038 A 
ATOM     37  C   LIG    1      -32.137  77.917  26.584  0.00  0.00    +0.003 A 
ATOM     38  C   LIG    1      -33.018  76.866  26.862  0.00  0.00    +0.005 A 
ENDBRANCH  28  32
ENDBRANCH   4  27
TORSDOF 7
ENDMDL
MODEL 9
REMARK VINA RESULT:      -6.5      5.313      8.512
REMARK  Name = pdb/CHEMBL3582441.pdb
REMARK                            x       y       z     vdW  Elec       q    Type
REMARK                         _______ _______ _______ _____ _____    ______ ____
ROOT
ATOM      1  C   LIG    1      -36.017  68.263  24.699  0.00  0.00    +0.093 A 
ATOM      2  N   LIG    1      -36.828  68.560  23.608  0.00  0.00    -0.211 N 
ATOM      3  N   LIG    1      -38.076  69.122  23.654  0.00  0.00    -0.149 NA
ATOM      4  C   LIG    1      -38.679  69.280  22.502  0.00  0.00    +0.143 A 
ATOM      5  C   LIG    1      -38.026  68.864  21.214  0.00  0.00    +0.049 A 
ATOM      6  C   LIG    1      -36.801  68.330  21.240  0.00  0.00    +0.051 A 
ATOM      7  C   LIG    1      -36.143  68.168  22.474  0.00  0.00    +0.155 A 
ATOM      8  N   LIG    1      -34.953  67.685  22.756  0.00  0.00    -0.234 NA
ATOM      9  C   LIG    1      -34.867  67.745  24.123  0.00  0.00    +0.141 A 
ENDROOT
BRANCH   1  14
ATOM     10  C   LIG    1      -36.049  69.565  28.250  0.00  0.00    +0.122 A 
ATOM     11  N   LIG    1      -37.066  68.866  28.797  0.00  0.00    -0.240 NA
ATOM     12  C   LIG    1      -37.736  67.986  28.016  0.00  0.00    +0.113 A 
ATOM     13  C   LIG    1      -37.442  67.743  26.684  0.00  0.00    +0.030 A 
ATOM     14  C   LIG    1      -36.380  68.433  26.113  0.00  0.00    +0.007 A 
ATOM     15  C   LIG    1      -35.692  69.342  26.921  0.00  0.00    +0.053 A 
BRANCH  10  19
ATOM     16  N   LIG    1      -33.759  73.016  29.381  0.00  0.00    -0.290 NA
ATOM     17  C   LIG    1      -33.150  71.677  29.493  0.00  0.00    +0.104 C 
ATOM     18  C   LIG    1      -33.882  70.533  28.764  0.00  0.00    +0.122 C 
ATOM     19  N   LIG    1      -35.338  70.515  29.022  0.00  0.00    -0.313 N 
ATOM     20  C   LIG    1      -36.012  71.825  29.078  0.00  0.00    +0.122 C 
ATOM     21  C   LIG    1      -35.169  72.884  29.829  0.00  0.00    +0.104 C 
BRANCH  16  22
ATOM     22  C   LIG    1      -33.699  73.582  28.014  0.00  0.00    +0.205 C 
BRANCH  22  23
ATOM     23  C   LIG    1      -34.016  75.082  27.950  0.00  0.00    +0.319 C 
ATOM     24  O   LIG    1      -33.463  76.013  28.486  0.00  0.00    -0.250 OA
BRANCH  23  25
ATOM     25  O   LIG    1      -35.072  75.318  27.127  0.00  0.00    -0.480 OA
ATOM     26  H   LIG    1      -34.640  75.432  26.250  0.00  0.00    +0.295 HD
ENDBRANCH  23  25
ENDBRANCH  22  23
ENDBRANCH  16  22
ENDBRANCH  10  19
ENDBRANCH   1  14
BRANCH   4  27
ATOM     27  N   LIG    1      -39.953  69.831  22.505  0.00  0.00    -0.307 N 
ATOM     28  C   LIG    1      -40.636  70.396  23.672  0.00  0.00    +0.105 C 
ATOM     29  C   LIG    1      -42.124  70.188  23.358  0.00  0.00    +0.029 C 
ATOM     30  C   LIG    1      -42.182  70.325  21.847  0.00  0.00    +0.021 C 
ATOM     31  C   LIG    1      -40.899  69.629  21.400  0.00  0.00    +0.107 C 
BRANCH  28  32
ATOM     32  C   LIG    1      -40.279  71.858  23.894  0.00  0.00    -0.024 A 
ATOM     33  C   LIG    1      -39.059  72.261  24.465  0.00  0.00    +0.043 A 
ATOM     34  C   LIG    1      -38.777  73.609  24.652  0.00  0.00    +0.124 A 
ATOM     35  F   LIG    1      -37.611  73.967  25.204  0.00  0.00    -0.205 F 
ATOM     36  C   LIG    1      -39.686  74.590  24.279  0.00  0.00    +0.038 A 
ATOM     37  C   LIG    1      -40.899  74.214  23.707  0.00  0.00    +0.003 A 
ATOM     38  C   LIG    1      -41.192  72.859  23.512  0.00  0.00    +0.005 A 
ENDBRANCH  28  32
ENDBRANCH   4  27
TORSDOF 7
ENDMDL
