MODEL 1
REMARK VINA RESULT:      -5.7      0.000      0.000
REMARK  Name = pdb/CHEMBL3675987.pdb
REMARK                            x       y       z     vdW  Elec       q    Type
REMARK                         _______ _______ _______ _____ _____    ______ ____
ROOT
ATOM      1  C   LIG    1      -26.027  77.246  33.296  0.00  0.00    +0.100 A 
ATOM      2  C   LIG    1      -25.449  78.152  34.169  0.00  0.00    +0.170 A 
ATOM      3  N   LIG    1      -24.236  78.796  34.168  0.00  0.00    -0.212 NA
ATOM      4  C   LIG    1      -23.947  79.581  35.186  0.00  0.00    +0.126 A 
ATOM      5  C   LIG    1      -24.954  79.865  36.280  0.00  0.00    +0.063 A 
ATOM      6  C   LIG    1      -26.106  79.192  36.246  0.00  0.00    +0.118 A 
ATOM      7  N   LIG    1      -26.369  78.317  35.208  0.00  0.00    -0.221 N 
ATOM      8  N   LIG    1      -27.478  77.561  35.039  0.00  0.00    -0.173 NA
ATOM      9  C   LIG    1      -27.261  76.918  33.893  0.00  0.00    +0.150 A 
ENDROOT
BRANCH   4  10
ATOM     10  N   LIG    1      -22.684  80.157  35.279  0.00  0.00    -0.308 N 
ATOM     11  C   LIG    1      -21.562  79.473  35.953  0.00  0.00    +0.107 C 
ATOM     12  C   LIG    1      -20.923  80.589  36.796  0.00  0.00    +0.029 C 
ATOM     13  C   LIG    1      -21.139  81.842  35.966  0.00  0.00    +0.021 C 
ATOM     14  C   LIG    1      -22.519  81.616  35.369  0.00  0.00    +0.107 C 
BRANCH  11  15
ATOM     15  C   LIG    1      -20.595  78.869  34.951  0.00  0.00    -0.006 A 
ATOM     16  C   LIG    1      -20.790  78.957  33.567  0.00  0.00    +0.046 A 
ATOM     17  C   LIG    1      -19.860  78.411  32.697  0.00  0.00    +0.142 A 
ATOM     18  F   LIG    1      -20.046  78.501  31.374  0.00  0.00    -0.204 F 
ATOM     19  C   LIG    1      -18.748  77.781  33.217  0.00  0.00    +0.149 A 
ATOM     20  N   LIG    1      -18.510  77.671  34.546  0.00  0.00    -0.260 NA
ATOM     21  C   LIG    1      -19.435  78.216  35.377  0.00  0.00    +0.116 A 
ENDBRANCH  11  15
ENDBRANCH   4  10
BRANCH   1  24
ATOM     22  N   LIG    1      -24.283  76.112  32.148  0.00  0.00    -0.308 N 
ATOM     23  H   LIG    1      -23.891  76.002  33.080  0.00  0.00    +0.149 HD
ATOM     24  C   LIG    1      -25.508  76.718  32.053  0.00  0.00    +0.249 C 
ATOM     25  O   LIG    1      -26.115  76.859  30.989  0.00  0.00    -0.270 OA
BRANCH  22  27
ATOM     26  C   LIG    1      -23.159  74.086  31.355  0.00  0.00    +0.028 C 
ATOM     27  C   LIG    1      -23.616  75.501  31.015  0.00  0.00    +0.073 C 
BRANCH  27  28
ATOM     28  C   LIG    1      -22.455  76.376  30.617  0.00  0.00    +0.009 C 
ATOM     29  C   LIG    1      -22.675  77.512  29.645  0.00  0.00    +0.005 C 
ATOM     30  C   LIG    1      -21.863  76.320  29.228  0.00  0.00    +0.005 C 
ENDBRANCH  27  28
ENDBRANCH  22  27
ENDBRANCH   1  24
TORSDOF 5
ENDMDL
MODEL 2
REMARK VINA RESULT:      -5.7      2.310      5.499
REMARK  Name = pdb/CHEMBL3675987.pdb
REMARK                            x       y       z     vdW  Elec       q    Type
REMARK                         _______ _______ _______ _____ _____    ______ ____
ROOT
ATOM      1  C   LIG    1      -19.984  77.031  30.700  0.00  0.00    +0.100 A 
ATOM      2  C   LIG    1      -19.584  77.600  31.898  0.00  0.00    +0.170 A 
ATOM      3  N   LIG    1      -20.286  78.150  32.943  0.00  0.00    -0.212 NA
ATOM      4  C   LIG    1      -19.606  78.666  33.946  0.00  0.00    +0.126 A 
ATOM      5  C   LIG    1      -18.096  78.567  34.016  0.00  0.00    +0.063 A 
ATOM      6  C   LIG    1      -17.464  78.048  32.961  0.00  0.00    +0.118 A 
ATOM      7  N   LIG    1      -18.187  77.572  31.883  0.00  0.00    -0.221 N 
ATOM      8  N   LIG    1      -17.695  77.030  30.746  0.00  0.00    -0.173 NA
ATOM      9  C   LIG    1      -18.780  76.714  30.040  0.00  0.00    +0.150 A 
ENDROOT
BRANCH   4  10
ATOM     10  N   LIG    1      -20.276  79.335  34.965  0.00  0.00    -0.308 N 
ATOM     11  C   LIG    1      -21.324  80.338  34.683  0.00  0.00    +0.107 C 
ATOM     12  C   LIG    1      -20.987  81.483  35.653  0.00  0.00    +0.029 C 
ATOM     13  C   LIG    1      -20.406  80.775  36.864  0.00  0.00    +0.021 C 
ATOM     14  C   LIG    1      -19.611  79.639  36.241  0.00  0.00    +0.107 C 
BRANCH  11  15
ATOM     15  C   LIG    1      -22.713  79.770  34.907  0.00  0.00    -0.006 A 
ATOM     16  C   LIG    1      -23.026  78.425  34.671  0.00  0.00    +0.046 A 
ATOM     17  C   LIG    1      -24.305  77.954  34.919  0.00  0.00    +0.142 A 
ATOM     18  F   LIG    1      -24.600  76.667  34.698  0.00  0.00    -0.204 F 
ATOM     19  C   LIG    1      -25.258  78.830  35.397  0.00  0.00    +0.149 A 
ATOM     20  N   LIG    1      -25.009  80.138  35.644  0.00  0.00    -0.260 NA
ATOM     21  C   LIG    1      -23.747  80.574  35.395  0.00  0.00    +0.116 A 
ENDBRANCH  11  15
ENDBRANCH   4  10
BRANCH   1  24
ATOM     22  N   LIG    1      -22.311  76.852  31.143  0.00  0.00    -0.308 N 
ATOM     23  H   LIG    1      -22.041  77.126  32.084  0.00  0.00    +0.149 HD
ATOM     24  C   LIG    1      -21.321  76.809  30.196  0.00  0.00    +0.249 C 
ATOM     25  O   LIG    1      -21.529  76.549  29.009  0.00  0.00    -0.270 OA
BRANCH  22  27
ATOM     26  C   LIG    1      -24.467  78.000  30.961  0.00  0.00    +0.028 C 
ATOM     27  C   LIG    1      -23.715  76.680  30.823  0.00  0.00    +0.073 C 
BRANCH  27  28
ATOM     28  C   LIG    1      -24.284  75.622  31.734  0.00  0.00    +0.009 C 
ATOM     29  C   LIG    1      -24.699  74.288  31.159  0.00  0.00    +0.005 C 
ATOM     30  C   LIG    1      -25.743  75.233  31.678  0.00  0.00    +0.005 C 
ENDBRANCH  27  28
ENDBRANCH  22  27
ENDBRANCH   1  24
TORSDOF 5
ENDMDL
MODEL 3
REMARK VINA RESULT:      -5.5      2.695      7.365
REMARK  Name = pdb/CHEMBL3675987.pdb
REMARK                            x       y       z     vdW  Elec       q    Type
REMARK                         _______ _______ _______ _____ _____    ______ ____
ROOT
ATOM      1  C   LIG    1      -18.563  78.407  33.548  0.00  0.00    +0.100 A 
ATOM      2  C   LIG    1      -19.445  78.040  32.545  0.00  0.00    +0.170 A 
ATOM      3  N   LIG    1      -20.816  78.069  32.460  0.00  0.00    -0.212 NA
ATOM      4  C   LIG    1      -21.382  77.597  31.369  0.00  0.00    +0.126 A 
ATOM      5  C   LIG    1      -20.559  77.133  30.185  0.00  0.00    +0.063 A 
ATOM      6  C   LIG    1      -19.232  77.101  30.332  0.00  0.00    +0.118 A 
ATOM      7  N   LIG    1      -18.654  77.535  31.511  0.00  0.00    -0.221 N 
ATOM      8  N   LIG    1      -17.336  77.555  31.813  0.00  0.00    -0.173 NA
ATOM      9  C   LIG    1      -17.292  78.074  33.039  0.00  0.00    +0.150 A 
ENDROOT
BRANCH   4  10
ATOM     10  N   LIG    1      -22.767  77.502  31.294  0.00  0.00    -0.308 N 
ATOM     11  C   LIG    1      -23.532  76.563  32.140  0.00  0.00    +0.107 C 
ATOM     12  C   LIG    1      -24.539  75.941  31.158  0.00  0.00    +0.029 C 
ATOM     13  C   LIG    1      -24.831  77.063  30.177  0.00  0.00    +0.021 C 
ATOM     14  C   LIG    1      -23.478  77.741  30.028  0.00  0.00    +0.107 C 
BRANCH  11  15
ATOM     15  C   LIG    1      -24.207  77.278  33.296  0.00  0.00    -0.006 A 
ATOM     16  C   LIG    1      -23.895  78.596  33.653  0.00  0.00    +0.046 A 
ATOM     17  C   LIG    1      -24.562  79.210  34.701  0.00  0.00    +0.142 A 
ATOM     18  F   LIG    1      -24.267  80.472  35.036  0.00  0.00    -0.204 F 
ATOM     19  C   LIG    1      -25.531  78.501  35.382  0.00  0.00    +0.149 A 
ATOM     20  N   LIG    1      -25.873  77.227  35.077  0.00  0.00    -0.260 NA
ATOM     21  C   LIG    1      -25.205  76.649  34.045  0.00  0.00    +0.116 A 
ENDBRANCH  11  15
ENDBRANCH   4  10
BRANCH   1  24
ATOM     22  N   LIG    1      -20.095  79.526  34.978  0.00  0.00    -0.308 N 
ATOM     23  H   LIG    1      -20.743  79.392  34.206  0.00  0.00    +0.149 HD
ATOM     24  C   LIG    1      -18.842  78.987  34.843  0.00  0.00    +0.249 C 
ATOM     25  O   LIG    1      -17.986  79.030  35.729  0.00  0.00    -0.270 OA
BRANCH  22  27
ATOM     26  C   LIG    1      -21.627  79.251  36.869  0.00  0.00    +0.028 C 
ATOM     27  C   LIG    1      -20.565  80.127  36.211  0.00  0.00    +0.073 C 
BRANCH  27  28
ATOM     28  C   LIG    1      -21.099  81.501  35.898  0.00  0.00    +0.009 C 
ATOM     29  C   LIG    1      -20.704  82.672  36.768  0.00  0.00    +0.005 C 
ATOM     30  C   LIG    1      -22.120  82.174  36.786  0.00  0.00    +0.005 C 
ENDBRANCH  27  28
ENDBRANCH  22  27
ENDBRANCH   1  24
TORSDOF 5
ENDMDL
MODEL 4
REMARK VINA RESULT:      -5.5      2.346      5.216
REMARK  Name = pdb/CHEMBL3675987.pdb
REMARK                            x       y       z     vdW  Elec       q    Type
REMARK                         _______ _______ _______ _____ _____    ______ ____
ROOT
ATOM      1  C   LIG    1      -22.914  77.002  30.615  0.00  0.00    +0.100 A 
ATOM      2  C   LIG    1      -22.004  77.528  31.518  0.00  0.00    +0.170 A 
ATOM      3  N   LIG    1      -22.144  78.032  32.787  0.00  0.00    -0.212 NA
ATOM      4  C   LIG    1      -21.075  78.514  33.387  0.00  0.00    +0.126 A 
ATOM      5  C   LIG    1      -19.701  78.422  32.755  0.00  0.00    +0.063 A 
ATOM      6  C   LIG    1      -19.627  77.948  31.509  0.00  0.00    +0.118 A 
ATOM      7  N   LIG    1      -20.770  77.509  30.864  0.00  0.00    -0.221 N 
ATOM      8  N   LIG    1      -20.858  77.015  29.609  0.00  0.00    -0.173 NA
ATOM      9  C   LIG    1      -22.149  76.719  29.466  0.00  0.00    +0.150 A 
ENDROOT
BRANCH   4  10
ATOM     10  N   LIG    1      -21.197  79.139  34.624  0.00  0.00    -0.308 N 
ATOM     11  C   LIG    1      -22.036  80.340  34.812  0.00  0.00    +0.107 C 
ATOM     12  C   LIG    1      -21.151  81.258  35.671  0.00  0.00    +0.029 C 
ATOM     13  C   LIG    1      -20.359  80.294  36.537  0.00  0.00    +0.021 C 
ATOM     14  C   LIG    1      -20.088  79.136  35.589  0.00  0.00    +0.107 C 
BRANCH  11  15
ATOM     15  C   LIG    1      -23.354  80.000  35.484  0.00  0.00    -0.006 A 
ATOM     16  C   LIG    1      -23.747  78.681  35.749  0.00  0.00    +0.046 A 
ATOM     17  C   LIG    1      -24.949  78.430  36.391  0.00  0.00    +0.142 A 
ATOM     18  F   LIG    1      -25.320  77.169  36.649  0.00  0.00    -0.204 F 
ATOM     19  C   LIG    1      -25.746  79.495  36.758  0.00  0.00    +0.149 A 
ATOM     20  N   LIG    1      -25.412  80.787  36.528  0.00  0.00    -0.260 NA
ATOM     21  C   LIG    1      -24.228  81.007  35.899  0.00  0.00    +0.116 A 
ENDBRANCH  11  15
ENDBRANCH   4  10
BRANCH   1  24
ATOM     22  N   LIG    1      -24.712  76.233  31.965  0.00  0.00    -0.308 N 
ATOM     23  H   LIG    1      -23.986  76.104  32.665  0.00  0.00    +0.149 HD
ATOM     24  C   LIG    1      -24.337  76.792  30.771  0.00  0.00    +0.249 C 
ATOM     25  O   LIG    1      -25.130  77.052  29.864  0.00  0.00    -0.270 OA
BRANCH  22  27
ATOM     26  C   LIG    1      -26.593  76.980  33.342  0.00  0.00    +0.028 C 
ATOM     27  C   LIG    1      -26.096  75.972  32.311  0.00  0.00    +0.073 C 
BRANCH  27  28
ATOM     28  C   LIG    1      -26.199  74.559  32.826  0.00  0.00    +0.009 C 
ATOM     29  C   LIG    1      -27.074  73.563  32.100  0.00  0.00    +0.005 C 
ATOM     30  C   LIG    1      -27.466  74.043  33.468  0.00  0.00    +0.005 C 
ENDBRANCH  27  28
ENDBRANCH  22  27
ENDBRANCH   1  24
TORSDOF 5
ENDMDL
MODEL 5
REMARK VINA RESULT:      -5.4     13.725     17.493
REMARK  Name = pdb/CHEMBL3675987.pdb
REMARK                            x       y       z     vdW  Elec       q    Type
REMARK                         _______ _______ _______ _____ _____    ______ ____
ROOT
ATOM      1  C   LIG    1      -37.740  76.514  25.872  0.00  0.00    +0.100 A 
ATOM      2  C   LIG    1      -38.357  75.389  25.349  0.00  0.00    +0.170 A 
ATOM      3  N   LIG    1      -38.080  74.047  25.453  0.00  0.00    -0.212 NA
ATOM      4  C   LIG    1      -38.838  73.202  24.786  0.00  0.00    +0.126 A 
ATOM      5  C   LIG    1      -40.053  73.667  24.010  0.00  0.00    +0.063 A 
ATOM      6  C   LIG    1      -40.259  74.983  23.920  0.00  0.00    +0.118 A 
ATOM      7  N   LIG    1      -39.413  75.864  24.569  0.00  0.00    -0.221 N 
ATOM      8  N   LIG    1      -39.485  77.215  24.566  0.00  0.00    -0.173 NA
ATOM      9  C   LIG    1      -38.474  77.595  25.345  0.00  0.00    +0.150 A 
ENDROOT
BRANCH   4  10
ATOM     10  N   LIG    1      -38.519  71.848  24.772  0.00  0.00    -0.308 N 
ATOM     11  C   LIG    1      -37.131  71.375  24.591  0.00  0.00    +0.107 C 
ATOM     12  C   LIG    1      -37.278  70.222  23.585  0.00  0.00    +0.029 C 
ATOM     13  C   LIG    1      -38.635  69.625  23.912  0.00  0.00    +0.021 C 
ATOM     14  C   LIG    1      -39.468  70.849  24.258  0.00  0.00    +0.107 C 
BRANCH  11  15
ATOM     15  C   LIG    1      -36.518  70.930  25.907  0.00  0.00    -0.006 A 
ATOM     16  C   LIG    1      -35.178  70.540  26.021  0.00  0.00    +0.046 A 
ATOM     17  C   LIG    1      -34.664  70.169  27.253  0.00  0.00    +0.142 A 
ATOM     18  F   LIG    1      -33.381  69.802  27.361  0.00  0.00    -0.204 F 
ATOM     19  C   LIG    1      -35.493  70.190  28.356  0.00  0.00    +0.149 A 
ATOM     20  N   LIG    1      -36.794  70.561  28.302  0.00  0.00    -0.260 NA
ATOM     21  C   LIG    1      -37.273  70.922  27.083  0.00  0.00    +0.116 A 
ENDBRANCH  11  15
ENDBRANCH   4  10
BRANCH   1  24
ATOM     22  N   LIG    1      -36.021  75.400  27.076  0.00  0.00    -0.308 N 
ATOM     23  H   LIG    1      -36.382  74.572  26.610  0.00  0.00    +0.149 HD
ATOM     24  C   LIG    1      -36.593  76.602  26.748  0.00  0.00    +0.249 C 
ATOM     25  O   LIG    1      -36.207  77.682  27.199  0.00  0.00    -0.270 OA
BRANCH  22  27
ATOM     26  C   LIG    1      -33.643  75.957  27.261  0.00  0.00    +0.028 C 
ATOM     27  C   LIG    1      -34.847  75.291  27.920  0.00  0.00    +0.073 C 
BRANCH  27  28
ATOM     28  C   LIG    1      -34.590  73.831  28.192  0.00  0.00    +0.009 C 
ATOM     29  C   LIG    1      -34.367  73.365  29.612  0.00  0.00    +0.005 C 
ATOM     30  C   LIG    1      -33.232  73.336  28.631  0.00  0.00    +0.005 C 
ENDBRANCH  27  28
ENDBRANCH  22  27
ENDBRANCH   1  24
TORSDOF 5
ENDMDL
MODEL 6
REMARK VINA RESULT:      -5.3      2.622      5.904
REMARK  Name = pdb/CHEMBL3675987.pdb
REMARK                            x       y       z     vdW  Elec       q    Type
REMARK                         _______ _______ _______ _____ _____    ______ ____
ROOT
ATOM      1  C   LIG    1      -20.425  80.117  35.912  0.00  0.00    +0.100 A 
ATOM      2  C   LIG    1      -21.647  79.714  35.398  0.00  0.00    +0.170 A 
ATOM      3  N   LIG    1      -22.009  78.679  34.572  0.00  0.00    -0.212 NA
ATOM      4  C   LIG    1      -23.272  78.583  34.213  0.00  0.00    +0.126 A 
ATOM      5  C   LIG    1      -24.330  79.511  34.773  0.00  0.00    +0.063 A 
ATOM      6  C   LIG    1      -23.919  80.515  35.550  0.00  0.00    +0.118 A 
ATOM      7  N   LIG    1      -22.578  80.646  35.863  0.00  0.00    -0.221 N 
ATOM      8  N   LIG    1      -22.009  81.608  36.625  0.00  0.00    -0.173 NA
ATOM      9  C   LIG    1      -20.717  81.286  36.643  0.00  0.00    +0.150 A 
ENDROOT
BRANCH   4  10
ATOM     10  N   LIG    1      -23.657  77.620  33.285  0.00  0.00    -0.308 N 
ATOM     11  C   LIG    1      -23.905  77.956  31.868  0.00  0.00    +0.107 C 
ATOM     12  C   LIG    1      -25.202  77.197  31.546  0.00  0.00    +0.029 C 
ATOM     13  C   LIG    1      -25.116  75.948  32.406  0.00  0.00    +0.021 C 
ATOM     14  C   LIG    1      -24.473  76.463  33.684  0.00  0.00    +0.107 C 
BRANCH  11  15
ATOM     15  C   LIG    1      -22.745  77.535  30.984  0.00  0.00    -0.006 A 
ATOM     16  C   LIG    1      -21.407  77.724  31.354  0.00  0.00    +0.046 A 
ATOM     17  C   LIG    1      -20.387  77.295  30.520  0.00  0.00    +0.142 A 
ATOM     18  F   LIG    1      -19.109  77.471  30.879  0.00  0.00    -0.204 F 
ATOM     19  C   LIG    1      -20.713  76.685  29.326  0.00  0.00    +0.149 A 
ATOM     20  N   LIG    1      -21.988  76.476  28.922  0.00  0.00    -0.260 NA
ATOM     21  C   LIG    1      -22.970  76.904  29.758  0.00  0.00    +0.116 A 
ENDBRANCH  11  15
ENDBRANCH   4  10
BRANCH   1  24
ATOM     22  N   LIG    1      -18.919  78.895  34.539  0.00  0.00    -0.308 N 
ATOM     23  H   LIG    1      -19.651  78.992  33.841  0.00  0.00    +0.149 HD
ATOM     24  C   LIG    1      -19.121  79.514  35.745  0.00  0.00    +0.249 C 
ATOM     25  O   LIG    1      -18.287  79.520  36.653  0.00  0.00    -0.270 OA
BRANCH  22  27
ATOM     26  C   LIG    1      -17.039  78.943  32.971  0.00  0.00    +0.028 C 
ATOM     27  C   LIG    1      -17.667  78.258  34.181  0.00  0.00    +0.073 C 
BRANCH  27  28
ATOM     28  C   LIG    1      -17.934  76.799  33.912  0.00  0.00    +0.009 C 
ATOM     29  C   LIG    1      -17.149  75.747  34.660  0.00  0.00    +0.005 C 
ATOM     30  C   LIG    1      -16.932  75.933  33.186  0.00  0.00    +0.005 C 
ENDBRANCH  27  28
ENDBRANCH  22  27
ENDBRANCH   1  24
TORSDOF 5
ENDMDL
MODEL 7
REMARK VINA RESULT:      -5.3      2.664      5.584
REMARK  Name = pdb/CHEMBL3675987.pdb
REMARK                            x       y       z     vdW  Elec       q    Type
REMARK                         _______ _______ _______ _____ _____    ______ ____
ROOT
ATOM      1  C   LIG    1      -20.598  77.020  30.648  0.00  0.00    +0.100 A 
ATOM      2  C   LIG    1      -21.794  77.416  31.225  0.00  0.00    +0.170 A 
ATOM      3  N   LIG    1      -22.107  77.892  32.475  0.00  0.00    -0.212 NA
ATOM      4  C   LIG    1      -23.372  78.141  32.746  0.00  0.00    +0.126 A 
ATOM      5  C   LIG    1      -24.450  78.018  31.690  0.00  0.00    +0.063 A 
ATOM      6  C   LIG    1      -24.094  77.525  30.502  0.00  0.00    +0.118 A 
ATOM      7  N   LIG    1      -22.773  77.201  30.252  0.00  0.00    -0.221 N 
ATOM      8  N   LIG    1      -22.261  76.688  29.110  0.00  0.00    -0.173 NA
ATOM      9  C   LIG    1      -20.958  76.577  29.360  0.00  0.00    +0.150 A 
ENDROOT
BRANCH   4  10
ATOM     10  N   LIG    1      -23.743  78.513  34.035  0.00  0.00    -0.308 N 
ATOM     11  C   LIG    1      -22.859  78.287  35.197  0.00  0.00    +0.107 C 
ATOM     12  C   LIG    1      -23.816  77.735  36.267  0.00  0.00    +0.029 C 
ATOM     13  C   LIG    1      -25.131  78.436  35.975  0.00  0.00    +0.021 C 
ATOM     14  C   LIG    1      -25.152  78.493  34.455  0.00  0.00    +0.107 C 
BRANCH  11  15
ATOM     15  C   LIG    1      -22.171  79.569  35.631  0.00  0.00    -0.006 A 
ATOM     16  C   LIG    1      -20.950  79.575  36.317  0.00  0.00    +0.046 A 
ATOM     17  C   LIG    1      -20.353  80.775  36.665  0.00  0.00    +0.142 A 
ATOM     18  F   LIG    1      -19.183  80.778  37.315  0.00  0.00    -0.204 F 
ATOM     19  C   LIG    1      -20.981  81.956  36.326  0.00  0.00    +0.149 A 
ATOM     20  N   LIG    1      -22.160  82.007  35.661  0.00  0.00    -0.260 NA
ATOM     21  C   LIG    1      -22.724  80.816  35.331  0.00  0.00    +0.116 A 
ENDBRANCH  11  15
ENDBRANCH   4  10
BRANCH   1  24
ATOM     22  N   LIG    1      -19.214  77.188  32.572  0.00  0.00    -0.308 N 
ATOM     23  H   LIG    1      -20.098  77.192  33.072  0.00  0.00    +0.149 HD
ATOM     24  C   LIG    1      -19.266  77.028  31.212  0.00  0.00    +0.249 C 
ATOM     25  O   LIG    1      -18.264  76.950  30.498  0.00  0.00    -0.270 OA
BRANCH  22  27
ATOM     26  C   LIG    1      -17.622  75.791  33.800  0.00  0.00    +0.028 C 
ATOM     27  C   LIG    1      -17.970  77.195  33.316  0.00  0.00    +0.073 C 
BRANCH  27  28
ATOM     28  C   LIG    1      -18.109  78.157  34.468  0.00  0.00    +0.009 C 
ATOM     29  C   LIG    1      -16.892  78.896  34.974  0.00  0.00    +0.005 C 
ATOM     30  C   LIG    1      -17.536  77.846  35.831  0.00  0.00    +0.005 C 
ENDBRANCH  27  28
ENDBRANCH  22  27
ENDBRANCH   1  24
TORSDOF 5
ENDMDL
MODEL 8
REMARK VINA RESULT:      -5.2     11.783     15.710
REMARK  Name = pdb/CHEMBL3675987.pdb
REMARK                            x       y       z     vdW  Elec       q    Type
REMARK                         _______ _______ _______ _____ _____    ______ ____
ROOT
ATOM      1  C   LIG    1      -33.131  76.024  28.271  0.00  0.00    +0.100 A 
ATOM      2  C   LIG    1      -33.132  74.669  28.557  0.00  0.00    +0.170 A 
ATOM      3  N   LIG    1      -34.024  73.663  28.277  0.00  0.00    -0.212 NA
ATOM      4  C   LIG    1      -33.764  72.455  28.735  0.00  0.00    +0.126 A 
ATOM      5  C   LIG    1      -32.471  72.141  29.458  0.00  0.00    +0.063 A 
ATOM      6  C   LIG    1      -31.653  73.162  29.728  0.00  0.00    +0.118 A 
ATOM      7  N   LIG    1      -31.972  74.438  29.301  0.00  0.00    -0.221 N 
ATOM      8  N   LIG    1      -31.256  75.568  29.503  0.00  0.00    -0.173 NA
ATOM      9  C   LIG    1      -31.963  76.514  28.887  0.00  0.00    +0.150 A 
ENDROOT
BRANCH   4  10
ATOM     10  N   LIG    1      -34.698  71.437  28.572  0.00  0.00    -0.308 N 
ATOM     11  C   LIG    1      -36.137  71.720  28.388  0.00  0.00    +0.107 C 
ATOM     12  C   LIG    1      -36.819  70.697  29.311  0.00  0.00    +0.029 C 
ATOM     13  C   LIG    1      -35.895  69.492  29.264  0.00  0.00    +0.021 C 
ATOM     14  C   LIG    1      -34.515  70.128  29.215  0.00  0.00    +0.107 C 
BRANCH  11  15
ATOM     15  C   LIG    1      -36.553  71.569  26.937  0.00  0.00    -0.006 A 
ATOM     16  C   LIG    1      -37.589  72.320  26.367  0.00  0.00    +0.046 A 
ATOM     17  C   LIG    1      -37.909  72.161  25.028  0.00  0.00    +0.142 A 
ATOM     18  F   LIG    1      -38.895  72.885  24.484  0.00  0.00    -0.204 F 
ATOM     19  C   LIG    1      -37.194  71.253  24.274  0.00  0.00    +0.149 A 
ATOM     20  N   LIG    1      -36.183  70.504  24.774  0.00  0.00    -0.260 NA
ATOM     21  C   LIG    1      -35.888  70.680  26.088  0.00  0.00    +0.116 A 
ENDBRANCH  11  15
ENDBRANCH   4  10
BRANCH   1  24
ATOM     22  N   LIG    1      -35.380  76.314  27.560  0.00  0.00    -0.308 N 
ATOM     23  H   LIG    1      -35.558  75.519  28.168  0.00  0.00    +0.149 HD
ATOM     24  C   LIG    1      -34.099  76.801  27.528  0.00  0.00    +0.249 C 
ATOM     25  O   LIG    1      -33.767  77.793  26.877  0.00  0.00    -0.270 OA
BRANCH  22  27
ATOM     26  C   LIG    1      -37.368  77.699  27.908  0.00  0.00    +0.028 C 
ATOM     27  C   LIG    1      -36.489  76.971  26.896  0.00  0.00    +0.073 C 
BRANCH  27  28
ATOM     28  C   LIG    1      -37.270  75.933  26.133  0.00  0.00    +0.009 C 
ATOM     29  C   LIG    1      -37.467  76.095  24.643  0.00  0.00    +0.005 C 
ATOM     30  C   LIG    1      -38.640  76.230  25.570  0.00  0.00    +0.005 C 
ENDBRANCH  27  28
ENDBRANCH  22  27
ENDBRANCH   1  24
TORSDOF 5
ENDMDL
MODEL 9
REMARK VINA RESULT:      -5.1      2.739      7.339
REMARK  Name = pdb/CHEMBL3675987.pdb
REMARK                            x       y       z     vdW  Elec       q    Type
REMARK                         _______ _______ _______ _____ _____    ______ ____
ROOT
ATOM      1  C   LIG    1      -18.937  79.359  35.835  0.00  0.00    +0.100 A 
ATOM      2  C   LIG    1      -19.004  78.720  34.608  0.00  0.00    +0.170 A 
ATOM      3  N   LIG    1      -20.033  78.527  33.719  0.00  0.00    -0.212 NA
ATOM      4  C   LIG    1      -19.793  77.820  32.633  0.00  0.00    +0.126 A 
ATOM      5  C   LIG    1      -18.402  77.322  32.302  0.00  0.00    +0.063 A 
ATOM      6  C   LIG    1      -17.446  77.514  33.214  0.00  0.00    +0.118 A 
ATOM      7  N   LIG    1      -17.728  78.198  34.383  0.00  0.00    -0.221 N 
ATOM      8  N   LIG    1      -16.876  78.463  35.398  0.00  0.00    -0.173 NA
ATOM      9  C   LIG    1      -17.612  79.155  36.267  0.00  0.00    +0.150 A 
ENDROOT
BRANCH   4  10
ATOM     10  N   LIG    1      -20.836  77.504  31.768  0.00  0.00    -0.308 N 
ATOM     11  C   LIG    1      -21.701  76.326  31.987  0.00  0.00    +0.107 C 
ATOM     12  C   LIG    1      -21.815  75.706  30.585  0.00  0.00    +0.029 C 
ATOM     13  C   LIG    1      -21.761  76.903  29.652  0.00  0.00    +0.021 C 
ATOM     14  C   LIG    1      -20.754  77.816  30.333  0.00  0.00    +0.107 C 
BRANCH  11  15
ATOM     15  C   LIG    1      -23.047  76.724  32.564  0.00  0.00    -0.006 A 
ATOM     16  C   LIG    1      -23.262  77.954  33.200  0.00  0.00    +0.046 A 
ATOM     17  C   LIG    1      -24.520  78.277  33.683  0.00  0.00    +0.142 A 
ATOM     18  F   LIG    1      -24.724  79.455  34.285  0.00  0.00    -0.204 F 
ATOM     19  C   LIG    1      -25.548  77.369  33.529  0.00  0.00    +0.149 A 
ATOM     20  N   LIG    1      -25.395  76.169  32.921  0.00  0.00    -0.260 NA
ATOM     21  C   LIG    1      -24.153  75.877  32.454  0.00  0.00    +0.116 A 
ENDBRANCH  11  15
ENDBRANCH   4  10
BRANCH   1  24
ATOM     22  N   LIG    1      -21.240  79.580  36.375  0.00  0.00    -0.308 N 
ATOM     23  H   LIG    1      -21.334  78.719  35.843  0.00  0.00    +0.149 HD
ATOM     24  C   LIG    1      -19.973  80.070  36.552  0.00  0.00    +0.249 C 
ATOM     25  O   LIG    1      -19.720  81.072  37.224  0.00  0.00    -0.270 OA
BRANCH  22  27
ATOM     26  C   LIG    1      -23.421  79.058  37.358  0.00  0.00    +0.028 C 
ATOM     27  C   LIG    1      -22.402  80.145  37.033  0.00  0.00    +0.073 C 
BRANCH  27  28
ATOM     28  C   LIG    1      -22.991  81.203  36.135  0.00  0.00    +0.009 C 
ATOM     29  C   LIG    1      -22.917  82.655  36.546  0.00  0.00    +0.005 C 
ATOM     30  C   LIG    1      -24.244  81.955  36.516  0.00  0.00    +0.005 C 
ENDBRANCH  27  28
ENDBRANCH  22  27
ENDBRANCH   1  24
TORSDOF 5
ENDMDL
