MODEL 1
REMARK VINA RESULT:      -6.3      0.000      0.000
REMARK  Name = pdb/CHEMBL3928864.pdb
REMARK                            x       y       z     vdW  Elec       q    Type
REMARK                         _______ _______ _______ _____ _____    ______ ____
ROOT
ATOM      1  C   LIG    1      -36.751  76.485  26.373  0.00  0.00    +0.131 C 
ATOM      2  N   LIG    1      -37.544  77.517  26.044  0.00  0.00    -0.141 NA
ATOM      3  N   LIG    1      -38.625  76.961  25.441  0.00  0.00    -0.201 N 
ATOM      4  C   LIG    1      -38.411  75.601  25.175  0.00  0.00    +0.185 C 
ATOM      5  C   LIG    1      -37.290  75.272  25.887  0.00  0.00    +0.056 C 
ENDROOT
BRANCH   3   6
ATOM      6  C   LIG    1      -39.751  77.773  25.132  0.00  0.00    +0.052 A 
ATOM      7  C   LIG    1      -40.993  77.558  25.741  0.00  0.00    +0.025 A 
ATOM      8  C   LIG    1      -42.077  78.383  25.422  0.00  0.00    +0.002 A 
ATOM      9  C   LIG    1      -41.929  79.416  24.496  0.00  0.00    +0.000 A 
ATOM     10  C   LIG    1      -40.689  79.649  23.907  0.00  0.00    +0.002 A 
ATOM     11  C   LIG    1      -39.596  78.844  24.238  0.00  0.00    +0.025 A 
ENDBRANCH   3   6
BRANCH   4  12
ATOM     12  N   LIG    1      -39.126  74.768  24.292  0.00  0.00    -0.282 N 
ATOM     13  H   LIG    1      -38.763  74.648  23.356  0.00  0.00    +0.152 HD
ATOM     14  C   LIG    1      -40.268  73.991  24.719  0.00  0.00    +0.247 C 
ATOM     15  O   LIG    1      -40.710  74.078  25.845  0.00  0.00    -0.270 OA
BRANCH  14  16
ATOM     16  C   LIG    1      -40.856  73.001  23.788  0.00  0.00    +0.056 A 
ATOM     17  C   LIG    1      -41.980  73.222  23.009  0.00  0.00    +0.054 A 
ATOM     18 CL   LIG    1      -42.947  74.642  23.142  0.00  0.00    -0.083 Cl
ATOM     19  C   LIG    1      -42.395  72.237  22.112  0.00  0.00    +0.041 A 
ATOM     20  C   LIG    1      -41.738  70.994  22.041  0.00  0.00    +0.052 A 
ATOM     21 CL   LIG    1      -42.294  69.939  20.784  0.00  0.00    -0.083 Cl
ATOM     22  C   LIG    1      -40.678  70.674  22.916  0.00  0.00    +0.022 A 
ATOM     23  C   LIG    1      -40.239  71.729  23.750  0.00  0.00    +0.026 A 
BRANCH  22  24
ATOM     24  C   LIG    1      -40.080  69.314  23.061  0.00  0.00    +0.107 A 
ATOM     25  C   LIG    1      -39.194  68.745  22.137  0.00  0.00    +0.149 A 
ATOM     26  F   LIG    1      -38.889  69.355  20.982  0.00  0.00    -0.203 F 
ATOM     27  C   LIG    1      -38.580  67.526  22.407  0.00  0.00    +0.042 A 
ATOM     28  C   LIG    1      -38.868  66.870  23.595  0.00  0.00    +0.023 A 
ATOM     29  C   LIG    1      -39.757  67.474  24.464  0.00  0.00    +0.111 A 
ATOM     30  N   LIG    1      -40.344  68.674  24.230  0.00  0.00    -0.252 NA
ENDBRANCH  22  24
ENDBRANCH  14  16
ENDBRANCH   4  12
BRANCH   1  32
ATOM     31  N   LIG    1      -35.137  77.779  27.529  0.00  0.00    -0.247 NA
ATOM     32  C   LIG    1      -35.485  76.622  27.094  0.00  0.00    +0.233 C 
BRANCH  32  33
ATOM     33  O   LIG    1      -34.773  75.488  27.245  0.00  0.00    -0.491 OA
ATOM     34  H   LIG    1      -34.936  74.886  26.504  0.00  0.00    +0.294 HD
ENDBRANCH  32  33
BRANCH  31  35
ATOM     35  C   LIG    1      -33.895  77.960  28.285  0.00  0.00    +0.176 C 
BRANCH  35  37
ATOM     36  C   LIG    1      -32.194  78.009  26.413  0.00  0.00    +0.039 C 
ATOM     37  C   LIG    1      -32.909  78.821  27.482  0.00  0.00    +0.133 C 
BRANCH  37  38
ATOM     38  O   LIG    1      -33.638  79.861  26.822  0.00  0.00    -0.390 OA
ATOM     39  H   LIG    1      -33.041  80.631  26.774  0.00  0.00    +0.210 HD
ENDBRANCH  37  38
ENDBRANCH  35  37
ENDBRANCH  31  35
ENDBRANCH   1  32
TORSDOF 9
ENDMDL
MODEL 2
REMARK VINA RESULT:      -6.3     15.069     17.331
REMARK  Name = pdb/CHEMBL3928864.pdb
REMARK                            x       y       z     vdW  Elec       q    Type
REMARK                         _______ _______ _______ _____ _____    ______ ____
ROOT
ATOM      1  C   LIG    1      -23.822  78.396  34.263  0.00  0.00    +0.131 C 
ATOM      2  N   LIG    1      -22.736  78.386  33.472  0.00  0.00    -0.141 NA
ATOM      3  N   LIG    1      -22.912  77.332  32.635  0.00  0.00    -0.201 N 
ATOM      4  C   LIG    1      -23.989  76.533  33.048  0.00  0.00    +0.185 C 
ATOM      5  C   LIG    1      -24.645  77.280  33.988  0.00  0.00    +0.056 C 
ENDROOT
BRANCH   3   6
ATOM      6  C   LIG    1      -22.022  77.149  31.542  0.00  0.00    +0.052 A 
ATOM      7  C   LIG    1      -22.487  76.751  30.283  0.00  0.00    +0.025 A 
ATOM      8  C   LIG    1      -21.584  76.591  29.226  0.00  0.00    +0.002 A 
ATOM      9  C   LIG    1      -20.222  76.821  29.421  0.00  0.00    +0.000 A 
ATOM     10  C   LIG    1      -19.759  77.241  30.665  0.00  0.00    +0.002 A 
ATOM     11  C   LIG    1      -20.657  77.425  31.719  0.00  0.00    +0.025 A 
ENDBRANCH   3   6
BRANCH   4  12
ATOM     12  N   LIG    1      -24.284  75.211  32.662  0.00  0.00    -0.282 N 
ATOM     13  H   LIG    1      -23.874  74.458  33.197  0.00  0.00    +0.152 HD
ATOM     14  C   LIG    1      -25.245  74.907  31.625  0.00  0.00    +0.247 C 
ATOM     15  O   LIG    1      -25.788  75.784  30.986  0.00  0.00    -0.270 OA
BRANCH  14  16
ATOM     16  C   LIG    1      -25.641  73.498  31.397  0.00  0.00    +0.056 A 
ATOM     17  C   LIG    1      -26.846  72.944  31.796  0.00  0.00    +0.054 A 
ATOM     18 CL   LIG    1      -27.993  73.793  32.762  0.00  0.00    -0.083 Cl
ATOM     19  C   LIG    1      -27.136  71.622  31.457  0.00  0.00    +0.041 A 
ATOM     20  C   LIG    1      -26.194  70.820  30.785  0.00  0.00    +0.052 A 
ATOM     21 CL   LIG    1      -26.764  69.250  30.322  0.00  0.00    -0.083 Cl
ATOM     22  C   LIG    1      -24.902  71.300  30.487  0.00  0.00    +0.022 A 
ATOM     23  C   LIG    1      -24.680  72.668  30.775  0.00  0.00    +0.026 A 
BRANCH  22  24
ATOM     24  C   LIG    1      -23.778  70.456  29.985  0.00  0.00    +0.107 A 
ATOM     25  C   LIG    1      -23.654  70.022  28.659  0.00  0.00    +0.149 A 
ATOM     26  F   LIG    1      -24.609  70.260  27.747  0.00  0.00    -0.203 F 
ATOM     27  C   LIG    1      -22.512  69.346  28.241  0.00  0.00    +0.042 A 
ATOM     28  C   LIG    1      -21.503  69.089  29.157  0.00  0.00    +0.023 A 
ATOM     29  C   LIG    1      -21.685  69.531  30.454  0.00  0.00    +0.111 A 
ATOM     30  N   LIG    1      -22.777  70.215  30.873  0.00  0.00    -0.252 NA
ENDBRANCH  22  24
ENDBRANCH  14  16
ENDBRANCH   4  12
BRANCH   1  32
ATOM     31  N   LIG    1      -23.084  79.886  35.952  0.00  0.00    -0.247 NA
ATOM     32  C   LIG    1      -24.076  79.404  35.292  0.00  0.00    +0.233 C 
BRANCH  32  33
ATOM     33  O   LIG    1      -25.367  79.751  35.464  0.00  0.00    -0.491 OA
ATOM     34  H   LIG    1      -25.438  80.486  36.090  0.00  0.00    +0.294 HD
ENDBRANCH  32  33
BRANCH  31  35
ATOM     35  C   LIG    1      -23.285  80.922  36.969  0.00  0.00    +0.176 C 
BRANCH  35  37
ATOM     36  C   LIG    1      -21.091  81.702  35.980  0.00  0.00    +0.039 C 
ATOM     37  C   LIG    1      -22.371  82.122  36.686  0.00  0.00    +0.133 C 
BRANCH  37  38
ATOM     38  O   LIG    1      -23.062  83.034  35.826  0.00  0.00    -0.390 OA
ATOM     39  H   LIG    1      -22.412  83.709  35.556  0.00  0.00    +0.210 HD
ENDBRANCH  37  38
ENDBRANCH  35  37
ENDBRANCH  31  35
ENDBRANCH   1  32
TORSDOF 9
ENDMDL
MODEL 3
REMARK VINA RESULT:      -6.1      3.937      9.254
REMARK  Name = pdb/CHEMBL3928864.pdb
REMARK                            x       y       z     vdW  Elec       q    Type
REMARK                         _______ _______ _______ _____ _____    ______ ____
ROOT
ATOM      1  C   LIG    1      -40.783  73.198  23.785  0.00  0.00    +0.131 C 
ATOM      2  N   LIG    1      -41.019  74.491  24.059  0.00  0.00    -0.141 NA
ATOM      3  N   LIG    1      -39.824  74.997  24.457  0.00  0.00    -0.201 N 
ATOM      4  C   LIG    1      -38.886  73.975  24.663  0.00  0.00    +0.185 C 
ATOM      5  C   LIG    1      -39.448  72.860  24.105  0.00  0.00    +0.056 C 
ENDROOT
BRANCH   3   6
ATOM      6  C   LIG    1      -39.685  76.399  24.647  0.00  0.00    +0.052 A 
ATOM      7  C   LIG    1      -39.665  77.283  23.562  0.00  0.00    +0.025 A 
ATOM      8  C   LIG    1      -39.538  78.659  23.787  0.00  0.00    +0.002 A 
ATOM      9  C   LIG    1      -39.425  79.154  25.085  0.00  0.00    +0.000 A 
ATOM     10  C   LIG    1      -39.470  78.281  26.169  0.00  0.00    +0.002 A 
ATOM     11  C   LIG    1      -39.620  76.908  25.954  0.00  0.00    +0.025 A 
ENDBRANCH   3   6
BRANCH   4  12
ATOM     12  N   LIG    1      -37.672  74.045  25.374  0.00  0.00    -0.282 N 
ATOM     13  H   LIG    1      -36.827  74.232  24.851  0.00  0.00    +0.152 HD
ATOM     14  C   LIG    1      -37.619  73.990  26.818  0.00  0.00    +0.247 C 
ATOM     15  O   LIG    1      -38.617  73.806  27.483  0.00  0.00    -0.270 OA
BRANCH  14  16
ATOM     16  C   LIG    1      -36.334  74.252  27.504  0.00  0.00    +0.056 A 
ATOM     17  C   LIG    1      -35.661  73.336  28.296  0.00  0.00    +0.054 A 
ATOM     18 CL   LIG    1      -36.322  71.803  28.720  0.00  0.00    -0.083 Cl
ATOM     19  C   LIG    1      -34.418  73.676  28.829  0.00  0.00    +0.041 A 
ATOM     20  C   LIG    1      -33.871  74.960  28.639  0.00  0.00    +0.052 A 
ATOM     21 CL   LIG    1      -32.263  75.171  29.251  0.00  0.00    -0.083 Cl
ATOM     22  C   LIG    1      -34.586  75.968  27.961  0.00  0.00    +0.022 A 
ATOM     23  C   LIG    1      -35.804  75.557  27.368  0.00  0.00    +0.026 A 
BRANCH  22  24
ATOM     24  C   LIG    1      -34.185  77.405  27.910  0.00  0.00    +0.107 A 
ATOM     25  C   LIG    1      -33.129  77.897  27.132  0.00  0.00    +0.149 A 
ATOM     26  F   LIG    1      -32.324  77.081  26.436  0.00  0.00    -0.203 F 
ATOM     27  C   LIG    1      -32.899  79.267  27.040  0.00  0.00    +0.042 A 
ATOM     28  C   LIG    1      -33.716  80.140  27.742  0.00  0.00    +0.023 A 
ATOM     29  C   LIG    1      -34.735  79.597  28.502  0.00  0.00    +0.111 A 
ATOM     30  N   LIG    1      -34.992  78.268  28.582  0.00  0.00    -0.252 NA
ENDBRANCH  22  24
ENDBRANCH  14  16
ENDBRANCH   4  12
BRANCH   1  32
ATOM     31  N   LIG    1      -41.430  71.095  22.904  0.00  0.00    -0.247 NA
ATOM     32  C   LIG    1      -41.792  72.272  23.271  0.00  0.00    +0.233 C 
BRANCH  32  33
ATOM     33  O   LIG    1      -43.053  72.746  23.227  0.00  0.00    -0.491 OA
ATOM     34  H   LIG    1      -43.130  73.438  22.553  0.00  0.00    +0.294 HD
ENDBRANCH  32  33
BRANCH  31  35
ATOM     35  C   LIG    1      -42.409  70.121  22.414  0.00  0.00    +0.176 C 
BRANCH  35  37
ATOM     36  C   LIG    1      -42.717  70.906  20.029  0.00  0.00    +0.039 C 
ATOM     37  C   LIG    1      -42.154  69.818  20.931  0.00  0.00    +0.133 C 
BRANCH  37  38
ATOM     38  O   LIG    1      -40.741  69.757  20.709  0.00  0.00    -0.390 OA
ATOM     39  H   LIG    1      -40.378  70.615  20.997  0.00  0.00    +0.210 HD
ENDBRANCH  37  38
ENDBRANCH  35  37
ENDBRANCH  31  35
ENDBRANCH   1  32
TORSDOF 9
ENDMDL
MODEL 4
REMARK VINA RESULT:      -6.1      2.899      3.635
REMARK  Name = pdb/CHEMBL3928864.pdb
REMARK                            x       y       z     vdW  Elec       q    Type
REMARK                         _______ _______ _______ _____ _____    ______ ____
ROOT
ATOM      1  C   LIG    1      -37.058  76.945  26.952  0.00  0.00    +0.131 C 
ATOM      2  N   LIG    1      -38.035  77.184  26.063  0.00  0.00    -0.141 NA
ATOM      3  N   LIG    1      -38.368  75.968  25.560  0.00  0.00    -0.201 N 
ATOM      4  C   LIG    1      -37.443  74.989  25.952  0.00  0.00    +0.185 C 
ATOM      5  C   LIG    1      -36.701  75.577  26.940  0.00  0.00    +0.056 C 
ENDROOT
BRANCH   3   6
ATOM      6  C   LIG    1      -39.508  75.845  24.720  0.00  0.00    +0.052 A 
ATOM      7  C   LIG    1      -40.176  74.624  24.572  0.00  0.00    +0.025 A 
ATOM      8  C   LIG    1      -41.302  74.541  23.745  0.00  0.00    +0.002 A 
ATOM      9  C   LIG    1      -41.759  75.668  23.062  0.00  0.00    +0.000 A 
ATOM     10  C   LIG    1      -41.113  76.891  23.226  0.00  0.00    +0.002 A 
ATOM     11  C   LIG    1      -40.003  76.986  24.068  0.00  0.00    +0.025 A 
ENDBRANCH   3   6
BRANCH   4  12
ATOM     12  N   LIG    1      -37.244  73.712  25.392  0.00  0.00    -0.282 N 
ATOM     13  H   LIG    1      -36.711  73.649  24.536  0.00  0.00    +0.152 HD
ATOM     14  C   LIG    1      -37.660  72.502  26.065  0.00  0.00    +0.247 C 
ATOM     15  O   LIG    1      -38.268  72.536  27.114  0.00  0.00    -0.270 OA
BRANCH  14  16
ATOM     16  C   LIG    1      -37.256  71.191  25.507  0.00  0.00    +0.056 A 
ATOM     17  C   LIG    1      -36.066  70.544  25.796  0.00  0.00    +0.054 A 
ATOM     18 CL   LIG    1      -34.811  71.265  26.730  0.00  0.00    -0.083 Cl
ATOM     19  C   LIG    1      -35.833  69.274  25.266  0.00  0.00    +0.041 A 
ATOM     20  C   LIG    1      -36.750  68.673  24.384  0.00  0.00    +0.052 A 
ATOM     21 CL   LIG    1      -36.373  67.044  23.928  0.00  0.00    -0.083 Cl
ATOM     22  C   LIG    1      -37.907  69.356  23.953  0.00  0.00    +0.022 A 
ATOM     23  C   LIG    1      -38.145  70.604  24.576  0.00  0.00    +0.026 A 
BRANCH  22  24
ATOM     24  C   LIG    1      -38.808  68.890  22.858  0.00  0.00    +0.107 A 
ATOM     25  C   LIG    1      -38.430  68.809  21.512  0.00  0.00    +0.149 A 
ATOM     26  F   LIG    1      -37.235  69.246  21.087  0.00  0.00    -0.203 F 
ATOM     27  C   LIG    1      -39.285  68.243  20.571  0.00  0.00    +0.042 A 
ATOM     28  C   LIG    1      -40.526  67.776  20.977  0.00  0.00    +0.023 A 
ATOM     29  C   LIG    1      -40.849  67.891  22.316  0.00  0.00    +0.111 A 
ATOM     30  N   LIG    1      -40.019  68.414  23.251  0.00  0.00    -0.252 NA
ENDBRANCH  22  24
ENDBRANCH  14  16
ENDBRANCH   4  12
BRANCH   1  32
ATOM     31  N   LIG    1      -35.147  78.004  27.872  0.00  0.00    -0.247 NA
ATOM     32  C   LIG    1      -36.428  77.978  27.775  0.00  0.00    +0.233 C 
BRANCH  32  33
ATOM     33  O   LIG    1      -37.271  78.840  28.377  0.00  0.00    -0.491 OA
ATOM     34  H   LIG    1      -37.076  79.749  28.105  0.00  0.00    +0.294 HD
ENDBRANCH  32  33
BRANCH  31  35
ATOM     35  C   LIG    1      -34.469  79.039  28.658  0.00  0.00    +0.176 C 
BRANCH  35  37
ATOM     36  C   LIG    1      -32.704  78.968  26.847  0.00  0.00    +0.039 C 
ATOM     37  C   LIG    1      -33.538  79.860  27.755  0.00  0.00    +0.133 C 
BRANCH  37  38
ATOM     38  O   LIG    1      -34.334  80.706  26.919  0.00  0.00    -0.390 OA
ATOM     39  H   LIG    1      -34.304  80.321  26.024  0.00  0.00    +0.210 HD
ENDBRANCH  37  38
ENDBRANCH  35  37
ENDBRANCH  31  35
ENDBRANCH   1  32
TORSDOF 9
ENDMDL
MODEL 5
REMARK VINA RESULT:      -6.0     13.272     20.041
REMARK  Name = pdb/CHEMBL3928864.pdb
REMARK                            x       y       z     vdW  Elec       q    Type
REMARK                         _______ _______ _______ _____ _____    ______ ____
ROOT
ATOM      1  C   LIG    1      -26.849  76.349  32.053  0.00  0.00    +0.131 C 
ATOM      2  N   LIG    1      -25.867  76.109  31.170  0.00  0.00    -0.141 NA
ATOM      3  N   LIG    1      -24.771  76.729  31.675  0.00  0.00    -0.201 N 
ATOM      4  C   LIG    1      -25.112  77.559  32.753  0.00  0.00    +0.185 C 
ATOM      5  C   LIG    1      -26.394  77.211  33.077  0.00  0.00    +0.056 C 
ENDROOT
BRANCH   3   6
ATOM      6  C   LIG    1      -23.503  76.515  31.069  0.00  0.00    +0.052 A 
ATOM      7  C   LIG    1      -23.185  77.074  29.826  0.00  0.00    +0.025 A 
ATOM      8  C   LIG    1      -21.923  76.852  29.264  0.00  0.00    +0.002 A 
ATOM      9  C   LIG    1      -20.981  76.070  29.933  0.00  0.00    +0.000 A 
ATOM     10  C   LIG    1      -21.284  75.532  31.181  0.00  0.00    +0.002 A 
ATOM     11  C   LIG    1      -22.533  75.769  31.759  0.00  0.00    +0.025 A 
ENDBRANCH   3   6
BRANCH   4  12
ATOM     12  N   LIG    1      -24.348  78.597  33.322  0.00  0.00    -0.282 N 
ATOM     13  H   LIG    1      -24.555  79.546  33.041  0.00  0.00    +0.152 HD
ATOM     14  C   LIG    1      -23.386  78.358  34.375  0.00  0.00    +0.247 C 
ATOM     15  O   LIG    1      -23.139  77.237  34.767  0.00  0.00    -0.270 OA
BRANCH  14  16
ATOM     16  C   LIG    1      -22.755  79.514  35.052  0.00  0.00    +0.056 A 
ATOM     17  C   LIG    1      -21.444  79.920  34.861  0.00  0.00    +0.054 A 
ATOM     18 CL   LIG    1      -20.315  79.023  33.919  0.00  0.00    -0.083 Cl
ATOM     19  C   LIG    1      -20.985  81.072  35.500  0.00  0.00    +0.041 A 
ATOM     20  C   LIG    1      -21.807  81.786  36.393  0.00  0.00    +0.052 A 
ATOM     21 CL   LIG    1      -21.130  83.264  36.993  0.00  0.00    -0.083 Cl
ATOM     22  C   LIG    1      -23.099  81.328  36.725  0.00  0.00    +0.022 A 
ATOM     23  C   LIG    1      -23.553  80.204  35.994  0.00  0.00    +0.026 A 
BRANCH  22  24
ATOM     24  C   LIG    1      -23.943  81.891  37.820  0.00  0.00    +0.107 A 
ATOM     25  C   LIG    1      -24.922  82.875  37.629  0.00  0.00    +0.149 A 
ATOM     26  F   LIG    1      -25.109  83.463  36.438  0.00  0.00    -0.203 F 
ATOM     27  C   LIG    1      -25.754  83.255  38.677  0.00  0.00    +0.042 A 
ATOM     28  C   LIG    1      -25.593  82.662  39.920  0.00  0.00    +0.023 A 
ATOM     29  C   LIG    1      -24.604  81.706  40.053  0.00  0.00    +0.111 A 
ATOM     30  N   LIG    1      -23.802  81.302  39.037  0.00  0.00    -0.252 NA
ENDBRANCH  22  24
ENDBRANCH  14  16
ENDBRANCH   4  12
BRANCH   1  32
ATOM     31  N   LIG    1      -29.125  76.570  31.431  0.00  0.00    -0.247 NA
ATOM     32  C   LIG    1      -28.209  75.822  31.931  0.00  0.00    +0.233 C 
BRANCH  32  33
ATOM     33  O   LIG    1      -28.387  74.558  32.365  0.00  0.00    -0.491 OA
ATOM     34  H   LIG    1      -27.580  74.229  32.786  0.00  0.00    +0.294 HD
ENDBRANCH  32  33
BRANCH  31  35
ATOM     35  C   LIG    1      -30.494  76.075  31.257  0.00  0.00    +0.176 C 
BRANCH  35  37
ATOM     36  C   LIG    1      -31.775  74.827  29.468  0.00  0.00    +0.039 C 
ATOM     37  C   LIG    1      -30.836  75.987  29.763  0.00  0.00    +0.133 C 
BRANCH  37  38
ATOM     38  O   LIG    1      -31.500  77.193  29.371  0.00  0.00    -0.390 OA
ATOM     39  H   LIG    1      -31.089  77.477  28.533  0.00  0.00    +0.210 HD
ENDBRANCH  37  38
ENDBRANCH  35  37
ENDBRANCH  31  35
ENDBRANCH   1  32
TORSDOF 9
ENDMDL
MODEL 6
REMARK VINA RESULT:      -6.0      1.901      2.285
REMARK  Name = pdb/CHEMBL3928864.pdb
REMARK                            x       y       z     vdW  Elec       q    Type
REMARK                         _______ _______ _______ _____ _____    ______ ____
ROOT
ATOM      1  C   LIG    1      -36.593  76.558  26.731  0.00  0.00    +0.131 C 
ATOM      2  N   LIG    1      -37.532  77.335  26.167  0.00  0.00    -0.141 NA
ATOM      3  N   LIG    1      -38.377  76.478  25.539  0.00  0.00    -0.201 N 
ATOM      4  C   LIG    1      -37.847  75.181  25.504  0.00  0.00    +0.185 C 
ATOM      5  C   LIG    1      -36.792  75.204  26.375  0.00  0.00    +0.056 C 
ENDROOT
BRANCH   3   6
ATOM      6  C   LIG    1      -39.594  76.969  24.993  0.00  0.00    +0.052 A 
ATOM      7  C   LIG    1      -40.136  76.430  23.820  0.00  0.00    +0.025 A 
ATOM      8  C   LIG    1      -41.342  76.930  23.316  0.00  0.00    +0.002 A 
ATOM      9  C   LIG    1      -42.004  77.968  23.972  0.00  0.00    +0.000 A 
ATOM     10  C   LIG    1      -41.482  78.490  25.152  0.00  0.00    +0.002 A 
ATOM     11  C   LIG    1      -40.291  77.980  25.674  0.00  0.00    +0.025 A 
ENDBRANCH   3   6
BRANCH   4  12
ATOM     12  N   LIG    1      -38.240  74.107  24.682  0.00  0.00    -0.282 N 
ATOM     13  H   LIG    1      -37.775  73.997  23.791  0.00  0.00    +0.152 HD
ATOM     14  C   LIG    1      -39.178  73.100  25.125  0.00  0.00    +0.247 C 
ATOM     15  O   LIG    1      -39.728  73.175  26.204  0.00  0.00    -0.270 OA
BRANCH  14  16
ATOM     16  C   LIG    1      -39.405  71.903  24.283  0.00  0.00    +0.056 A 
ATOM     17  C   LIG    1      -40.563  71.653  23.564  0.00  0.00    +0.054 A 
ATOM     18 CL   LIG    1      -41.972  72.638  23.686  0.00  0.00    -0.083 Cl
ATOM     19  C   LIG    1      -40.629  70.526  22.745  0.00  0.00    +0.041 A 
ATOM     20  C   LIG    1      -39.571  69.600  22.695  0.00  0.00    +0.052 A 
ATOM     21 CL   LIG    1      -39.758  68.332  21.528  0.00  0.00    -0.083 Cl
ATOM     22  C   LIG    1      -38.433  69.741  23.517  0.00  0.00    +0.022 A 
ATOM     23  C   LIG    1      -38.372  70.938  24.270  0.00  0.00    +0.026 A 
BRANCH  22  24
ATOM     24  C   LIG    1      -37.378  68.700  23.692  0.00  0.00    +0.107 A 
ATOM     25  C   LIG    1      -37.443  67.668  24.637  0.00  0.00    +0.149 A 
ATOM     26  F   LIG    1      -38.436  67.596  25.537  0.00  0.00    -0.203 F 
ATOM     27  C   LIG    1      -36.482  66.662  24.651  0.00  0.00    +0.042 A 
ATOM     28  C   LIG    1      -35.445  66.702  23.730  0.00  0.00    +0.023 A 
ATOM     29  C   LIG    1      -35.426  67.749  22.829  0.00  0.00    +0.111 A 
ATOM     30  N   LIG    1      -36.369  68.722  22.781  0.00  0.00    -0.252 NA
ENDBRANCH  22  24
ENDBRANCH  14  16
ENDBRANCH   4  12
BRANCH   1  32
ATOM     31  N   LIG    1      -35.392  78.332  27.745  0.00  0.00    -0.247 NA
ATOM     32  C   LIG    1      -35.497  77.066  27.557  0.00  0.00    +0.233 C 
BRANCH  32  33
ATOM     33  O   LIG    1      -34.668  76.133  28.065  0.00  0.00    -0.491 OA
ATOM     34  H   LIG    1      -33.947  76.553  28.556  0.00  0.00    +0.294 HD
ENDBRANCH  32  33
BRANCH  31  35
ATOM     35  C   LIG    1      -34.332  78.886  28.591  0.00  0.00    +0.176 C 
BRANCH  35  37
ATOM     36  C   LIG    1      -32.507  79.066  26.848  0.00  0.00    +0.039 C 
ATOM     37  C   LIG    1      -33.443  79.831  27.771  0.00  0.00    +0.133 C 
BRANCH  37  38
ATOM     38  O   LIG    1      -34.279  80.657  26.954  0.00  0.00    -0.390 OA
ATOM     39  H   LIG    1      -34.670  81.327  27.544  0.00  0.00    +0.210 HD
ENDBRANCH  37  38
ENDBRANCH  35  37
ENDBRANCH  31  35
ENDBRANCH   1  32
TORSDOF 9
ENDMDL
MODEL 7
REMARK VINA RESULT:      -5.9      7.886     13.347
REMARK  Name = pdb/CHEMBL3928864.pdb
REMARK                            x       y       z     vdW  Elec       q    Type
REMARK                         _______ _______ _______ _____ _____    ______ ____
ROOT
ATOM      1  C   LIG    1      -33.474  73.420  28.658  0.00  0.00    +0.131 C 
ATOM      2  N   LIG    1      -33.926  74.637  28.317  0.00  0.00    -0.141 NA
ATOM      3  N   LIG    1      -32.913  75.491  28.611  0.00  0.00    -0.201 N 
ATOM      4  C   LIG    1      -31.912  74.850  29.356  0.00  0.00    +0.185 C 
ATOM      5  C   LIG    1      -32.201  73.516  29.264  0.00  0.00    +0.056 C 
ENDROOT
BRANCH   3   6
ATOM      6  C   LIG    1      -32.997  76.848  28.197  0.00  0.00    +0.052 A 
ATOM      7  C   LIG    1      -32.235  77.333  27.128  0.00  0.00    +0.025 A 
ATOM      8  C   LIG    1      -32.351  78.672  26.740  0.00  0.00    +0.002 A 
ATOM      9  C   LIG    1      -33.219  79.529  27.416  0.00  0.00    +0.000 A 
ATOM     10  C   LIG    1      -33.999  79.046  28.463  0.00  0.00    +0.002 A 
ATOM     11  C   LIG    1      -33.905  77.704  28.841  0.00  0.00    +0.025 A 
ENDBRANCH   3   6
BRANCH   4  12
ATOM     12  N   LIG    1      -30.888  75.443  30.120  0.00  0.00    -0.282 N 
ATOM     13  H   LIG    1      -30.430  76.262  29.744  0.00  0.00    +0.152 HD
ATOM     14  C   LIG    1      -30.571  75.001  31.460  0.00  0.00    +0.247 C 
ATOM     15  O   LIG    1      -31.127  74.047  31.962  0.00  0.00    -0.270 OA
BRANCH  14  16
ATOM     16  C   LIG    1      -29.612  75.785  32.271  0.00  0.00    +0.056 A 
ATOM     17  C   LIG    1      -29.934  76.466  33.434  0.00  0.00    +0.054 A 
ATOM     18 CL   LIG    1      -31.550  76.622  34.010  0.00  0.00    -0.083 Cl
ATOM     19  C   LIG    1      -28.925  77.108  34.152  0.00  0.00    +0.041 A 
ATOM     20  C   LIG    1      -27.600  77.140  33.676  0.00  0.00    +0.052 A 
ATOM     21 CL   LIG    1      -26.449  77.860  34.753  0.00  0.00    -0.083 Cl
ATOM     22  C   LIG    1      -27.257  76.583  32.426  0.00  0.00    +0.022 A 
ATOM     23  C   LIG    1      -28.292  75.873  31.772  0.00  0.00    +0.026 A 
BRANCH  22  24
ATOM     24  C   LIG    1      -25.940  76.768  31.748  0.00  0.00    +0.107 A 
ATOM     25  C   LIG    1      -24.924  75.804  31.732  0.00  0.00    +0.149 A 
ATOM     26  F   LIG    1      -25.027  74.657  32.421  0.00  0.00    -0.203 F 
ATOM     27  C   LIG    1      -23.776  76.001  30.971  0.00  0.00    +0.042 A 
ATOM     28  C   LIG    1      -23.639  77.172  30.241  0.00  0.00    +0.023 A 
ATOM     29  C   LIG    1      -24.669  78.092  30.303  0.00  0.00    +0.111 A 
ATOM     30  N   LIG    1      -25.806  77.906  31.017  0.00  0.00    -0.252 NA
ENDBRANCH  22  24
ENDBRANCH  14  16
ENDBRANCH   4  12
BRANCH   1  32
ATOM     31  N   LIG    1      -34.596  71.853  27.278  0.00  0.00    -0.247 NA
ATOM     32  C   LIG    1      -34.229  72.181  28.465  0.00  0.00    +0.233 C 
BRANCH  32  33
ATOM     33  O   LIG    1      -34.482  71.470  29.581  0.00  0.00    -0.491 OA
ATOM     34  H   LIG    1      -34.115  71.918  30.357  0.00  0.00    +0.294 HD
ENDBRANCH  32  33
BRANCH  31  35
ATOM     35  C   LIG    1      -35.325  70.606  27.029  0.00  0.00    +0.176 C 
BRANCH  35  37
ATOM     36  C   LIG    1      -35.070  68.206  26.272  0.00  0.00    +0.039 C 
ATOM     37  C   LIG    1      -34.377  69.549  26.445  0.00  0.00    +0.133 C 
BRANCH  37  38
ATOM     38  O   LIG    1      -33.944  69.984  25.152  0.00  0.00    -0.390 OA
ATOM     39  H   LIG    1      -33.080  69.562  24.992  0.00  0.00    +0.210 HD
ENDBRANCH  37  38
ENDBRANCH  35  37
ENDBRANCH  31  35
ENDBRANCH   1  32
TORSDOF 9
ENDMDL
MODEL 8
REMARK VINA RESULT:      -5.9     18.211     20.738
REMARK  Name = pdb/CHEMBL3928864.pdb
REMARK                            x       y       z     vdW  Elec       q    Type
REMARK                         _______ _______ _______ _____ _____    ______ ____
ROOT
ATOM      1  C   LIG    1      -22.050  83.187  13.981  0.00  0.00    +0.131 C 
ATOM      2  N   LIG    1      -21.054  82.722  14.753  0.00  0.00    -0.141 NA
ATOM      3  N   LIG    1      -21.016  81.386  14.521  0.00  0.00    -0.201 N 
ATOM      4  C   LIG    1      -22.136  80.967  13.789  0.00  0.00    +0.185 C 
ATOM      5  C   LIG    1      -22.711  82.121  13.331  0.00  0.00    +0.056 C 
ENDROOT
BRANCH   3   6
ATOM      6  C   LIG    1      -19.944  80.614  15.048  0.00  0.00    +0.052 A 
ATOM      7  C   LIG    1      -20.127  79.769  16.149  0.00  0.00    +0.025 A 
ATOM      8  C   LIG    1      -19.052  79.015  16.635  0.00  0.00    +0.002 A 
ATOM      9  C   LIG    1      -17.798  79.105  16.032  0.00  0.00    +0.000 A 
ATOM     10  C   LIG    1      -17.618  79.924  14.920  0.00  0.00    +0.002 A 
ATOM     11  C   LIG    1      -18.691  80.662  14.416  0.00  0.00    +0.025 A 
ENDBRANCH   3   6
BRANCH   4  12
ATOM     12  N   LIG    1      -22.629  79.657  13.633  0.00  0.00    -0.282 N 
ATOM     13  H   LIG    1      -22.374  79.151  12.796  0.00  0.00    +0.152 HD
ATOM     14  C   LIG    1      -23.364  78.981  14.679  0.00  0.00    +0.247 C 
ATOM     15  O   LIG    1      -23.655  79.541  15.715  0.00  0.00    -0.270 OA
BRANCH  14  16
ATOM     16  C   LIG    1      -23.691  77.545  14.519  0.00  0.00    +0.056 A 
ATOM     17  C   LIG    1      -24.677  77.050  13.681  0.00  0.00    +0.054 A 
ATOM     18 CL   LIG    1      -25.773  78.065  12.824  0.00  0.00    -0.083 Cl
ATOM     19  C   LIG    1      -24.841  75.670  13.560  0.00  0.00    +0.041 A 
ATOM     20  C   LIG    1      -24.074  74.775  14.330  0.00  0.00    +0.052 A 
ATOM     21 CL   LIG    1      -24.308  73.098  13.958  0.00  0.00    -0.083 Cl
ATOM     22  C   LIG    1      -23.160  75.240  15.298  0.00  0.00    +0.022 A 
ATOM     23  C   LIG    1      -22.967  76.641  15.330  0.00  0.00    +0.026 A 
BRANCH  22  24
ATOM     24  C   LIG    1      -22.478  74.374  16.305  0.00  0.00    +0.107 A 
ATOM     25  C   LIG    1      -21.101  74.114  16.312  0.00  0.00    +0.149 A 
ATOM     26  F   LIG    1      -20.294  74.558  15.337  0.00  0.00    -0.203 F 
ATOM     27  C   LIG    1      -20.523  73.401  17.358  0.00  0.00    +0.042 A 
ATOM     28  C   LIG    1      -21.328  72.933  18.386  0.00  0.00    +0.023 A 
ATOM     29  C   LIG    1      -22.680  73.210  18.320  0.00  0.00    +0.111 A 
ATOM     30  N   LIG    1      -23.257  73.926  17.324  0.00  0.00    -0.252 NA
ENDBRANCH  22  24
ENDBRANCH  14  16
ENDBRANCH   4  12
BRANCH   1  32
ATOM     31  N   LIG    1      -21.811  85.457  14.621  0.00  0.00    -0.247 NA
ATOM     32  C   LIG    1      -22.416  84.600  13.879  0.00  0.00    +0.233 C 
BRANCH  32  33
ATOM     33  O   LIG    1      -23.383  84.890  12.987  0.00  0.00    -0.491 OA
ATOM     34  H   LIG    1      -23.173  84.506  12.124  0.00  0.00    +0.294 HD
ENDBRANCH  32  33
BRANCH  31  35
ATOM     35  C   LIG    1      -22.118  86.887  14.531  0.00  0.00    +0.176 C 
BRANCH  35  37
ATOM     36  C   LIG    1      -21.307  89.041  13.482  0.00  0.00    +0.039 C 
ATOM     37  C   LIG    1      -20.917  87.649  13.954  0.00  0.00    +0.133 C 
BRANCH  37  38
ATOM     38  O   LIG    1      -19.931  87.799  14.981  0.00  0.00    -0.390 OA
ATOM     39  H   LIG    1      -19.248  88.397  14.626  0.00  0.00    +0.210 HD
ENDBRANCH  37  38
ENDBRANCH  35  37
ENDBRANCH  31  35
ENDBRANCH   1  32
TORSDOF 9
ENDMDL
MODEL 9
REMARK VINA RESULT:      -5.9     14.304     16.465
REMARK  Name = pdb/CHEMBL3928864.pdb
REMARK                            x       y       z     vdW  Elec       q    Type
REMARK                         _______ _______ _______ _____ _____    ______ ____
ROOT
ATOM      1  C   LIG    1      -28.547  77.505  12.073  0.00  0.00    +0.131 C 
ATOM      2  N   LIG    1      -27.648  78.294  12.684  0.00  0.00    -0.141 NA
ATOM      3  N   LIG    1      -26.905  77.461  13.455  0.00  0.00    -0.201 N 
ATOM      4  C   LIG    1      -27.480  76.183  13.519  0.00  0.00    +0.185 C 
ATOM      5  C   LIG    1      -28.434  76.174  12.538  0.00  0.00    +0.056 C 
ENDROOT
BRANCH   3   6
ATOM      6  C   LIG    1      -25.737  77.956  14.098  0.00  0.00    +0.052 A 
ATOM      7  C   LIG    1      -25.814  78.942  15.089  0.00  0.00    +0.025 A 
ATOM      8  C   LIG    1      -24.645  79.398  15.709  0.00  0.00    +0.002 A 
ATOM      9  C   LIG    1      -23.404  78.881  15.341  0.00  0.00    +0.000 A 
ATOM     10  C   LIG    1      -23.325  77.882  14.374  0.00  0.00    +0.002 A 
ATOM     11  C   LIG    1      -24.489  77.405  13.767  0.00  0.00    +0.025 A 
ENDBRANCH   3   6
BRANCH   4  12
ATOM     12  N   LIG    1      -27.214  75.159  14.448  0.00  0.00    -0.282 N 
ATOM     13  H   LIG    1      -27.689  75.193  15.339  0.00  0.00    +0.152 HD
ATOM     14  C   LIG    1      -26.398  74.011  14.118  0.00  0.00    +0.247 C 
ATOM     15  O   LIG    1      -25.842  73.915  13.044  0.00  0.00    -0.270 OA
BRANCH  14  16
ATOM     16  C   LIG    1      -26.311  72.887  15.078  0.00  0.00    +0.056 A 
ATOM     17  C   LIG    1      -25.139  72.236  15.426  0.00  0.00    +0.054 A 
ATOM     18 CL   LIG    1      -23.631  72.548  14.655  0.00  0.00    -0.083 Cl
ATOM     19  C   LIG    1      -25.174  71.239  16.401  0.00  0.00    +0.041 A 
ATOM     20  C   LIG    1      -26.390  70.832  16.982  0.00  0.00    +0.052 A 
ATOM     21 CL   LIG    1      -26.241  69.681  18.270  0.00  0.00    -0.083 Cl
ATOM     22  C   LIG    1      -27.623  71.369  16.555  0.00  0.00    +0.022 A 
ATOM     23  C   LIG    1      -27.534  72.432  15.625  0.00  0.00    +0.026 A 
BRANCH  22  24
ATOM     24  C   LIG    1      -28.961  70.840  16.951  0.00  0.00    +0.107 A 
ATOM     25  C   LIG    1      -29.836  71.496  17.827  0.00  0.00    +0.149 A 
ATOM     26  F   LIG    1      -29.485  72.625  18.461  0.00  0.00    -0.203 F 
ATOM     27  C   LIG    1      -31.118  71.001  18.046  0.00  0.00    +0.042 A 
ATOM     28  C   LIG    1      -31.515  69.839  17.402  0.00  0.00    +0.023 A 
ATOM     29  C   LIG    1      -30.607  69.229  16.558  0.00  0.00    +0.111 A 
ATOM     30  N   LIG    1      -29.364  69.711  16.310  0.00  0.00    -0.252 NA
ENDBRANCH  22  24
ENDBRANCH  14  16
ENDBRANCH   4  12
BRANCH   1  32
ATOM     31  N   LIG    1      -30.255  79.001  11.396  0.00  0.00    -0.247 NA
ATOM     32  C   LIG    1      -29.530  77.983  11.100  0.00  0.00    +0.233 C 
BRANCH  32  33
ATOM     33  O   LIG    1      -29.590  77.294   9.944  0.00  0.00    -0.491 OA
ATOM     34  H   LIG    1      -28.723  77.279   9.514  0.00  0.00    +0.294 HD
ENDBRANCH  32  33
BRANCH  31  35
ATOM     35  C   LIG    1      -31.230  79.537  10.442  0.00  0.00    +0.176 C 
BRANCH  35  37
ATOM     36  C   LIG    1      -33.194  77.949  10.310  0.00  0.00    +0.039 C 
ATOM     37  C   LIG    1      -32.657  79.234  10.920  0.00  0.00    +0.133 C 
BRANCH  37  38
ATOM     38  O   LIG    1      -32.641  79.067  12.341  0.00  0.00    -0.390 OA
ATOM     39  H   LIG    1      -32.798  79.949  12.726  0.00  0.00    +0.210 HD
ENDBRANCH  37  38
ENDBRANCH  35  37
ENDBRANCH  31  35
ENDBRANCH   1  32
TORSDOF 9
ENDMDL
