MODEL 1
REMARK VINA RESULT:      -5.6      0.000      0.000
REMARK  Name = pdb/CHEMBL3675956.pdb
REMARK                            x       y       z     vdW  Elec       q    Type
REMARK                         _______ _______ _______ _____ _____    ______ ____
ROOT
ATOM      1  C   LIG    1      -36.877  72.397  27.144  0.00  0.00    +0.100 A 
ATOM      2  C   LIG    1      -35.689  72.599  27.821  0.00  0.00    +0.170 A 
ATOM      3  N   LIG    1      -35.093  73.720  28.339  0.00  0.00    -0.212 NA
ATOM      4  C   LIG    1      -33.909  73.596  28.913  0.00  0.00    +0.126 A 
ATOM      5  C   LIG    1      -33.202  72.263  29.000  0.00  0.00    +0.063 A 
ATOM      6  C   LIG    1      -33.834  71.200  28.495  0.00  0.00    +0.118 A 
ATOM      7  N   LIG    1      -35.075  71.343  27.899  0.00  0.00    -0.221 N 
ATOM      8  N   LIG    1      -35.821  70.368  27.333  0.00  0.00    -0.173 NA
ATOM      9  C   LIG    1      -36.884  71.008  26.857  0.00  0.00    +0.150 A 
ENDROOT
BRANCH   4  10
ATOM     10  N   LIG    1      -33.297  74.724  29.455  0.00  0.00    -0.308 N 
ATOM     11  C   LIG    1      -32.715  75.793  28.617  0.00  0.00    +0.107 C 
ATOM     12  C   LIG    1      -31.411  76.152  29.351  0.00  0.00    +0.029 C 
ATOM     13  C   LIG    1      -31.744  75.902  30.811  0.00  0.00    +0.021 C 
ATOM     14  C   LIG    1      -32.592  74.639  30.741  0.00  0.00    +0.107 C 
BRANCH  11  15
ATOM     15  C   LIG    1      -33.628  77.002  28.454  0.00  0.00    -0.001 A 
ATOM     16  CA  LIG    1      -33.391  77.985  27.468  0.00  0.00    +0.072 A 
ATOM     17  N   LIG    1      -34.192  79.080  27.309  0.00  0.00    -0.254 NA
ATOM     18  C   LIG    1      -35.244  79.223  28.144  0.00  0.00    +0.149 A 
ATOM     19  C   LIG    1      -35.529  78.331  29.154  0.00  0.00    +0.142 A 
ATOM     20  F   LIG    1      -36.564  78.539  29.979  0.00  0.00    -0.204 F 
ATOM     21  C   LIG    1      -34.722  77.215  29.312  0.00  0.00    +0.047 A 
BRANCH  16  22
ATOM     22  C   LIG    1      -32.247  77.893  26.484  0.00  0.00    +0.211 C 
BRANCH  22  23
ATOM     23  O   LIG    1      -32.299  78.992  25.580  0.00  0.00    -0.389 OA
ATOM     24  H   LIG    1      -31.382  79.281  25.434  0.00  0.00    +0.210 HD
ENDBRANCH  22  23
ENDBRANCH  16  22
ENDBRANCH  11  15
ENDBRANCH   4  10
BRANCH   1  27
ATOM     25  N   LIG    1      -37.505  74.361  25.945  0.00  0.00    -0.304 N 
ATOM     26  H   LIG    1      -36.518  74.347  25.670  0.00  0.00    +0.150 HD
ATOM     27  C   LIG    1      -37.939  73.326  26.745  0.00  0.00    +0.250 C 
ATOM     28  O   LIG    1      -39.089  73.206  27.125  0.00  0.00    -0.270 OA
BRANCH  25  30
ATOM     29  C   LIG    1      -39.468  74.906  24.546  0.00  0.00    +0.034 C 
ATOM     30  C   LIG    1      -38.359  75.464  25.452  0.00  0.00    +0.057 C 
ATOM     31  C   LIG    1      -37.481  76.416  24.622  0.00  0.00    +0.034 C 
BRANCH  30  32
ATOM     32  C   LIG    1      -39.013  76.291  26.587  0.00  0.00    +0.238 C 
ATOM     33  F   LIG    1      -38.130  77.217  27.056  0.00  0.00    -0.247 F 
ENDBRANCH  30  32
ENDBRANCH  25  30
ENDBRANCH   1  27
TORSDOF 7
ENDMDL
MODEL 2
REMARK VINA RESULT:      -5.6     17.550     21.111
REMARK  Name = pdb/CHEMBL3675956.pdb
REMARK                            x       y       z     vdW  Elec       q    Type
REMARK                         _______ _______ _______ _____ _____    ______ ____
ROOT
ATOM      1  C   LIG    1      -23.593  85.373  11.669  0.00  0.00    +0.100 A 
ATOM      2  C   LIG    1      -23.475  84.051  12.054  0.00  0.00    +0.170 A 
ATOM      3  N   LIG    1      -22.888  83.446  13.136  0.00  0.00    -0.212 NA
ATOM      4  C   LIG    1      -22.910  82.126  13.209  0.00  0.00    +0.126 A 
ATOM      5  C   LIG    1      -23.553  81.280  12.134  0.00  0.00    +0.063 A 
ATOM      6  C   LIG    1      -24.126  81.920  11.111  0.00  0.00    +0.118 A 
ATOM      7  N   LIG    1      -24.098  83.303  11.048  0.00  0.00    -0.221 N 
ATOM      8  N   LIG    1      -24.617  84.081  10.072  0.00  0.00    -0.173 NA
ATOM      9  C   LIG    1      -24.287  85.317  10.433  0.00  0.00    +0.150 A 
ENDROOT
BRANCH   4  10
ATOM     10  N   LIG    1      -22.327  81.499  14.307  0.00  0.00    -0.308 N 
ATOM     11  C   LIG    1      -23.121  80.796  15.336  0.00  0.00    +0.107 C 
ATOM     12  C   LIG    1      -22.432  81.193  16.653  0.00  0.00    +0.029 C 
ATOM     13  C   LIG    1      -20.977  81.362  16.256  0.00  0.00    +0.021 C 
ATOM     14  C   LIG    1      -21.086  82.028  14.890  0.00  0.00    +0.107 C 
BRANCH  11  15
ATOM     15  C   LIG    1      -23.159  79.285  15.146  0.00  0.00    -0.001 A 
ATOM     16  CA  LIG    1      -24.376  78.586  14.981  0.00  0.00    +0.072 A 
ATOM     17  N   LIG    1      -24.433  77.231  14.817  0.00  0.00    -0.254 NA
ATOM     18  C   LIG    1      -23.271  76.541  14.827  0.00  0.00    +0.149 A 
ATOM     19  C   LIG    1      -22.044  77.137  15.015  0.00  0.00    +0.142 A 
ATOM     20  F   LIG    1      -20.926  76.402  15.053  0.00  0.00    -0.204 F 
ATOM     21  C   LIG    1      -21.984  78.513  15.174  0.00  0.00    +0.047 A 
BRANCH  16  22
ATOM     22  C   LIG    1      -25.717  79.283  14.942  0.00  0.00    +0.211 C 
BRANCH  22  23
ATOM     23  O   LIG    1      -26.576  78.731  15.933  0.00  0.00    -0.389 OA
ATOM     24  H   LIG    1      -27.488  78.865  15.622  0.00  0.00    +0.210 HD
ENDBRANCH  22  23
ENDBRANCH  16  22
ENDBRANCH  11  15
ENDBRANCH   4  10
BRANCH   1  27
ATOM     25  N   LIG    1      -22.017  86.456  13.094  0.00  0.00    -0.304 N 
ATOM     26  H   LIG    1      -21.601  85.520  13.122  0.00  0.00    +0.150 HD
ATOM     27  C   LIG    1      -23.130  86.614  12.298  0.00  0.00    +0.250 C 
ATOM     28  O   LIG    1      -23.708  87.675  12.154  0.00  0.00    -0.270 OA
BRANCH  25  30
ATOM     29  C   LIG    1      -21.237  88.800  13.028  0.00  0.00    +0.034 C 
ATOM     30  C   LIG    1      -21.383  87.533  13.886  0.00  0.00    +0.057 C 
ATOM     31  C   LIG    1      -19.980  87.060  14.303  0.00  0.00    +0.034 C 
BRANCH  30  32
ATOM     32  C   LIG    1      -22.165  87.892  15.175  0.00  0.00    +0.238 C 
ATOM     33  F   LIG    1      -23.024  88.921  14.927  0.00  0.00    -0.247 F 
ENDBRANCH  30  32
ENDBRANCH  25  30
ENDBRANCH   1  27
TORSDOF 7
ENDMDL
MODEL 3
REMARK VINA RESULT:      -5.5     18.908     22.179
REMARK  Name = pdb/CHEMBL3675956.pdb
REMARK                            x       y       z     vdW  Elec       q    Type
REMARK                         _______ _______ _______ _____ _____    ______ ____
ROOT
ATOM      1  C   LIG    1      -18.961  85.672  13.287  0.00  0.00    +0.100 A 
ATOM      2  C   LIG    1      -19.119  84.326  13.557  0.00  0.00    +0.170 A 
ATOM      3  N   LIG    1      -20.108  83.613  14.185  0.00  0.00    -0.212 NA
ATOM      4  C   LIG    1      -19.953  82.308  14.324  0.00  0.00    +0.126 A 
ATOM      5  C   LIG    1      -18.719  81.595  13.822  0.00  0.00    +0.063 A 
ATOM      6  C   LIG    1      -17.794  82.334  13.203  0.00  0.00    +0.118 A 
ATOM      7  N   LIG    1      -17.970  83.699  13.061  0.00  0.00    -0.221 N 
ATOM      8  N   LIG    1      -17.118  84.572  12.477  0.00  0.00    -0.173 NA
ATOM      9  C   LIG    1      -17.701  85.754  12.640  0.00  0.00    +0.150 A 
ENDROOT
BRANCH   4  10
ATOM     10  N   LIG    1      -20.955  81.570  14.949  0.00  0.00    -0.308 N 
ATOM     11  C   LIG    1      -22.257  82.156  15.328  0.00  0.00    +0.107 C 
ATOM     12  C   LIG    1      -22.538  81.541  16.709  0.00  0.00    +0.029 C 
ATOM     13  C   LIG    1      -21.885  80.173  16.629  0.00  0.00    +0.021 C 
ATOM     14  C   LIG    1      -20.606  80.466  15.855  0.00  0.00    +0.107 C 
BRANCH  11  15
ATOM     15  C   LIG    1      -23.371  81.855  14.333  0.00  0.00    -0.001 A 
ATOM     16  CA  LIG    1      -23.745  82.779  13.333  0.00  0.00    +0.072 A 
ATOM     17  N   LIG    1      -24.745  82.534  12.436  0.00  0.00    -0.254 NA
ATOM     18  C   LIG    1      -25.405  81.358  12.529  0.00  0.00    +0.149 A 
ATOM     19  C   LIG    1      -25.130  80.414  13.494  0.00  0.00    +0.142 A 
ATOM     20  F   LIG    1      -25.839  79.281  13.565  0.00  0.00    -0.204 F 
ATOM     21  C   LIG    1      -24.109  80.660  14.400  0.00  0.00    +0.047 A 
BRANCH  16  22
ATOM     22  C   LIG    1      -23.047  84.108  13.150  0.00  0.00    +0.211 C 
BRANCH  22  23
ATOM     23  O   LIG    1      -22.223  84.064  11.990  0.00  0.00    -0.389 OA
ATOM     24  H   LIG    1      -21.938  84.976  11.811  0.00  0.00    +0.210 HD
ENDBRANCH  22  23
ENDBRANCH  16  22
ENDBRANCH  11  15
ENDBRANCH   4  10
BRANCH   1  27
ATOM     25  N   LIG    1      -20.960  86.883  12.810  0.00  0.00    -0.304 N 
ATOM     26  H   LIG    1      -21.124  86.099  12.171  0.00  0.00    +0.150 HD
ATOM     27  C   LIG    1      -19.816  86.828  13.575  0.00  0.00    +0.250 C 
ATOM     28  O   LIG    1      -19.511  87.679  14.390  0.00  0.00    -0.270 OA
BRANCH  25  30
ATOM     29  C   LIG    1      -23.162  87.624  11.969  0.00  0.00    +0.034 C 
ATOM     30  C   LIG    1      -21.960  87.972  12.861  0.00  0.00    +0.057 C 
ATOM     31  C   LIG    1      -21.303  89.253  12.317  0.00  0.00    +0.034 C 
BRANCH  30  32
ATOM     32  C   LIG    1      -22.472  88.272  14.292  0.00  0.00    +0.238 C 
ATOM     33  F   LIG    1      -22.853  87.115  14.902  0.00  0.00    -0.247 F 
ENDBRANCH  30  32
ENDBRANCH  25  30
ENDBRANCH   1  27
TORSDOF 7
ENDMDL
MODEL 4
REMARK VINA RESULT:      -5.4     11.653     15.135
REMARK  Name = pdb/CHEMBL3675956.pdb
REMARK                            x       y       z     vdW  Elec       q    Type
REMARK                         _______ _______ _______ _____ _____    ______ ____
ROOT
ATOM      1  C   LIG    1      -25.737  77.306  33.209  0.00  0.00    +0.100 A 
ATOM      2  C   LIG    1      -25.202  78.193  34.124  0.00  0.00    +0.170 A 
ATOM      3  N   LIG    1      -23.984  78.818  34.212  0.00  0.00    -0.212 NA
ATOM      4  C   LIG    1      -23.751  79.602  35.250  0.00  0.00    +0.126 A 
ATOM      5  C   LIG    1      -24.782  79.814  36.335  0.00  0.00    +0.063 A 
ATOM      6  C   LIG    1      -25.958  79.195  36.192  0.00  0.00    +0.118 A 
ATOM      7  N   LIG    1      -26.190  78.379  35.099  0.00  0.00    -0.221 N 
ATOM      8  N   LIG    1      -27.316  77.680  34.832  0.00  0.00    -0.173 NA
ATOM      9  C   LIG    1      -27.030  77.017  33.717  0.00  0.00    +0.150 A 
ENDROOT
BRANCH   4  10
ATOM     10  N   LIG    1      -22.524  80.252  35.345  0.00  0.00    -0.308 N 
ATOM     11  C   LIG    1      -21.349  79.644  36.005  0.00  0.00    +0.107 C 
ATOM     12  C   LIG    1      -20.729  80.817  36.783  0.00  0.00    +0.029 C 
ATOM     13  C   LIG    1      -21.054  82.025  35.924  0.00  0.00    +0.021 C 
ATOM     14  C   LIG    1      -22.467  81.717  35.447  0.00  0.00    +0.107 C 
BRANCH  11  15
ATOM     15  C   LIG    1      -20.360  79.021  35.029  0.00  0.00    -0.001 A 
ATOM     16  CA  LIG    1      -19.198  78.351  35.473  0.00  0.00    +0.072 A 
ATOM     17  N   LIG    1      -18.294  77.792  34.616  0.00  0.00    -0.254 NA
ATOM     18  C   LIG    1      -18.526  77.902  33.289  0.00  0.00    +0.149 A 
ATOM     19  C   LIG    1      -19.615  78.566  32.768  0.00  0.00    +0.142 A 
ATOM     20  F   LIG    1      -19.778  78.677  31.444  0.00  0.00    -0.204 F 
ATOM     21  C   LIG    1      -20.537  79.127  33.638  0.00  0.00    +0.047 A 
BRANCH  16  22
ATOM     22  C   LIG    1      -18.873  78.170  36.939  0.00  0.00    +0.211 C 
BRANCH  22  23
ATOM     23  O   LIG    1      -17.730  78.948  37.277  0.00  0.00    -0.389 OA
ATOM     24  H   LIG    1      -17.769  79.757  36.739  0.00  0.00    +0.210 HD
ENDBRANCH  22  23
ENDBRANCH  16  22
ENDBRANCH  11  15
ENDBRANCH   4  10
BRANCH   1  27
ATOM     25  N   LIG    1      -23.843  76.410  32.070  0.00  0.00    -0.304 N 
ATOM     26  H   LIG    1      -23.392  76.564  32.977  0.00  0.00    +0.150 HD
ATOM     27  C   LIG    1      -25.183  76.720  31.985  0.00  0.00    +0.250 C 
ATOM     28  O   LIG    1      -25.846  76.563  30.977  0.00  0.00    -0.270 OA
BRANCH  25  30
ATOM     29  C   LIG    1      -23.563  74.482  30.550  0.00  0.00    +0.034 C 
ATOM     30  C   LIG    1      -23.029  75.862  30.962  0.00  0.00    +0.057 C 
ATOM     31  C   LIG    1      -21.584  75.698  31.465  0.00  0.00    +0.034 C 
BRANCH  30  32
ATOM     32  C   LIG    1      -22.996  76.777  29.712  0.00  0.00    +0.238 C 
ATOM     33  F   LIG    1      -21.839  76.576  29.020  0.00  0.00    -0.247 F 
ENDBRANCH  30  32
ENDBRANCH  25  30
ENDBRANCH   1  27
TORSDOF 7
ENDMDL
MODEL 5
REMARK VINA RESULT:      -5.3      2.990      7.550
REMARK  Name = pdb/CHEMBL3675956.pdb
REMARK                            x       y       z     vdW  Elec       q    Type
REMARK                         _______ _______ _______ _____ _____    ______ ____
ROOT
ATOM      1  C   LIG    1      -37.694  76.337  25.870  0.00  0.00    +0.100 A 
ATOM      2  C   LIG    1      -38.376  75.273  25.310  0.00  0.00    +0.170 A 
ATOM      3  N   LIG    1      -38.132  73.923  25.282  0.00  0.00    -0.212 NA
ATOM      4  C   LIG    1      -38.970  73.145  24.619  0.00  0.00    +0.126 A 
ATOM      5  C   LIG    1      -40.170  73.705  23.891  0.00  0.00    +0.063 A 
ATOM      6  C   LIG    1      -40.370  75.024  23.964  0.00  0.00    +0.118 A 
ATOM      7  N   LIG    1      -39.487  75.827  24.664  0.00  0.00    -0.221 N 
ATOM      8  N   LIG    1      -39.551  77.171  24.809  0.00  0.00    -0.173 NA
ATOM      9  C   LIG    1      -38.461  77.473  25.506  0.00  0.00    +0.150 A 
ENDROOT
BRANCH   4  10
ATOM     10  N   LIG    1      -38.741  71.772  24.592  0.00  0.00    -0.308 N 
ATOM     11  C   LIG    1      -37.393  71.186  24.738  0.00  0.00    +0.107 C 
ATOM     12  C   LIG    1      -37.386  70.043  23.708  0.00  0.00    +0.029 C 
ATOM     13  C   LIG    1      -38.832  69.581  23.682  0.00  0.00    +0.021 C 
ATOM     14  C   LIG    1      -39.597  70.894  23.782  0.00  0.00    +0.107 C 
BRANCH  11  15
ATOM     15  C   LIG    1      -37.095  70.687  26.146  0.00  0.00    -0.001 A 
ATOM     16  CA  LIG    1      -35.780  70.398  26.571  0.00  0.00    +0.072 A 
ATOM     17  N   LIG    1      -35.492  69.942  27.825  0.00  0.00    -0.254 NA
ATOM     18  C   LIG    1      -36.519  69.752  28.682  0.00  0.00    +0.149 A 
ATOM     19  C   LIG    1      -37.835  69.975  28.342  0.00  0.00    +0.142 A 
ATOM     20  F   LIG    1      -38.819  69.736  29.217  0.00  0.00    -0.204 F 
ATOM     21  C   LIG    1      -38.128  70.445  27.070  0.00  0.00    +0.047 A 
BRANCH  16  22
ATOM     22  C   LIG    1      -34.574  70.599  25.681  0.00  0.00    +0.211 C 
BRANCH  22  23
ATOM     23  O   LIG    1      -34.215  69.364  25.071  0.00  0.00    -0.389 OA
ATOM     24  H   LIG    1      -33.948  69.567  24.157  0.00  0.00    +0.210 HD
ENDBRANCH  22  23
ENDBRANCH  16  22
ENDBRANCH  11  15
ENDBRANCH   4  10
BRANCH   1  27
ATOM     25  N   LIG    1      -36.042  75.174  27.138  0.00  0.00    -0.304 N 
ATOM     26  H   LIG    1      -36.598  74.358  26.864  0.00  0.00    +0.150 HD
ATOM     27  C   LIG    1      -36.455  76.395  26.651  0.00  0.00    +0.250 C 
ATOM     28  O   LIG    1      -35.874  77.440  26.878  0.00  0.00    -0.270 OA
BRANCH  25  30
ATOM     29  C   LIG    1      -34.535  73.464  28.092  0.00  0.00    +0.034 C 
ATOM     30  C   LIG    1      -34.859  74.963  28.001  0.00  0.00    +0.057 C 
ATOM     31  C   LIG    1      -35.198  75.477  29.412  0.00  0.00    +0.034 C 
BRANCH  30  32
ATOM     32  C   LIG    1      -33.597  75.717  27.511  0.00  0.00    +0.238 C 
ATOM     33  F   LIG    1      -32.697  75.826  28.529  0.00  0.00    -0.247 F 
ENDBRANCH  30  32
ENDBRANCH  25  30
ENDBRANCH   1  27
TORSDOF 7
ENDMDL
MODEL 6
REMARK VINA RESULT:      -5.3     12.446     16.502
REMARK  Name = pdb/CHEMBL3675956.pdb
REMARK                            x       y       z     vdW  Elec       q    Type
REMARK                         _______ _______ _______ _____ _____    ______ ____
ROOT
ATOM      1  C   LIG    1      -19.684  79.714  36.328  0.00  0.00    +0.100 A 
ATOM      2  C   LIG    1      -19.456  79.053  35.135  0.00  0.00    +0.170 A 
ATOM      3  N   LIG    1      -20.283  78.675  34.108  0.00  0.00    -0.212 NA
ATOM      4  C   LIG    1      -19.763  78.009  33.093  0.00  0.00    +0.126 A 
ATOM      5  C   LIG    1      -18.295  77.649  33.045  0.00  0.00    +0.063 A 
ATOM      6  C   LIG    1      -17.531  78.056  34.062  0.00  0.00    +0.118 A 
ATOM      7  N   LIG    1      -18.089  78.756  35.118  0.00  0.00    -0.221 N 
ATOM      8  N   LIG    1      -17.447  79.213  36.218  0.00  0.00    -0.173 NA
ATOM      9  C   LIG    1      -18.411  79.760  36.951  0.00  0.00    +0.150 A 
ENDROOT
BRANCH   4  10
ATOM     10  N   LIG    1      -20.588  77.629  32.038  0.00  0.00    -0.308 N 
ATOM     11  C   LIG    1      -21.460  76.438  32.097  0.00  0.00    +0.107 C 
ATOM     12  C   LIG    1      -21.320  75.822  30.694  0.00  0.00    +0.029 C 
ATOM     13  C   LIG    1      -21.098  77.027  29.798  0.00  0.00    +0.021 C 
ATOM     14  C   LIG    1      -20.190  77.905  30.650  0.00  0.00    +0.107 C 
BRANCH  11  15
ATOM     15  C   LIG    1      -22.909  76.761  32.436  0.00  0.00    -0.001 A 
ATOM     16  CA  LIG    1      -23.442  76.528  33.723  0.00  0.00    +0.072 A 
ATOM     17  N   LIG    1      -24.740  76.803  34.046  0.00  0.00    -0.254 NA
ATOM     18  C   LIG    1      -25.541  77.307  33.080  0.00  0.00    +0.149 A 
ATOM     19  C   LIG    1      -25.114  77.533  31.791  0.00  0.00    +0.142 A 
ATOM     20  F   LIG    1      -25.958  78.000  30.863  0.00  0.00    -0.204 F 
ATOM     21  C   LIG    1      -23.794  77.262  31.464  0.00  0.00    +0.047 A 
BRANCH  16  22
ATOM     22  C   LIG    1      -22.611  75.983  34.862  0.00  0.00    +0.211 C 
BRANCH  22  23
ATOM     23  O   LIG    1      -22.296  77.031  35.772  0.00  0.00    -0.389 OA
ATOM     24  H   LIG    1      -22.936  76.973  36.502  0.00  0.00    +0.210 HD
ENDBRANCH  22  23
ENDBRANCH  16  22
ENDBRANCH  11  15
ENDBRANCH   4  10
BRANCH   1  27
ATOM     25  N   LIG    1      -22.048  80.001  36.185  0.00  0.00    -0.304 N 
ATOM     26  H   LIG    1      -21.934  79.418  35.349  0.00  0.00    +0.150 HD
ATOM     27  C   LIG    1      -20.911  80.259  36.918  0.00  0.00    +0.250 C 
ATOM     28  O   LIG    1      -20.907  80.915  37.943  0.00  0.00    -0.270 OA
BRANCH  25  30
ATOM     29  C   LIG    1      -23.867  79.861  37.852  0.00  0.00    +0.034 C 
ATOM     30  C   LIG    1      -23.403  80.486  36.526  0.00  0.00    +0.057 C 
ATOM     31  C   LIG    1      -24.367  80.040  35.412  0.00  0.00    +0.034 C 
BRANCH  30  32
ATOM     32  C   LIG    1      -23.494  82.028  36.644  0.00  0.00    +0.238 C 
ATOM     33  F   LIG    1      -22.851  82.613  35.595  0.00  0.00    -0.247 F 
ENDBRANCH  30  32
ENDBRANCH  25  30
ENDBRANCH   1  27
TORSDOF 7
ENDMDL
MODEL 7
REMARK VINA RESULT:      -5.3      3.876      8.559
REMARK  Name = pdb/CHEMBL3675956.pdb
REMARK                            x       y       z     vdW  Elec       q    Type
REMARK                         _______ _______ _______ _____ _____    ______ ____
ROOT
ATOM      1  C   LIG    1      -37.563  76.442  26.021  0.00  0.00    +0.100 A 
ATOM      2  C   LIG    1      -38.086  75.262  25.527  0.00  0.00    +0.170 A 
ATOM      3  N   LIG    1      -37.674  73.956  25.607  0.00  0.00    -0.212 NA
ATOM      4  C   LIG    1      -38.384  73.032  24.985  0.00  0.00    +0.126 A 
ATOM      5  C   LIG    1      -39.620  73.380  24.187  0.00  0.00    +0.063 A 
ATOM      6  C   LIG    1      -39.987  74.664  24.155  0.00  0.00    +0.118 A 
ATOM      7  N   LIG    1      -39.236  75.622  24.814  0.00  0.00    -0.221 N 
ATOM      8  N   LIG    1      -39.473  76.953  24.855  0.00  0.00    -0.173 NA
ATOM      9  C   LIG    1      -38.454  77.442  25.554  0.00  0.00    +0.150 A 
ENDROOT
BRANCH   4  10
ATOM     10  N   LIG    1      -37.984  71.700  25.068  0.00  0.00    -0.308 N 
ATOM     11  C   LIG    1      -38.924  70.574  24.885  0.00  0.00    +0.107 C 
ATOM     12  C   LIG    1      -38.493  69.570  25.968  0.00  0.00    +0.029 C 
ATOM     13  C   LIG    1      -36.996  69.798  26.089  0.00  0.00    +0.021 C 
ATOM     14  C   LIG    1      -36.885  71.312  25.962  0.00  0.00    +0.107 C 
BRANCH  11  15
ATOM     15  C   LIG    1      -38.876  69.963  23.491  0.00  0.00    -0.001 A 
ATOM     16  CA  LIG    1      -40.033  69.852  22.688  0.00  0.00    +0.072 A 
ATOM     17  N   LIG    1      -40.014  69.300  21.438  0.00  0.00    -0.254 NA
ATOM     18  C   LIG    1      -38.836  68.835  20.967  0.00  0.00    +0.149 A 
ATOM     19  C   LIG    1      -37.667  68.873  21.695  0.00  0.00    +0.142 A 
ATOM     20  F   LIG    1      -36.534  68.364  21.196  0.00  0.00    -0.204 F 
ATOM     21  C   LIG    1      -37.683  69.439  22.961  0.00  0.00    +0.047 A 
BRANCH  16  22
ATOM     22  C   LIG    1      -41.385  70.362  23.132  0.00  0.00    +0.211 C 
BRANCH  22  23
ATOM     23  O   LIG    1      -41.816  71.403  22.262  0.00  0.00    -0.389 OA
ATOM     24  H   LIG    1      -42.146  70.976  21.452  0.00  0.00    +0.210 HD
ENDBRANCH  22  23
ENDBRANCH  16  22
ENDBRANCH  11  15
ENDBRANCH   4  10
BRANCH   1  27
ATOM     25  N   LIG    1      -35.618  75.594  27.110  0.00  0.00    -0.304 N 
ATOM     26  H   LIG    1      -35.931  74.713  26.692  0.00  0.00    +0.150 HD
ATOM     27  C   LIG    1      -36.369  76.714  26.826  0.00  0.00    +0.250 C 
ATOM     28  O   LIG    1      -36.096  77.827  27.236  0.00  0.00    -0.270 OA
BRANCH  25  30
ATOM     29  C   LIG    1      -33.303  76.439  27.297  0.00  0.00    +0.034 C 
ATOM     30  C   LIG    1      -34.400  75.583  27.950  0.00  0.00    +0.057 C 
ATOM     31  C   LIG    1      -33.896  74.132  28.045  0.00  0.00    +0.034 C 
BRANCH  30  32
ATOM     32  C   LIG    1      -34.641  76.097  29.391  0.00  0.00    +0.238 C 
ATOM     33  F   LIG    1      -33.972  77.268  29.586  0.00  0.00    -0.247 F 
ENDBRANCH  30  32
ENDBRANCH  25  30
ENDBRANCH   1  27
TORSDOF 7
ENDMDL
MODEL 8
REMARK VINA RESULT:      -5.2     10.690     14.525
REMARK  Name = pdb/CHEMBL3675956.pdb
REMARK                            x       y       z     vdW  Elec       q    Type
REMARK                         _______ _______ _______ _____ _____    ______ ____
ROOT
ATOM      1  C   LIG    1      -21.087  78.734  33.961  0.00  0.00    +0.100 A 
ATOM      2  C   LIG    1      -22.408  78.756  34.368  0.00  0.00    +0.170 A 
ATOM      3  N   LIG    1      -23.453  77.887  34.183  0.00  0.00    -0.212 NA
ATOM      4  C   LIG    1      -24.636  78.210  34.676  0.00  0.00    +0.126 A 
ATOM      5  C   LIG    1      -24.861  79.505  35.422  0.00  0.00    +0.063 A 
ATOM      6  C   LIG    1      -23.806  80.307  35.590  0.00  0.00    +0.118 A 
ATOM      7  N   LIG    1      -22.572  79.955  35.071  0.00  0.00    -0.221 N 
ATOM      8  N   LIG    1      -21.426  80.670  35.146  0.00  0.00    -0.173 NA
ATOM      9  C   LIG    1      -20.549  79.949  34.456  0.00  0.00    +0.150 A 
ENDROOT
BRANCH   4  10
ATOM     10  N   LIG    1      -25.703  77.332  34.505  0.00  0.00    -0.308 N 
ATOM     11  C   LIG    1      -26.344  77.103  33.193  0.00  0.00    +0.107 C 
ATOM     12  C   LIG    1      -27.842  77.038  33.534  0.00  0.00    +0.029 C 
ATOM     13  C   LIG    1      -27.864  76.444  34.931  0.00  0.00    +0.021 C 
ATOM     14  C   LIG    1      -26.670  77.121  35.592  0.00  0.00    +0.107 C 
BRANCH  11  15
ATOM     15  C   LIG    1      -25.863  75.838  32.494  0.00  0.00    -0.001 A 
ATOM     16  CA  LIG    1      -25.052  75.889  31.339  0.00  0.00    +0.072 A 
ATOM     17  N   LIG    1      -24.616  74.768  30.692  0.00  0.00    -0.254 NA
ATOM     18  C   LIG    1      -24.994  73.566  31.182  0.00  0.00    +0.149 A 
ATOM     19  C   LIG    1      -25.810  73.424  32.282  0.00  0.00    +0.142 A 
ATOM     20  F   LIG    1      -26.184  72.211  32.704  0.00  0.00    -0.204 F 
ATOM     21  C   LIG    1      -26.247  74.562  32.944  0.00  0.00    +0.047 A 
BRANCH  16  22
ATOM     22  C   LIG    1      -24.572  77.190  30.737  0.00  0.00    +0.211 C 
BRANCH  22  23
ATOM     23  O   LIG    1      -25.211  77.405  29.484  0.00  0.00    -0.389 OA
ATOM     24  H   LIG    1      -24.606  77.947  28.948  0.00  0.00    +0.210 HD
ENDBRANCH  22  23
ENDBRANCH  16  22
ENDBRANCH  11  15
ENDBRANCH   4  10
BRANCH   1  27
ATOM     25  N   LIG    1      -20.887  77.450  31.961  0.00  0.00    -0.304 N 
ATOM     26  H   LIG    1      -21.731  77.971  31.701  0.00  0.00    +0.150 HD
ATOM     27  C   LIG    1      -20.326  77.753  33.182  0.00  0.00    +0.250 C 
ATOM     28  O   LIG    1      -19.312  77.228  33.604  0.00  0.00    -0.270 OA
BRANCH  25  30
ATOM     29  C   LIG    1      -18.885  76.767  30.685  0.00  0.00    +0.034 C 
ATOM     30  C   LIG    1      -20.354  76.452  31.008  0.00  0.00    +0.057 C 
ATOM     31  C   LIG    1      -21.171  76.546  29.707  0.00  0.00    +0.034 C 
BRANCH  30  32
ATOM     32  C   LIG    1      -20.449  74.995  31.525  0.00  0.00    +0.238 C 
ATOM     33  F   LIG    1      -21.728  74.719  31.905  0.00  0.00    -0.247 F 
ENDBRANCH  30  32
ENDBRANCH  25  30
ENDBRANCH   1  27
TORSDOF 7
ENDMDL
MODEL 9
REMARK VINA RESULT:      -5.0      5.230      9.356
REMARK  Name = pdb/CHEMBL3675956.pdb
REMARK                            x       y       z     vdW  Elec       q    Type
REMARK                         _______ _______ _______ _____ _____    ______ ____
ROOT
ATOM      1  C   LIG    1      -27.953  76.686  33.022  0.00  0.00    +0.100 A 
ATOM      2  C   LIG    1      -29.294  76.544  32.719  0.00  0.00    +0.170 A 
ATOM      3  N   LIG    1      -29.956  76.174  31.577  0.00  0.00    -0.212 NA
ATOM      4  C   LIG    1      -31.277  76.168  31.587  0.00  0.00    +0.126 A 
ATOM      5  C   LIG    1      -32.066  76.566  32.813  0.00  0.00    +0.063 A 
ATOM      6  C   LIG    1      -31.372  76.902  33.905  0.00  0.00    +0.118 A 
ATOM      7  N   LIG    1      -29.989  76.901  33.881  0.00  0.00    -0.221 N 
ATOM      8  N   LIG    1      -29.159  77.233  34.897  0.00  0.00    -0.173 NA
ATOM      9  C   LIG    1      -27.944  77.130  34.369  0.00  0.00    +0.150 A 
ENDROOT
BRANCH   4  10
ATOM     10  N   LIG    1      -31.962  75.782  30.437  0.00  0.00    -0.308 N 
ATOM     11  C   LIG    1      -33.328  76.252  30.128  0.00  0.00    +0.107 C 
ATOM     12  C   LIG    1      -34.021  74.997  29.572  0.00  0.00    +0.029 C 
ATOM     13  C   LIG    1      -32.895  74.242  28.889  0.00  0.00    +0.021 C 
ATOM     14  C   LIG    1      -31.730  74.456  29.847  0.00  0.00    +0.107 C 
BRANCH  11  15
ATOM     15  C   LIG    1      -33.363  77.409  29.138  0.00  0.00    -0.001 A 
ATOM     16  CA  LIG    1      -34.180  78.542  29.345  0.00  0.00    +0.072 A 
ATOM     17  N   LIG    1      -34.233  79.586  28.466  0.00  0.00    -0.254 NA
ATOM     18  C   LIG    1      -33.475  79.514  27.350  0.00  0.00    +0.149 A 
ATOM     19  C   LIG    1      -32.675  78.433  27.051  0.00  0.00    +0.142 A 
ATOM     20  F   LIG    1      -31.972  78.395  25.913  0.00  0.00    -0.204 F 
ATOM     21  C   LIG    1      -32.616  77.375  27.946  0.00  0.00    +0.047 A 
BRANCH  16  22
ATOM     22  C   LIG    1      -35.045  78.708  30.574  0.00  0.00    +0.211 C 
BRANCH  22  23
ATOM     23  O   LIG    1      -34.315  79.393  31.586  0.00  0.00    -0.389 OA
ATOM     24  H   LIG    1      -33.406  79.499  31.256  0.00  0.00    +0.210 HD
ENDBRANCH  22  23
ENDBRANCH  16  22
ENDBRANCH  11  15
ENDBRANCH   4  10
BRANCH   1  27
ATOM     25  N   LIG    1      -25.677  77.256  32.596  0.00  0.00    -0.304 N 
ATOM     26  H   LIG    1      -25.811  77.850  33.421  0.00  0.00    +0.150 HD
ATOM     27  C   LIG    1      -26.747  76.476  32.216  0.00  0.00    +0.250 C 
ATOM     28  O   LIG    1      -26.717  75.709  31.272  0.00  0.00    -0.270 OA
BRANCH  25  30
ATOM     29  C   LIG    1      -23.682  75.910  32.036  0.00  0.00    +0.034 C 
ATOM     30  C   LIG    1      -24.364  77.282  31.915  0.00  0.00    +0.057 C 
ATOM     31  C   LIG    1      -23.481  78.330  32.615  0.00  0.00    +0.034 C 
BRANCH  30  32
ATOM     32  C   LIG    1      -24.455  77.663  30.416  0.00  0.00    +0.238 C 
ATOM     33  F   LIG    1      -24.879  78.952  30.289  0.00  0.00    -0.247 F 
ENDBRANCH  30  32
ENDBRANCH  25  30
ENDBRANCH   1  27
TORSDOF 7
ENDMDL
