MODEL 1
REMARK VINA RESULT:      -6.2      0.000      0.000
REMARK  Name = pdb/CHEMBL2152283.pdb
REMARK                            x       y       z     vdW  Elec       q    Type
REMARK                         _______ _______ _______ _____ _____    ______ ____
ROOT
ATOM      1  C   LIG    1      -18.670  79.758  37.010  0.00  0.00    +0.029 A 
ATOM      2  C   LIG    1      -18.722  79.109  35.768  0.00  0.00    +0.031 A 
ATOM      3  C   LIG    1      -19.683  79.435  34.790  0.00  0.00    -0.011 A 
ATOM      4  C   LIG    1      -20.636  80.408  35.138  0.00  0.00    +0.054 A 
ATOM      5  C   LIG    1      -20.664  81.001  36.406  0.00  0.00    +0.123 A 
ATOM      6  C   LIG    1      -19.679  80.667  37.338  0.00  0.00    +0.068 A 
ENDROOT
BRANCH   3   7
ATOM      7  C   LIG    1      -19.697  78.773  33.468  0.00  0.00    +0.001 A 
ATOM      8  C   LIG    1      -20.889  78.338  32.849  0.00  0.00    +0.022 A 
ATOM      9  C   LIG    1      -20.841  77.658  31.609  0.00  0.00    +0.027 A 
ATOM     10  C   LIG    1      -21.787  77.046  30.711  0.00  0.00    +0.009 A 
ATOM     11  C   LIG    1      -21.047  76.539  29.652  0.00  0.00    +0.093 A 
ATOM     12  N   LIG    1      -19.722  76.827  29.862  0.00  0.00    -0.345 N 
ATOM     13  H   LIG    1      -18.950  76.582  29.268  0.00  0.00    +0.167 HD
ATOM     14  C   LIG    1      -19.584  77.497  31.048  0.00  0.00    +0.139 A 
ATOM     15  N   LIG    1      -18.403  77.903  31.539  0.00  0.00    -0.237 NA
ATOM     16  C   LIG    1      -18.523  78.527  32.739  0.00  0.00    +0.121 A 
BRANCH  10  17
ATOM     17  C   LIG    1      -23.238  76.892  30.808  0.00  0.00    -0.013 A 
ATOM     18  C   LIG    1      -24.099  77.953  30.511  0.00  0.00    +0.028 A 
ATOM     19  C   LIG    1      -25.468  77.753  30.608  0.00  0.00    +0.111 A 
ATOM     20  N   LIG    1      -26.032  76.587  30.982  0.00  0.00    -0.263 NA
ATOM     21  C   LIG    1      -25.188  75.576  31.265  0.00  0.00    +0.111 A 
ATOM     22  C   LIG    1      -23.807  75.675  31.190  0.00  0.00    +0.028 A 
ENDBRANCH  10  17
ENDBRANCH   3   7
BRANCH   1  23
ATOM     23  N   LIG    1      -17.757  79.324  37.983  0.00  0.00    -0.358 N 
ATOM     24  H   LIG    1      -17.587  80.003  38.720  0.00  0.00    +0.142 HD
ATOM     25  H   LIG    1      -17.969  78.405  38.359  0.00  0.00    +0.142 HD
ENDBRANCH   1  23
BRANCH   5  26
ATOM     26  O   LIG    1      -21.605  81.924  36.805  0.00  0.00    -0.491 OA
BRANCH  26  27
ATOM     27  C   LIG    1      -22.782  81.959  35.977  0.00  0.00    +0.244 C 
BRANCH  27  28
ATOM     28  C   LIG    1      -23.988  81.358  36.725  0.00  0.00    +0.125 C 
BRANCH  28  29
ATOM     29  N   LIG    1      -24.924  80.595  35.864  0.00  0.00    -0.295 NA
ATOM     30  C   LIG    1      -25.936  79.871  36.678  0.00  0.00    +0.112 C 
ATOM     31  C   LIG    1      -25.340  78.707  37.494  0.00  0.00    +0.175 C 
ATOM     32  O   LIG    1      -24.676  77.764  36.640  0.00  0.00    -0.377 OA
ATOM     33  C   LIG    1      -23.669  78.400  35.844  0.00  0.00    +0.175 C 
ATOM     34  C   LIG    1      -24.246  79.574  35.032  0.00  0.00    +0.112 C 
ENDBRANCH  28  29
ENDBRANCH  27  28
ENDBRANCH  26  27
ENDBRANCH   5  26
TORSDOF 7
ENDMDL
MODEL 2
REMARK VINA RESULT:      -6.0     14.551     19.426
REMARK  Name = pdb/CHEMBL2152283.pdb
REMARK                            x       y       z     vdW  Elec       q    Type
REMARK                         _______ _______ _______ _____ _____    ______ ____
ROOT
ATOM      1  C   LIG    1      -39.769  77.089  24.569  0.00  0.00    +0.029 A 
ATOM      2  C   LIG    1      -40.153  75.792  24.200  0.00  0.00    +0.031 A 
ATOM      3  C   LIG    1      -39.356  74.664  24.480  0.00  0.00    -0.011 A 
ATOM      4  C   LIG    1      -38.117  74.902  25.098  0.00  0.00    +0.054 A 
ATOM      5  C   LIG    1      -37.668  76.196  25.389  0.00  0.00    +0.123 A 
ATOM      6  C   LIG    1      -38.499  77.285  25.117  0.00  0.00    +0.068 A 
ENDROOT
BRANCH   3   7
ATOM      7  C   LIG    1      -39.796  73.297  24.124  0.00  0.00    +0.001 A 
ATOM      8  C   LIG    1      -38.920  72.190  24.135  0.00  0.00    +0.022 A 
ATOM      9  C   LIG    1      -39.379  70.914  23.730  0.00  0.00    +0.027 A 
ATOM     10  C   LIG    1      -38.814  69.600  23.567  0.00  0.00    +0.009 A 
ATOM     11  C   LIG    1      -39.844  68.785  23.118  0.00  0.00    +0.093 A 
ATOM     12  N   LIG    1      -40.989  69.537  23.018  0.00  0.00    -0.345 N 
ATOM     13  H   LIG    1      -41.892  69.221  22.714  0.00  0.00    +0.167 HD
ATOM     14  C   LIG    1      -40.717  70.829  23.378  0.00  0.00    +0.139 A 
ATOM     15  N   LIG    1      -41.633  71.810  23.369  0.00  0.00    -0.237 NA
ATOM     16  C   LIG    1      -41.117  73.009  23.747  0.00  0.00    +0.121 A 
BRANCH  10  17
ATOM     17  C   LIG    1      -37.449  69.113  23.762  0.00  0.00    -0.013 A 
ATOM     18  C   LIG    1      -36.811  68.340  22.787  0.00  0.00    +0.028 A 
ATOM     19  C   LIG    1      -35.511  67.912  23.015  0.00  0.00    +0.111 A 
ATOM     20  N   LIG    1      -34.814  68.192  24.134  0.00  0.00    -0.263 NA
ATOM     21  C   LIG    1      -35.443  68.938  25.063  0.00  0.00    +0.111 A 
ATOM     22  C   LIG    1      -36.736  69.419  24.924  0.00  0.00    +0.028 A 
ENDBRANCH  10  17
ENDBRANCH   3   7
BRANCH   1  23
ATOM     23  N   LIG    1      -40.553  78.184  24.175  0.00  0.00    -0.358 N 
ATOM     24  H   LIG    1      -41.553  78.012  24.219  0.00  0.00    +0.142 HD
ATOM     25  H   LIG    1      -40.300  79.053  24.637  0.00  0.00    +0.142 HD
ENDBRANCH   1  23
BRANCH   5  26
ATOM     26  O   LIG    1      -36.443  76.478  25.953  0.00  0.00    -0.491 OA
BRANCH  26  27
ATOM     27  C   LIG    1      -36.520  77.160  27.218  0.00  0.00    +0.244 C 
BRANCH  27  28
ATOM     28  C   LIG    1      -35.235  76.931  28.036  0.00  0.00    +0.125 C 
BRANCH  28  29
ATOM     29  N   LIG    1      -34.157  76.228  27.298  0.00  0.00    -0.295 NA
ATOM     30  C   LIG    1      -33.571  75.133  28.114  0.00  0.00    +0.112 C 
ATOM     31  C   LIG    1      -32.760  75.640  29.321  0.00  0.00    +0.175 C 
ATOM     32  O   LIG    1      -31.703  76.515  28.902  0.00  0.00    -0.377 OA
ATOM     33  C   LIG    1      -32.208  77.609  28.127  0.00  0.00    +0.175 C 
ATOM     34  C   LIG    1      -33.033  77.119  26.924  0.00  0.00    +0.112 C 
ENDBRANCH  28  29
ENDBRANCH  27  28
ENDBRANCH  26  27
ENDBRANCH   5  26
TORSDOF 7
ENDMDL
MODEL 3
REMARK VINA RESULT:      -5.7     15.653     20.127
REMARK  Name = pdb/CHEMBL2152283.pdb
REMARK                            x       y       z     vdW  Elec       q    Type
REMARK                         _______ _______ _______ _____ _____    ______ ____
ROOT
ATOM      1  C   LIG    1      -39.966  77.664  24.610  0.00  0.00    +0.029 A 
ATOM      2  C   LIG    1      -39.966  76.287  24.346  0.00  0.00    +0.031 A 
ATOM      3  C   LIG    1      -39.062  75.403  24.969  0.00  0.00    -0.011 A 
ATOM      4  C   LIG    1      -38.110  75.974  25.831  0.00  0.00    +0.054 A 
ATOM      5  C   LIG    1      -38.028  77.357  26.037  0.00  0.00    +0.123 A 
ATOM      6  C   LIG    1      -38.958  78.195  25.418  0.00  0.00    +0.068 A 
ENDROOT
BRANCH   3   7
ATOM      7  C   LIG    1      -39.103  73.947  24.714  0.00  0.00    +0.001 A 
ATOM      8  C   LIG    1      -40.051  73.352  23.853  0.00  0.00    +0.022 A 
ATOM      9  C   LIG    1      -40.081  71.947  23.689  0.00  0.00    +0.027 A 
ATOM     10  C   LIG    1      -40.883  70.993  22.967  0.00  0.00    +0.009 A 
ATOM     11  C   LIG    1      -40.361  69.741  23.263  0.00  0.00    +0.093 A 
ATOM     12  N   LIG    1      -39.289  69.899  24.107  0.00  0.00    -0.345 N 
ATOM     13  H   LIG    1      -38.716  69.171  24.495  0.00  0.00    +0.167 HD
ATOM     14  C   LIG    1      -39.116  71.229  24.378  0.00  0.00    +0.139 A 
ATOM     15  N   LIG    1      -38.156  71.703  25.188  0.00  0.00    -0.237 NA
ATOM     16  C   LIG    1      -38.201  73.055  25.316  0.00  0.00    +0.121 A 
BRANCH  10  17
ATOM     17  C   LIG    1      -42.050  71.180  22.106  0.00  0.00    -0.013 A 
ATOM     18  C   LIG    1      -42.085  70.653  20.811  0.00  0.00    +0.028 A 
ATOM     19  C   LIG    1      -43.220  70.849  20.038  0.00  0.00    +0.111 A 
ATOM     20  N   LIG    1      -44.306  71.528  20.457  0.00  0.00    -0.263 NA
ATOM     21  C   LIG    1      -44.256  72.029  21.706  0.00  0.00    +0.111 A 
ATOM     22  C   LIG    1      -43.171  71.880  22.558  0.00  0.00    +0.028 A 
ENDBRANCH  10  17
ENDBRANCH   3   7
BRANCH   1  23
ATOM     23  N   LIG    1      -40.821  78.510  23.887  0.00  0.00    -0.358 N 
ATOM     24  H   LIG    1      -41.309  78.049  23.124  0.00  0.00    +0.142 HD
ATOM     25  H   LIG    1      -41.456  79.044  24.472  0.00  0.00    +0.142 HD
ENDBRANCH   1  23
BRANCH   5  26
ATOM     26  O   LIG    1      -37.084  77.963  26.836  0.00  0.00    -0.491 OA
BRANCH  26  27
ATOM     27  C   LIG    1      -36.397  77.061  27.721  0.00  0.00    +0.244 C 
BRANCH  27  28
ATOM     28  C   LIG    1      -34.963  76.798  27.221  0.00  0.00    +0.125 C 
BRANCH  28  29
ATOM     29  N   LIG    1      -33.900  77.190  28.178  0.00  0.00    -0.295 NA
ATOM     30  C   LIG    1      -34.014  78.624  28.553  0.00  0.00    +0.112 C 
ATOM     31  C   LIG    1      -33.677  79.583  27.396  0.00  0.00    +0.175 C 
ATOM     32  O   LIG    1      -32.354  79.344  26.895  0.00  0.00    -0.377 OA
ATOM     33  C   LIG    1      -32.187  77.979  26.494  0.00  0.00    +0.175 C 
ATOM     34  C   LIG    1      -32.533  77.006  27.635  0.00  0.00    +0.112 C 
ENDBRANCH  28  29
ENDBRANCH  27  28
ENDBRANCH  26  27
ENDBRANCH   5  26
TORSDOF 7
ENDMDL
MODEL 4
REMARK VINA RESULT:      -5.7      6.043     10.284
REMARK  Name = pdb/CHEMBL2152283.pdb
REMARK                            x       y       z     vdW  Elec       q    Type
REMARK                         _______ _______ _______ _____ _____    ______ ____
ROOT
ATOM      1  C   LIG    1      -27.887  74.334  33.760  0.00  0.00    +0.029 A 
ATOM      2  C   LIG    1      -28.990  74.035  32.948  0.00  0.00    +0.031 A 
ATOM      3  C   LIG    1      -29.365  74.852  31.862  0.00  0.00    -0.011 A 
ATOM      4  C   LIG    1      -28.616  76.024  31.661  0.00  0.00    +0.054 A 
ATOM      5  C   LIG    1      -27.571  76.393  32.518  0.00  0.00    +0.123 A 
ATOM      6  C   LIG    1      -27.216  75.544  33.567  0.00  0.00    +0.068 A 
ENDROOT
BRANCH   3   7
ATOM      7  C   LIG    1      -30.505  74.500  30.987  0.00  0.00    +0.001 A 
ATOM      8  C   LIG    1      -31.093  75.425  30.097  0.00  0.00    +0.022 A 
ATOM      9  C   LIG    1      -32.218  75.052  29.324  0.00  0.00    +0.027 A 
ATOM     10  C   LIG    1      -33.094  75.688  28.373  0.00  0.00    +0.009 A 
ATOM     11  C   LIG    1      -34.022  74.727  27.995  0.00  0.00    +0.093 A 
ATOM     12  N   LIG    1      -33.738  73.557  28.655  0.00  0.00    -0.345 N 
ATOM     13  H   LIG    1      -34.241  72.690  28.586  0.00  0.00    +0.167 HD
ATOM     14  C   LIG    1      -32.654  73.745  29.468  0.00  0.00    +0.139 A 
ATOM     15  N   LIG    1      -32.143  72.786  30.256  0.00  0.00    -0.237 NA
ATOM     16  C   LIG    1      -31.081  73.220  30.985  0.00  0.00    +0.121 A 
BRANCH  10  17
ATOM     17  C   LIG    1      -33.124  77.060  27.868  0.00  0.00    -0.013 A 
ATOM     18  C   LIG    1      -33.973  78.019  28.431  0.00  0.00    +0.028 A 
ATOM     19  C   LIG    1      -33.956  79.309  27.923  0.00  0.00    +0.111 A 
ATOM     20  N   LIG    1      -33.169  79.704  26.902  0.00  0.00    -0.263 NA
ATOM     21  C   LIG    1      -32.359  78.769  26.371  0.00  0.00    +0.111 A 
ATOM     22  C   LIG    1      -32.297  77.456  26.815  0.00  0.00    +0.028 A 
ENDBRANCH  10  17
ENDBRANCH   3   7
BRANCH   1  23
ATOM     23  N   LIG    1      -27.619  73.542  34.887  0.00  0.00    -0.358 N 
ATOM     24  H   LIG    1      -26.930  72.813  34.724  0.00  0.00    +0.142 HD
ATOM     25  H   LIG    1      -27.408  74.080  35.723  0.00  0.00    +0.142 HD
ENDBRANCH   1  23
BRANCH   5  26
ATOM     26  O   LIG    1      -26.841  77.553  32.386  0.00  0.00    -0.491 OA
BRANCH  26  27
ATOM     27  C   LIG    1      -25.498  77.465  32.896  0.00  0.00    +0.244 C 
BRANCH  27  28
ATOM     28  C   LIG    1      -24.479  77.877  31.815  0.00  0.00    +0.125 C 
BRANCH  28  29
ATOM     29  N   LIG    1      -24.504  77.031  30.597  0.00  0.00    -0.295 NA
ATOM     30  C   LIG    1      -24.229  75.608  30.924  0.00  0.00    +0.112 C 
ATOM     31  C   LIG    1      -22.777  75.357  31.375  0.00  0.00    +0.175 C 
ATOM     32  O   LIG    1      -21.844  75.786  30.374  0.00  0.00    -0.377 OA
ATOM     33  C   LIG    1      -22.043  77.163  30.031  0.00  0.00    +0.175 C 
ATOM     34  C   LIG    1      -23.493  77.434  29.590  0.00  0.00    +0.112 C 
ENDBRANCH  28  29
ENDBRANCH  27  28
ENDBRANCH  26  27
ENDBRANCH   5  26
TORSDOF 7
ENDMDL
MODEL 5
REMARK VINA RESULT:      -5.5     14.971     19.845
REMARK  Name = pdb/CHEMBL2152283.pdb
REMARK                            x       y       z     vdW  Elec       q    Type
REMARK                         _______ _______ _______ _____ _____    ______ ____
ROOT
ATOM      1  C   LIG    1      -36.343  70.719  25.262  0.00  0.00    +0.029 A 
ATOM      2  C   LIG    1      -37.522  71.160  24.644  0.00  0.00    +0.031 A 
ATOM      3  C   LIG    1      -38.245  72.274  25.116  0.00  0.00    -0.011 A 
ATOM      4  C   LIG    1      -37.764  72.895  26.281  0.00  0.00    +0.054 A 
ATOM      5  C   LIG    1      -36.643  72.414  26.971  0.00  0.00    +0.123 A 
ATOM      6  C   LIG    1      -35.942  71.322  26.456  0.00  0.00    +0.068 A 
ENDROOT
BRANCH   3   7
ATOM      7  C   LIG    1      -39.463  72.755  24.427  0.00  0.00    +0.001 A 
ATOM      8  C   LIG    1      -39.749  74.127  24.260  0.00  0.00    +0.022 A 
ATOM      9  C   LIG    1      -40.957  74.532  23.644  0.00  0.00    +0.027 A 
ATOM     10  C   LIG    1      -41.610  75.779  23.336  0.00  0.00    +0.009 A 
ATOM     11  C   LIG    1      -42.808  75.449  22.718  0.00  0.00    +0.093 A 
ATOM     12  N   LIG    1      -42.896  74.082  22.629  0.00  0.00    -0.345 N 
ATOM     13  H   LIG    1      -43.652  73.552  22.234  0.00  0.00    +0.167 HD
ATOM     14  C   LIG    1      -41.785  73.517  23.194  0.00  0.00    +0.139 A 
ATOM     15  N   LIG    1      -41.586  72.192  23.274  0.00  0.00    -0.237 NA
ATOM     16  C   LIG    1      -40.420  71.876  23.896  0.00  0.00    +0.121 A 
BRANCH  10  17
ATOM     17  C   LIG    1      -41.213  77.160  23.606  0.00  0.00    -0.013 A 
ATOM     18  C   LIG    1      -39.882  77.569  23.473  0.00  0.00    +0.028 A 
ATOM     19  C   LIG    1      -39.558  78.892  23.730  0.00  0.00    +0.111 A 
ATOM     20  N   LIG    1      -40.455  79.824  24.112  0.00  0.00    -0.263 NA
ATOM     21  C   LIG    1      -41.732  79.414  24.236  0.00  0.00    +0.111 A 
ATOM     22  C   LIG    1      -42.155  78.116  23.993  0.00  0.00    +0.028 A 
ENDBRANCH  10  17
ENDBRANCH   3   7
BRANCH   1  23
ATOM     23  N   LIG    1      -35.720  69.545  24.811  0.00  0.00    -0.358 N 
ATOM     24  H   LIG    1      -34.729  69.654  24.615  0.00  0.00    +0.142 HD
ATOM     25  H   LIG    1      -35.901  68.736  25.399  0.00  0.00    +0.142 HD
ENDBRANCH   1  23
BRANCH   5  26
ATOM     26  O   LIG    1      -36.164  72.963  28.139  0.00  0.00    -0.491 OA
BRANCH  26  27
ATOM     27  C   LIG    1      -34.803  73.424  28.058  0.00  0.00    +0.244 C 
BRANCH  27  28
ATOM     28  C   LIG    1      -34.717  74.924  28.400  0.00  0.00    +0.125 C 
BRANCH  28  29
ATOM     29  N   LIG    1      -34.617  75.816  27.220  0.00  0.00    -0.295 NA
ATOM     30  C   LIG    1      -33.667  76.932  27.467  0.00  0.00    +0.112 C 
ATOM     31  C   LIG    1      -34.179  77.948  28.507  0.00  0.00    +0.175 C 
ATOM     32  O   LIG    1      -35.442  78.500  28.112  0.00  0.00    -0.377 OA
ATOM     33  C   LIG    1      -36.412  77.471  27.880  0.00  0.00    +0.175 C 
ATOM     34  C   LIG    1      -35.911  76.440  26.852  0.00  0.00    +0.112 C 
ENDBRANCH  28  29
ENDBRANCH  27  28
ENDBRANCH  26  27
ENDBRANCH   5  26
TORSDOF 7
ENDMDL
MODEL 6
REMARK VINA RESULT:      -5.5     18.799     21.515
REMARK  Name = pdb/CHEMBL2152283.pdb
REMARK                            x       y       z     vdW  Elec       q    Type
REMARK                         _______ _______ _______ _____ _____    ______ ____
ROOT
ATOM      1  C   LIG    1      -38.004  76.645  25.099  0.00  0.00    +0.029 A 
ATOM      2  C   LIG    1      -38.629  75.404  24.907  0.00  0.00    +0.031 A 
ATOM      3  C   LIG    1      -39.864  75.280  24.241  0.00  0.00    -0.011 A 
ATOM      4  C   LIG    1      -40.482  76.472  23.824  0.00  0.00    +0.054 A 
ATOM      5  C   LIG    1      -39.925  77.730  24.089  0.00  0.00    +0.123 A 
ATOM      6  C   LIG    1      -38.688  77.807  24.731  0.00  0.00    +0.068 A 
ENDROOT
BRANCH   3   7
ATOM      7  C   LIG    1      -40.489  73.960  24.007  0.00  0.00    +0.001 A 
ATOM      8  C   LIG    1      -39.733  72.775  23.871  0.00  0.00    +0.022 A 
ATOM      9  C   LIG    1      -40.379  71.547  23.591  0.00  0.00    +0.027 A 
ATOM     10  C   LIG    1      -39.980  70.184  23.350  0.00  0.00    +0.009 A 
ATOM     11  C   LIG    1      -41.148  69.469  23.128  0.00  0.00    +0.093 A 
ATOM     12  N   LIG    1      -42.216  70.325  23.238  0.00  0.00    -0.345 N 
ATOM     13  H   LIG    1      -43.187  70.095  23.123  0.00  0.00    +0.167 HD
ATOM     14  C   LIG    1      -41.761  71.587  23.509  0.00  0.00    +0.139 A 
ATOM     15  N   LIG    1      -42.567  72.651  23.658  0.00  0.00    -0.237 NA
ATOM     16  C   LIG    1      -41.879  73.796  23.901  0.00  0.00    +0.121 A 
BRANCH  10  17
ATOM     17  C   LIG    1      -38.653  69.572  23.286  0.00  0.00    -0.013 A 
ATOM     18  C   LIG    1      -38.150  69.063  22.084  0.00  0.00    +0.028 A 
ATOM     19  C   LIG    1      -36.882  68.502  22.073  0.00  0.00    +0.111 A 
ATOM     20  N   LIG    1      -36.092  68.408  23.161  0.00  0.00    -0.263 NA
ATOM     21  C   LIG    1      -36.592  68.903  24.310  0.00  0.00    +0.111 A 
ATOM     22  C   LIG    1      -37.844  69.489  24.421  0.00  0.00    +0.028 A 
ENDBRANCH  10  17
ENDBRANCH   3   7
BRANCH   1  23
ATOM     23  N   LIG    1      -36.826  76.721  25.856  0.00  0.00    -0.358 N 
ATOM     24  H   LIG    1      -36.002  76.963  25.314  0.00  0.00    +0.142 HD
ATOM     25  H   LIG    1      -36.912  77.298  26.688  0.00  0.00    +0.142 HD
ENDBRANCH   1  23
BRANCH   5  26
ATOM     26  O   LIG    1      -40.517  78.923  23.740  0.00  0.00    -0.491 OA
BRANCH  26  27
ATOM     27  C   LIG    1      -39.742  80.087  24.080  0.00  0.00    +0.244 C 
BRANCH  27  28
ATOM     28  C   LIG    1      -39.774  81.114  22.933  0.00  0.00    +0.125 C 
BRANCH  28  29
ATOM     29  N   LIG    1      -40.510  82.363  23.250  0.00  0.00    -0.295 NA
ATOM     30  C   LIG    1      -40.914  83.080  22.012  0.00  0.00    +0.112 C 
ATOM     31  C   LIG    1      -39.722  83.680  21.241  0.00  0.00    +0.175 C 
ATOM     32  O   LIG    1      -38.972  84.579  22.068  0.00  0.00    -0.377 OA
ATOM     33  C   LIG    1      -38.533  83.938  23.272  0.00  0.00    +0.175 C 
ATOM     34  C   LIG    1      -39.710  83.322  24.048  0.00  0.00    +0.112 C 
ENDBRANCH  28  29
ENDBRANCH  27  28
ENDBRANCH  26  27
ENDBRANCH   5  26
TORSDOF 7
ENDMDL
MODEL 7
REMARK VINA RESULT:      -5.4     14.469     19.158
REMARK  Name = pdb/CHEMBL2152283.pdb
REMARK                            x       y       z     vdW  Elec       q    Type
REMARK                         _______ _______ _______ _____ _____    ______ ____
ROOT
ATOM      1  C   LIG    1      -40.148  74.964  24.198  0.00  0.00    +0.029 A 
ATOM      2  C   LIG    1      -39.547  73.710  24.382  0.00  0.00    +0.031 A 
ATOM      3  C   LIG    1      -38.288  73.564  24.996  0.00  0.00    -0.011 A 
ATOM      4  C   LIG    1      -37.622  74.745  25.368  0.00  0.00    +0.054 A 
ATOM      5  C   LIG    1      -38.158  76.013  25.107  0.00  0.00    +0.123 A 
ATOM      6  C   LIG    1      -39.420  76.113  24.518  0.00  0.00    +0.068 A 
ENDROOT
BRANCH   3   7
ATOM      7  C   LIG    1      -37.687  72.231  25.223  0.00  0.00    +0.001 A 
ATOM      8  C   LIG    1      -37.593  71.257  24.206  0.00  0.00    +0.022 A 
ATOM      9  C   LIG    1      -37.061  69.977  24.493  0.00  0.00    +0.027 A 
ATOM     10  C   LIG    1      -36.842  68.748  23.775  0.00  0.00    +0.009 A 
ATOM     11  C   LIG    1      -36.277  67.862  24.681  0.00  0.00    +0.093 A 
ATOM     12  N   LIG    1      -36.135  68.499  25.890  0.00  0.00    -0.345 N 
ATOM     13  H   LIG    1      -35.760  68.108  26.735  0.00  0.00    +0.167 HD
ATOM     14  C   LIG    1      -36.614  69.776  25.789  0.00  0.00    +0.139 A 
ATOM     15  N   LIG    1      -36.628  70.647  26.811  0.00  0.00    -0.237 NA
ATOM     16  C   LIG    1      -37.172  71.844  26.470  0.00  0.00    +0.121 A 
BRANCH  10  17
ATOM     17  C   LIG    1      -37.149  68.378  22.393  0.00  0.00    -0.013 A 
ATOM     18  C   LIG    1      -38.385  68.691  21.819  0.00  0.00    +0.028 A 
ATOM     19  C   LIG    1      -38.623  68.329  20.502  0.00  0.00    +0.111 A 
ATOM     20  N   LIG    1      -37.730  67.679  19.729  0.00  0.00    -0.263 NA
ATOM     21  C   LIG    1      -36.544  67.385  20.297  0.00  0.00    +0.111 A 
ATOM     22  C   LIG    1      -36.210  67.712  21.603  0.00  0.00    +0.028 A 
ENDBRANCH  10  17
ENDBRANCH   3   7
BRANCH   1  23
ATOM     23  N   LIG    1      -41.355  75.059  23.490  0.00  0.00    -0.358 N 
ATOM     24  H   LIG    1      -41.467  74.353  22.768  0.00  0.00    +0.142 HD
ATOM     25  H   LIG    1      -42.174  75.119  24.088  0.00  0.00    +0.142 HD
ENDBRANCH   1  23
BRANCH   5  26
ATOM     26  O   LIG    1      -37.522  77.195  25.412  0.00  0.00    -0.491 OA
BRANCH  26  27
ATOM     27  C   LIG    1      -37.634  77.585  26.793  0.00  0.00    +0.244 C 
BRANCH  27  28
ATOM     28  C   LIG    1      -36.454  77.025  27.611  0.00  0.00    +0.125 C 
BRANCH  28  29
ATOM     29  N   LIG    1      -35.128  77.564  27.221  0.00  0.00    -0.295 NA
ATOM     30  C   LIG    1      -34.093  76.498  27.222  0.00  0.00    +0.112 C 
ATOM     31  C   LIG    1      -33.749  75.984  28.633  0.00  0.00    +0.175 C 
ATOM     32  O   LIG    1      -33.307  77.054  29.479  0.00  0.00    -0.377 OA
ATOM     33  C   LIG    1      -34.276  78.107  29.539  0.00  0.00    +0.175 C 
ATOM     34  C   LIG    1      -34.640  78.624  28.136  0.00  0.00    +0.112 C 
ENDBRANCH  28  29
ENDBRANCH  27  28
ENDBRANCH  26  27
ENDBRANCH   5  26
TORSDOF 7
ENDMDL
MODEL 8
REMARK VINA RESULT:      -5.4     14.312     19.824
REMARK  Name = pdb/CHEMBL2152283.pdb
REMARK                            x       y       z     vdW  Elec       q    Type
REMARK                         _______ _______ _______ _____ _____    ______ ____
ROOT
ATOM      1  C   LIG    1      -41.583  72.577  23.069  0.00  0.00    +0.029 A 
ATOM      2  C   LIG    1      -40.890  73.623  23.695  0.00  0.00    +0.031 A 
ATOM      3  C   LIG    1      -39.628  73.436  24.292  0.00  0.00    -0.011 A 
ATOM      4  C   LIG    1      -39.111  72.129  24.287  0.00  0.00    +0.054 A 
ATOM      5  C   LIG    1      -39.827  71.049  23.753  0.00  0.00    +0.123 A 
ATOM      6  C   LIG    1      -41.064  71.282  23.150  0.00  0.00    +0.068 A 
ENDROOT
BRANCH   3   7
ATOM      7  C   LIG    1      -38.890  74.559  24.910  0.00  0.00    +0.001 A 
ATOM      8  C   LIG    1      -37.818  74.362  25.807  0.00  0.00    +0.022 A 
ATOM      9  C   LIG    1      -37.184  75.472  26.414  0.00  0.00    +0.027 A 
ATOM     10  C   LIG    1      -36.129  75.682  27.372  0.00  0.00    +0.009 A 
ATOM     11  C   LIG    1      -36.014  77.056  27.532  0.00  0.00    +0.093 A 
ATOM     12  N   LIG    1      -36.929  77.672  26.714  0.00  0.00    -0.345 N 
ATOM     13  H   LIG    1      -37.083  78.660  26.619  0.00  0.00    +0.167 HD
ATOM     14  C   LIG    1      -37.648  76.722  26.040  0.00  0.00    +0.139 A 
ATOM     15  N   LIG    1      -38.632  77.012  25.173  0.00  0.00    -0.237 NA
ATOM     16  C   LIG    1      -39.209  75.901  24.648  0.00  0.00    +0.121 A 
BRANCH  10  17
ATOM     17  C   LIG    1      -35.309  74.728  28.118  0.00  0.00    -0.013 A 
ATOM     18  C   LIG    1      -35.892  73.787  28.972  0.00  0.00    +0.028 A 
ATOM     19  C   LIG    1      -35.072  72.896  29.649  0.00  0.00    +0.111 A 
ATOM     20  N   LIG    1      -33.729  72.882  29.541  0.00  0.00    -0.263 NA
ATOM     21  C   LIG    1      -33.183  73.796  28.715  0.00  0.00    +0.111 A 
ATOM     22  C   LIG    1      -33.918  74.721  27.990  0.00  0.00    +0.028 A 
ENDBRANCH  10  17
ENDBRANCH   3   7
BRANCH   1  23
ATOM     23  N   LIG    1      -42.879  72.796  22.580  0.00  0.00    -0.358 N 
ATOM     24  H   LIG    1      -42.969  73.632  22.009  0.00  0.00    +0.142 HD
ATOM     25  H   LIG    1      -43.286  71.984  22.125  0.00  0.00    +0.142 HD
ENDBRANCH   1  23
BRANCH   5  26
ATOM     26  O   LIG    1      -39.380  69.747  23.767  0.00  0.00    -0.491 OA
BRANCH  26  27
ATOM     27  C   LIG    1      -38.004  69.592  23.376  0.00  0.00    +0.244 C 
BRANCH  27  28
ATOM     28  C   LIG    1      -37.168  69.032  24.543  0.00  0.00    +0.125 C 
BRANCH  28  29
ATOM     29  N   LIG    1      -35.859  69.702  24.736  0.00  0.00    -0.295 NA
ATOM     30  C   LIG    1      -34.831  68.746  25.223  0.00  0.00    +0.112 C 
ATOM     31  C   LIG    1      -35.082  68.266  26.665  0.00  0.00    +0.175 C 
ATOM     32  O   LIG    1      -35.147  69.373  27.575  0.00  0.00    -0.377 OA
ATOM     33  C   LIG    1      -36.141  70.323  27.171  0.00  0.00    +0.175 C 
ATOM     34  C   LIG    1      -35.912  70.804  25.727  0.00  0.00    +0.112 C 
ENDBRANCH  28  29
ENDBRANCH  27  28
ENDBRANCH  26  27
ENDBRANCH   5  26
TORSDOF 7
ENDMDL
MODEL 9
REMARK VINA RESULT:      -5.4     16.994     19.607
REMARK  Name = pdb/CHEMBL2152283.pdb
REMARK                            x       y       z     vdW  Elec       q    Type
REMARK                         _______ _______ _______ _____ _____    ______ ____
ROOT
ATOM      1  C   LIG    1      -19.478  80.567  15.666  0.00  0.00    +0.029 A 
ATOM      2  C   LIG    1      -20.267  79.414  15.550  0.00  0.00    +0.031 A 
ATOM      3  C   LIG    1      -21.449  79.388  14.783  0.00  0.00    -0.011 A 
ATOM      4  C   LIG    1      -21.842  80.595  14.182  0.00  0.00    +0.054 A 
ATOM      5  C   LIG    1      -21.122  81.784  14.362  0.00  0.00    +0.123 A 
ATOM      6  C   LIG    1      -19.943  81.761  15.110  0.00  0.00    +0.068 A 
ENDROOT
BRANCH   3   7
ATOM      7  C   LIG    1      -22.248  78.151  14.634  0.00  0.00    +0.001 A 
ATOM      8  C   LIG    1      -22.038  77.009  15.436  0.00  0.00    +0.022 A 
ATOM      9  C   LIG    1      -22.792  75.833  15.213  0.00  0.00    +0.027 A 
ATOM     10  C   LIG    1      -22.849  74.503  15.763  0.00  0.00    +0.009 A 
ATOM     11  C   LIG    1      -23.838  73.831  15.058  0.00  0.00    +0.093 A 
ATOM     12  N   LIG    1      -24.380  74.689  14.133  0.00  0.00    -0.345 N 
ATOM     13  H   LIG    1      -25.111  74.482  13.476  0.00  0.00    +0.167 HD
ATOM     14  C   LIG    1      -23.749  75.900  14.212  0.00  0.00    +0.139 A 
ATOM     15  N   LIG    1      -24.046  76.945  13.423  0.00  0.00    -0.237 NA
ATOM     16  C   LIG    1      -23.269  78.029  13.678  0.00  0.00    +0.121 A 
BRANCH  10  17
ATOM     17  C   LIG    1      -22.055  73.867  16.814  0.00  0.00    -0.013 A 
ATOM     18  C   LIG    1      -20.657  73.879  16.770  0.00  0.00    +0.028 A 
ATOM     19  C   LIG    1      -19.949  73.271  17.797  0.00  0.00    +0.111 A 
ATOM     20  N   LIG    1      -20.529  72.656  18.846  0.00  0.00    -0.263 NA
ATOM     21  C   LIG    1      -21.876  72.653  18.873  0.00  0.00    +0.111 A 
ATOM     22  C   LIG    1      -22.670  73.240  17.899  0.00  0.00    +0.028 A 
ENDBRANCH  10  17
ENDBRANCH   3   7
BRANCH   1  23
ATOM     23  N   LIG    1      -18.367  80.564  16.524  0.00  0.00    -0.358 N 
ATOM     24  H   LIG    1      -18.445  79.912  17.298  0.00  0.00    +0.142 HD
ATOM     25  H   LIG    1      -17.479  80.469  16.040  0.00  0.00    +0.142 HD
ENDBRANCH   1  23
BRANCH   5  26
ATOM     26  O   LIG    1      -21.494  82.998  13.830  0.00  0.00    -0.491 OA
BRANCH  26  27
ATOM     27  C   LIG    1      -20.403  83.920  13.648  0.00  0.00    +0.244 C 
BRANCH  27  28
ATOM     28  C   LIG    1      -20.923  85.369  13.591  0.00  0.00    +0.125 C 
BRANCH  28  29
ATOM     29  N   LIG    1      -22.321  85.537  14.057  0.00  0.00    -0.295 NA
ATOM     30  C   LIG    1      -22.995  86.655  13.346  0.00  0.00    +0.112 C 
ATOM     31  C   LIG    1      -22.437  88.041  13.724  0.00  0.00    +0.175 C 
ATOM     32  O   LIG    1      -22.534  88.269  15.137  0.00  0.00    -0.377 OA
ATOM     33  C   LIG    1      -21.881  87.233  15.880  0.00  0.00    +0.175 C 
ATOM     34  C   LIG    1      -22.418  85.841  15.505  0.00  0.00    +0.112 C 
ENDBRANCH  28  29
ENDBRANCH  27  28
ENDBRANCH  26  27
ENDBRANCH   5  26
TORSDOF 7
ENDMDL
