MODEL 1
REMARK VINA RESULT:      -7.0      0.000      0.000
REMARK  Name = pdb/CHEMBL3938236.pdb
REMARK                            x       y       z     vdW  Elec       q    Type
REMARK                         _______ _______ _______ _____ _____    ______ ____
ROOT
ATOM      1  C   LIG    1      -28.342  75.409  32.408  0.00  0.00    +0.323 A 
ATOM      2  N   LIG    1      -27.455  75.688  31.436  0.00  0.00    -0.201 NA
ATOM      3  C   LIG    1      -26.470  76.576  31.720  0.00  0.00    +0.145 A 
ATOM      4  C   LIG    1      -26.311  77.195  32.940  0.00  0.00    +0.105 A 
ATOM      5  C   LIG    1      -27.291  76.811  33.850  0.00  0.00    +0.145 A 
ATOM      6  N   LIG    1      -28.300  75.938  33.630  0.00  0.00    -0.201 NA
ENDROOT
BRANCH   4   7
ATOM      7  N   LIG    1      -25.209  78.048  33.144  0.00  0.00    -0.196 NA
ATOM      8  C   LIG    1      -24.198  77.732  33.890  0.00  0.00    +0.285 C 
BRANCH   8   9
ATOM      9  N   LIG    1      -23.069  78.480  33.999  0.00  0.00    -0.269 N 
ATOM     10  H   LIG    1      -23.193  79.211  34.667  0.00  0.00    +0.157 HD
BRANCH   9  11
ATOM     11  C   LIG    1      -21.782  78.315  33.429  0.00  0.00    +0.043 A 
ATOM     12  C   LIG    1      -20.650  79.106  33.802  0.00  0.00    +0.003 A 
ATOM     13  C   LIG    1      -19.566  79.060  32.876  0.00  0.00    +0.011 A 
ATOM     14  C   LIG    1      -19.540  78.267  31.720  0.00  0.00    +0.013 A 
ATOM     15  C   LIG    1      -20.588  77.411  31.439  0.00  0.00    +0.057 A 
ATOM     16  C   LIG    1      -21.678  77.430  32.311  0.00  0.00    +0.036 A 
BRANCH  12  17
ATOM     17  C   LIG    1      -20.494  79.973  35.054  0.00  0.00    -0.016 A 
ATOM     18  C   LIG    1      -21.163  81.218  35.178  0.00  0.00    +0.008 A 
ATOM     19  C   LIG    1      -21.029  82.068  36.290  0.00  0.00    +0.001 A 
ATOM     20  C   LIG    1      -20.252  81.687  37.368  0.00  0.00    +0.000 A 
ATOM     21  C   LIG    1      -19.563  80.490  37.294  0.00  0.00    +0.001 A 
ATOM     22  C   LIG    1      -19.645  79.688  36.141  0.00  0.00    +0.008 A 
ENDBRANCH  12  17
BRANCH  15  23
ATOM     23  C   LIG    1      -20.552  76.517  30.225  0.00  0.00    +0.417 C 
ATOM     24  F   LIG    1      -19.646  75.512  30.348  0.00  0.00    -0.166 F 
ATOM     25  F   LIG    1      -20.212  77.195  29.093  0.00  0.00    -0.166 F 
ATOM     26  F   LIG    1      -21.745  75.921  29.953  0.00  0.00    -0.166 F 
ENDBRANCH  15  23
ENDBRANCH   9  11
ENDBRANCH   8   9
BRANCH   8  27
ATOM     27  O   LIG    1      -24.155  76.565  34.546  0.00  0.00    -0.481 OA
ATOM     28  H   LIG    1      -23.371  76.509  35.094  0.00  0.00    +0.295 HD
ENDBRANCH   8  27
ENDBRANCH   4   7
BRANCH   1  29
ATOM     29  O   LIG    1      -29.338  74.455  32.233  0.00  0.00    -0.424 OA
BRANCH  29  33
ATOM     30  C   LIG    1      -32.539  75.369  29.652  0.00  0.00    -0.014 A 
ATOM     31  C   LIG    1      -32.195  76.177  30.750  0.00  0.00    +0.012 A 
ATOM     32  C   LIG    1      -31.111  75.855  31.584  0.00  0.00    +0.047 A 
ATOM     33  C   LIG    1      -30.367  74.698  31.361  0.00  0.00    +0.132 A 
ATOM     34  C   LIG    1      -30.750  73.850  30.337  0.00  0.00    +0.047 A 
ATOM     35  C   LIG    1      -31.775  74.208  29.470  0.00  0.00    +0.012 A 
BRANCH  30  37
ATOM     36  C   LIG    1      -33.645  76.596  27.680  0.00  0.00    +0.124 A 
ATOM     37  C   LIG    1      -33.667  75.653  28.726  0.00  0.00    +0.024 A 
ATOM     38  C   LIG    1      -34.865  74.917  28.857  0.00  0.00    +0.051 A 
ATOM     39  C   LIG    1      -35.921  75.111  27.988  0.00  0.00    +0.142 A 
ATOM     40  F   LIG    1      -37.033  74.377  28.100  0.00  0.00    -0.204 F 
ATOM     41  C   LIG    1      -35.795  76.070  27.012  0.00  0.00    +0.151 A 
ATOM     42  N   LIG    1      -34.685  76.821  26.845  0.00  0.00    -0.237 NA
BRANCH  36  43
ATOM     43  N   LIG    1      -32.532  77.382  27.383  0.00  0.00    -0.343 N 
ATOM     44  H   LIG    1      -32.749  78.043  26.644  0.00  0.00    +0.144 HD
ATOM     45  H   LIG    1      -32.286  77.859  28.248  0.00  0.00    +0.144 HD
ENDBRANCH  36  43
ENDBRANCH  30  37
ENDBRANCH  29  33
ENDBRANCH   1  29
TORSDOF 10
ENDMDL
MODEL 2
REMARK VINA RESULT:      -7.0      2.401      2.865
REMARK  Name = pdb/CHEMBL3938236.pdb
REMARK                            x       y       z     vdW  Elec       q    Type
REMARK                         _______ _______ _______ _____ _____    ______ ____
ROOT
ATOM      1  C   LIG    1      -28.582  77.001  32.317  0.00  0.00    +0.323 A 
ATOM      2  N   LIG    1      -27.607  77.148  31.401  0.00  0.00    -0.201 NA
ATOM      3  C   LIG    1      -26.326  77.154  31.845  0.00  0.00    +0.145 A 
ATOM      4  C   LIG    1      -25.959  77.004  33.164  0.00  0.00    +0.105 A 
ATOM      5  C   LIG    1      -27.065  76.857  33.997  0.00  0.00    +0.145 A 
ATOM      6  N   LIG    1      -28.364  76.846  33.621  0.00  0.00    -0.201 NA
ENDROOT
BRANCH   4   7
ATOM      7  N   LIG    1      -24.593  76.957  33.500  0.00  0.00    -0.196 NA
ATOM      8  C   LIG    1      -23.942  77.979  33.961  0.00  0.00    +0.285 C 
BRANCH   8   9
ATOM      9  N   LIG    1      -22.662  77.925  34.412  0.00  0.00    -0.269 N 
ATOM     10  H   LIG    1      -22.640  77.714  35.387  0.00  0.00    +0.157 HD
BRANCH   9  11
ATOM     11  C   LIG    1      -21.426  78.000  33.722  0.00  0.00    +0.043 A 
ATOM     12  C   LIG    1      -20.446  79.011  33.974  0.00  0.00    +0.003 A 
ATOM     13  C   LIG    1      -19.465  79.152  32.948  0.00  0.00    +0.011 A 
ATOM     14  C   LIG    1      -19.387  78.344  31.805  0.00  0.00    +0.013 A 
ATOM     15  C   LIG    1      -20.264  77.288  31.638  0.00  0.00    +0.057 A 
ATOM     16  C   LIG    1      -21.250  77.119  32.611  0.00  0.00    +0.036 A 
BRANCH  12  17
ATOM     17  C   LIG    1      -20.352  79.931  35.194  0.00  0.00    -0.016 A 
ATOM     18  C   LIG    1      -21.108  81.129  35.276  0.00  0.00    +0.008 A 
ATOM     19  C   LIG    1      -21.035  82.025  36.357  0.00  0.00    +0.001 A 
ATOM     20  C   LIG    1      -20.232  81.738  37.446  0.00  0.00    +0.000 A 
ATOM     21  C   LIG    1      -19.460  80.592  37.413  0.00  0.00    +0.001 A 
ATOM     22  C   LIG    1      -19.484  79.746  36.289  0.00  0.00    +0.008 A 
ENDBRANCH  12  17
BRANCH  15  23
ATOM     23  C   LIG    1      -20.162  76.382  30.436  0.00  0.00    +0.417 C 
ATOM     24  F   LIG    1      -19.071  76.654  29.673  0.00  0.00    -0.166 F 
ATOM     25  F   LIG    1      -21.238  76.495  29.609  0.00  0.00    -0.166 F 
ATOM     26  F   LIG    1      -20.080  75.062  30.758  0.00  0.00    -0.166 F 
ENDBRANCH  15  23
ENDBRANCH   9  11
ENDBRANCH   8   9
BRANCH   8  27
ATOM     27  O   LIG    1      -24.537  79.168  34.120  0.00  0.00    -0.481 OA
ATOM     28  H   LIG    1      -24.118  79.836  33.575  0.00  0.00    +0.295 HD
ENDBRANCH   8  27
ENDBRANCH   4   7
BRANCH   1  29
ATOM     29  O   LIG    1      -29.920  76.906  31.947  0.00  0.00    -0.424 OA
BRANCH  29  33
ATOM     30  C   LIG    1      -31.459  73.332  30.333  0.00  0.00    -0.014 A 
ATOM     31  C   LIG    1      -31.329  74.512  29.579  0.00  0.00    +0.012 A 
ATOM     32  C   LIG    1      -30.796  75.685  30.141  0.00  0.00    +0.047 A 
ATOM     33  C   LIG    1      -30.413  75.715  31.480  0.00  0.00    +0.132 A 
ATOM     34  C   LIG    1      -30.617  74.588  32.255  0.00  0.00    +0.047 A 
ATOM     35  C   LIG    1      -31.075  73.408  31.680  0.00  0.00    +0.012 A 
BRANCH  30  37
ATOM     36  C   LIG    1      -31.242  70.928  29.443  0.00  0.00    +0.124 A 
ATOM     37  C   LIG    1      -32.006  72.056  29.802  0.00  0.00    +0.024 A 
ATOM     38  C   LIG    1      -33.404  71.915  29.659  0.00  0.00    +0.051 A 
ATOM     39  C   LIG    1      -33.961  70.731  29.217  0.00  0.00    +0.142 A 
ATOM     40  F   LIG    1      -35.289  70.600  29.125  0.00  0.00    -0.204 F 
ATOM     41  C   LIG    1      -33.118  69.699  28.879  0.00  0.00    +0.151 A 
ATOM     42  N   LIG    1      -31.773  69.776  28.975  0.00  0.00    -0.237 NA
BRANCH  36  43
ATOM     43  N   LIG    1      -29.854  70.878  29.556  0.00  0.00    -0.343 N 
ATOM     44  H   LIG    1      -29.504  71.709  30.022  0.00  0.00    +0.144 HD
ATOM     45  H   LIG    1      -29.645  70.037  30.090  0.00  0.00    +0.144 HD
ENDBRANCH  36  43
ENDBRANCH  30  37
ENDBRANCH  29  33
ENDBRANCH   1  29
TORSDOF 10
ENDMDL
MODEL 3
REMARK VINA RESULT:      -6.8     20.897     23.031
REMARK  Name = pdb/CHEMBL3938236.pdb
REMARK                            x       y       z     vdW  Elec       q    Type
REMARK                         _______ _______ _______ _____ _____    ______ ____
ROOT
ATOM      1  C   LIG    1      -24.683  89.264  10.592  0.00  0.00    +0.323 A 
ATOM      2  N   LIG    1      -25.631  88.363  10.273  0.00  0.00    -0.201 NA
ATOM      3  C   LIG    1      -25.468  87.096  10.727  0.00  0.00    +0.145 A 
ATOM      4  C   LIG    1      -24.409  86.677  11.503  0.00  0.00    +0.105 A 
ATOM      5  C   LIG    1      -23.513  87.710  11.759  0.00  0.00    +0.145 A 
ATOM      6  N   LIG    1      -23.612  88.991  11.334  0.00  0.00    -0.201 NA
ENDROOT
BRANCH   4   7
ATOM      7  N   LIG    1      -24.380  85.352  11.975  0.00  0.00    -0.196 NA
ATOM      8  C   LIG    1      -23.512  84.476  11.575  0.00  0.00    +0.285 C 
BRANCH   8   9
ATOM      9  N   LIG    1      -23.383  83.234  12.108  0.00  0.00    -0.269 N 
ATOM     10  H   LIG    1      -23.159  82.568  11.400  0.00  0.00    +0.157 HD
BRANCH   9  11
ATOM     11  C   LIG    1      -23.400  82.789  13.454  0.00  0.00    +0.043 A 
ATOM     12  C   LIG    1      -22.576  83.355  14.478  0.00  0.00    +0.003 A 
ATOM     13  C   LIG    1      -22.452  82.548  15.648  0.00  0.00    +0.011 A 
ATOM     14  C   LIG    1      -23.117  81.330  15.850  0.00  0.00    +0.013 A 
ATOM     15  C   LIG    1      -24.010  80.860  14.905  0.00  0.00    +0.057 A 
ATOM     16  C   LIG    1      -24.155  81.610  13.737  0.00  0.00    +0.036 A 
BRANCH  12  17
ATOM     17  C   LIG    1      -21.835  84.693  14.441  0.00  0.00    -0.016 A 
ATOM     18  C   LIG    1      -22.388  85.860  15.029  0.00  0.00    +0.008 A 
ATOM     19  C   LIG    1      -21.765  87.120  14.996  0.00  0.00    +0.001 A 
ATOM     20  C   LIG    1      -20.520  87.266  14.413  0.00  0.00    +0.000 A 
ATOM     21  C   LIG    1      -19.942  86.166  13.808  0.00  0.00    +0.001 A 
ATOM     22  C   LIG    1      -20.614  84.930  13.780  0.00  0.00    +0.008 A 
ENDBRANCH  12  17
BRANCH  15  23
ATOM     23  C   LIG    1      -24.768  79.576  15.130  0.00  0.00    +0.417 C 
ATOM     24  F   LIG    1      -24.516  78.649  14.168  0.00  0.00    -0.166 F 
ATOM     25  F   LIG    1      -26.117  79.763  15.129  0.00  0.00    -0.166 F 
ATOM     26  F   LIG    1      -24.480  78.976  16.318  0.00  0.00    -0.166 F 
ENDBRANCH  15  23
ENDBRANCH   9  11
ENDBRANCH   8   9
BRANCH   8  27
ATOM     27  O   LIG    1      -22.593  84.782  10.650  0.00  0.00    -0.481 OA
ATOM     28  H   LIG    1      -22.349  85.707  10.703  0.00  0.00    +0.295 HD
ENDBRANCH   8  27
ENDBRANCH   4   7
BRANCH   1  29
ATOM     29  O   LIG    1      -24.804  90.603  10.236  0.00  0.00    -0.424 OA
BRANCH  29  33
ATOM     30  C   LIG    1      -26.293  93.519  12.886  0.00  0.00    -0.014 A 
ATOM     31  C   LIG    1      -25.660  93.847  11.675  0.00  0.00    +0.012 A 
ATOM     32  C   LIG    1      -25.188  92.851  10.803  0.00  0.00    +0.047 A 
ATOM     33  C   LIG    1      -25.306  91.504  11.138  0.00  0.00    +0.132 A 
ATOM     34  C   LIG    1      -25.849  91.171  12.367  0.00  0.00    +0.047 A 
ATOM     35  C   LIG    1      -26.381  92.153  13.194  0.00  0.00    +0.012 A 
BRANCH  30  37
ATOM     36  C   LIG    1      -26.326  95.826  14.025  0.00  0.00    +0.124 A 
ATOM     37  C   LIG    1      -26.822  94.518  13.852  0.00  0.00    +0.024 A 
ATOM     38  C   LIG    1      -27.930  94.176  14.658  0.00  0.00    +0.051 A 
ATOM     39  C   LIG    1      -28.486  95.089  15.532  0.00  0.00    +0.142 A 
ATOM     40  F   LIG    1      -29.561  94.762  16.258  0.00  0.00    -0.204 F 
ATOM     41  C   LIG    1      -27.911  96.332  15.632  0.00  0.00    +0.151 A 
ATOM     42  N   LIG    1      -26.839  96.716  14.904  0.00  0.00    -0.237 NA
BRANCH  36  43
ATOM     43  N   LIG    1      -25.263  96.343  13.287  0.00  0.00    -0.343 N 
ATOM     44  H   LIG    1      -25.515  97.237  12.878  0.00  0.00    +0.144 HD
ATOM     45  H   LIG    1      -24.487  96.439  13.940  0.00  0.00    +0.144 HD
ENDBRANCH  36  43
ENDBRANCH  30  37
ENDBRANCH  29  33
ENDBRANCH   1  29
TORSDOF 10
ENDMDL
MODEL 4
REMARK VINA RESULT:      -6.7      3.701     12.494
REMARK  Name = pdb/CHEMBL3938236.pdb
REMARK                            x       y       z     vdW  Elec       q    Type
REMARK                         _______ _______ _______ _____ _____    ______ ____
ROOT
ATOM      1  C   LIG    1      -24.232  77.337  32.398  0.00  0.00    +0.323 A 
ATOM      2  N   LIG    1      -24.931  76.498  33.184  0.00  0.00    -0.201 NA
ATOM      3  C   LIG    1      -26.193  76.183  32.800  0.00  0.00    +0.145 A 
ATOM      4  C   LIG    1      -26.797  76.652  31.654  0.00  0.00    +0.105 A 
ATOM      5  C   LIG    1      -25.961  77.503  30.937  0.00  0.00    +0.145 A 
ATOM      6  N   LIG    1      -24.698  77.861  31.265  0.00  0.00    -0.201 NA
ENDROOT
BRANCH   4   7
ATOM      7  N   LIG    1      -28.088  76.203  31.320  0.00  0.00    -0.196 NA
ATOM      8  C   LIG    1      -29.169  76.801  31.711  0.00  0.00    +0.285 C 
BRANCH   8   9
ATOM      9  N   LIG    1      -30.418  76.463  31.297  0.00  0.00    -0.269 N 
ATOM     10  H   LIG    1      -31.081  77.154  31.578  0.00  0.00    +0.157 HD
BRANCH   9  11
ATOM     11  C   LIG    1      -30.873  75.403  30.473  0.00  0.00    +0.043 A 
ATOM     12  C   LIG    1      -31.911  75.555  29.501  0.00  0.00    +0.003 A 
ATOM     13  C   LIG    1      -32.483  74.327  29.052  0.00  0.00    +0.011 A 
ATOM     14  C   LIG    1      -32.050  73.054  29.451  0.00  0.00    +0.013 A 
ATOM     15  C   LIG    1      -30.963  72.921  30.294  0.00  0.00    +0.057 A 
ATOM     16  C   LIG    1      -30.377  74.096  30.769  0.00  0.00    +0.036 A 
BRANCH  12  17
ATOM     17  C   LIG    1      -32.454  76.861  28.916  0.00  0.00    -0.016 A 
ATOM     18  C   LIG    1      -33.618  77.478  29.442  0.00  0.00    +0.008 A 
ATOM     19  C   LIG    1      -34.177  78.658  28.923  0.00  0.00    +0.001 A 
ATOM     20  C   LIG    1      -33.565  79.316  27.873  0.00  0.00    +0.000 A 
ATOM     21  C   LIG    1      -32.436  78.750  27.309  0.00  0.00    +0.001 A 
ATOM     22  C   LIG    1      -31.934  77.527  27.789  0.00  0.00    +0.008 A 
ENDBRANCH  12  17
BRANCH  15  23
ATOM     23  C   LIG    1      -30.457  71.558  30.693  0.00  0.00    +0.417 C 
ATOM     24  F   LIG    1      -30.779  71.241  31.975  0.00  0.00    -0.166 F 
ATOM     25  F   LIG    1      -29.101  71.463  30.611  0.00  0.00    -0.166 F 
ATOM     26  F   LIG    1      -30.945  70.549  29.920  0.00  0.00    -0.166 F 
ENDBRANCH  15  23
ENDBRANCH   9  11
ENDBRANCH   8   9
BRANCH   8  27
ATOM     27  O   LIG    1      -29.119  77.887  32.493  0.00  0.00    -0.481 OA
ATOM     28  H   LIG    1      -28.225  78.046  32.800  0.00  0.00    +0.295 HD
ENDBRANCH   8  27
ENDBRANCH   4   7
BRANCH   1  29
ATOM     29  O   LIG    1      -22.906  77.656  32.670  0.00  0.00    -0.424 OA
BRANCH  29  33
ATOM     30  C   LIG    1      -22.186  80.484  35.707  0.00  0.00    -0.014 A 
ATOM     31  C   LIG    1      -23.393  80.432  34.989  0.00  0.00    +0.012 A 
ATOM     32  C   LIG    1      -23.611  79.466  33.992  0.00  0.00    +0.047 A 
ATOM     33  C   LIG    1      -22.613  78.551  33.666  0.00  0.00    +0.132 A 
ATOM     34  C   LIG    1      -21.389  78.648  34.304  0.00  0.00    +0.047 A 
ATOM     35  C   LIG    1      -21.202  79.555  35.339  0.00  0.00    +0.012 A 
BRANCH  30  37
ATOM     36  C   LIG    1      -22.393  81.424  38.093  0.00  0.00    +0.124 A 
ATOM     37  C   LIG    1      -21.891  81.473  36.778  0.00  0.00    +0.024 A 
ATOM     38  C   LIG    1      -21.017  82.547  36.499  0.00  0.00    +0.051 A 
ATOM     39  C   LIG    1      -20.675  83.461  37.476  0.00  0.00    +0.142 A 
ATOM     40  F   LIG    1      -19.814  84.449  37.207  0.00  0.00    -0.204 F 
ATOM     41  C   LIG    1      -21.237  83.326  38.723  0.00  0.00    +0.151 A 
ATOM     42  N   LIG    1      -22.094  82.334  39.049  0.00  0.00    -0.237 NA
BRANCH  36  43
ATOM     43  N   LIG    1      -23.237  80.414  38.552  0.00  0.00    -0.343 N 
ATOM     44  H   LIG    1      -23.157  79.590  37.966  0.00  0.00    +0.144 HD
ATOM     45  H   LIG    1      -22.949  80.219  39.509  0.00  0.00    +0.144 HD
ENDBRANCH  36  43
ENDBRANCH  30  37
ENDBRANCH  29  33
ENDBRANCH   1  29
TORSDOF 10
ENDMDL
MODEL 5
REMARK VINA RESULT:      -6.7      8.409     12.099
REMARK  Name = pdb/CHEMBL3938236.pdb
REMARK                            x       y       z     vdW  Elec       q    Type
REMARK                         _______ _______ _______ _____ _____    ______ ____
ROOT
ATOM      1  C   LIG    1      -26.116  81.529  37.046  0.00  0.00    +0.323 A 
ATOM      2  N   LIG    1      -27.450  81.421  37.183  0.00  0.00    -0.201 NA
ATOM      3  C   LIG    1      -28.187  82.552  37.060  0.00  0.00    +0.145 A 
ATOM      4  C   LIG    1      -27.661  83.797  36.790  0.00  0.00    +0.105 A 
ATOM      5  C   LIG    1      -26.276  83.760  36.669  0.00  0.00    +0.145 A 
ATOM      6  N   LIG    1      -25.482  82.671  36.784  0.00  0.00    -0.201 NA
ENDROOT
BRANCH   4   7
ATOM      7  N   LIG    1      -28.530  84.890  36.616  0.00  0.00    -0.196 NA
ATOM      8  C   LIG    1      -29.065  85.195  35.476  0.00  0.00    +0.285 C 
BRANCH   8   9
ATOM      9  N   LIG    1      -30.003  86.164  35.310  0.00  0.00    -0.269 N 
ATOM     10  H   LIG    1      -30.794  85.992  35.893  0.00  0.00    +0.157 HD
BRANCH   9  11
ATOM     11  C   LIG    1      -29.976  87.371  34.567  0.00  0.00    +0.043 A 
ATOM     12  C   LIG    1      -30.469  87.480  33.228  0.00  0.00    +0.003 A 
ATOM     13  C   LIG    1      -30.020  88.638  32.527  0.00  0.00    +0.011 A 
ATOM     14  C   LIG    1      -29.220  89.646  33.084  0.00  0.00    +0.013 A 
ATOM     15  C   LIG    1      -28.858  89.590  34.417  0.00  0.00    +0.057 A 
ATOM     16  C   LIG    1      -29.264  88.468  35.141  0.00  0.00    +0.036 A 
BRANCH  12  17
ATOM     17  C   LIG    1      -31.395  86.506  32.496  0.00  0.00    -0.016 A 
ATOM     18  C   LIG    1      -32.605  86.054  33.082  0.00  0.00    +0.008 A 
ATOM     19  C   LIG    1      -33.475  85.137  32.468  0.00  0.00    +0.001 A 
ATOM     20  C   LIG    1      -33.201  84.660  31.200  0.00  0.00    +0.000 A 
ATOM     21  C   LIG    1      -32.026  85.053  30.587  0.00  0.00    +0.001 A 
ATOM     22  C   LIG    1      -31.127  85.910  31.248  0.00  0.00    +0.008 A 
ENDBRANCH  12  17
BRANCH  15  23
ATOM     23  C   LIG    1      -28.037  90.691  35.041  0.00  0.00    +0.417 C 
ATOM     24  F   LIG    1      -26.982  90.212  35.752  0.00  0.00    -0.166 F 
ATOM     25  F   LIG    1      -28.763  91.449  35.910  0.00  0.00    -0.166 F 
ATOM     26  F   LIG    1      -27.519  91.563  34.134  0.00  0.00    -0.166 F 
ENDBRANCH  15  23
ENDBRANCH   9  11
ENDBRANCH   8   9
BRANCH   8  27
ATOM     27  O   LIG    1      -28.794  84.490  34.370  0.00  0.00    -0.481 OA
ATOM     28  H   LIG    1      -28.486  85.062  33.666  0.00  0.00    +0.295 HD
ENDBRANCH   8  27
ENDBRANCH   4   7
BRANCH   1  29
ATOM     29  O   LIG    1      -25.287  80.412  37.079  0.00  0.00    -0.424 OA
BRANCH  29  33
ATOM     30  C   LIG    1      -24.262  78.443  33.499  0.00  0.00    -0.014 A 
ATOM     31  C   LIG    1      -25.322  78.022  34.321  0.00  0.00    +0.012 A 
ATOM     32  C   LIG    1      -25.651  78.709  35.501  0.00  0.00    +0.047 A 
ATOM     33  C   LIG    1      -24.905  79.814  35.907  0.00  0.00    +0.132 A 
ATOM     34  C   LIG    1      -23.806  80.185  35.153  0.00  0.00    +0.047 A 
ATOM     35  C   LIG    1      -23.528  79.550  33.949  0.00  0.00    +0.012 A 
BRANCH  30  37
ATOM     36  C   LIG    1      -24.748  77.354  31.219  0.00  0.00    +0.124 A 
ATOM     37  C   LIG    1      -23.864  77.769  32.235  0.00  0.00    +0.024 A 
ATOM     38  C   LIG    1      -22.494  77.534  31.984  0.00  0.00    +0.051 A 
ATOM     39  C   LIG    1      -22.074  76.956  30.802  0.00  0.00    +0.142 A 
ATOM     40  F   LIG    1      -20.771  76.778  30.562  0.00  0.00    -0.204 F 
ATOM     41  C   LIG    1      -23.026  76.576  29.887  0.00  0.00    +0.151 A 
ATOM     42  N   LIG    1      -24.351  76.755  30.074  0.00  0.00    -0.237 NA
BRANCH  36  43
ATOM     43  N   LIG    1      -26.128  77.541  31.284  0.00  0.00    -0.343 N 
ATOM     44  H   LIG    1      -26.605  76.651  31.379  0.00  0.00    +0.144 HD
ATOM     45  H   LIG    1      -26.294  78.140  32.091  0.00  0.00    +0.144 HD
ENDBRANCH  36  43
ENDBRANCH  30  37
ENDBRANCH  29  33
ENDBRANCH   1  29
TORSDOF 10
ENDMDL
MODEL 6
REMARK VINA RESULT:      -6.6      8.562     14.164
REMARK  Name = pdb/CHEMBL3938236.pdb
REMARK                            x       y       z     vdW  Elec       q    Type
REMARK                         _______ _______ _______ _____ _____    ______ ____
ROOT
ATOM      1  C   LIG    1      -35.019  82.787  30.015  0.00  0.00    +0.323 A 
ATOM      2  N   LIG    1      -35.289  82.850  28.698  0.00  0.00    -0.201 NA
ATOM      3  C   LIG    1      -35.183  81.705  27.981  0.00  0.00    +0.145 A 
ATOM      4  C   LIG    1      -34.832  80.483  28.513  0.00  0.00    +0.105 A 
ATOM      5  C   LIG    1      -34.586  80.564  29.880  0.00  0.00    +0.145 A 
ATOM      6  N   LIG    1      -34.670  81.671  30.653  0.00  0.00    -0.201 NA
ENDROOT
BRANCH   4   7
ATOM      7  N   LIG    1      -34.821  79.346  27.684  0.00  0.00    -0.196 NA
ATOM      8  C   LIG    1      -33.821  78.522  27.626  0.00  0.00    +0.285 C 
BRANCH   8   9
ATOM      9  N   LIG    1      -33.838  77.354  26.934  0.00  0.00    -0.269 N 
ATOM     10  H   LIG    1      -33.349  77.449  26.069  0.00  0.00    +0.157 HD
BRANCH   9  11
ATOM     11  C   LIG    1      -34.312  76.066  27.289  0.00  0.00    +0.043 A 
ATOM     12  C   LIG    1      -35.691  75.691  27.220  0.00  0.00    +0.003 A 
ATOM     13  C   LIG    1      -36.020  74.517  27.961  0.00  0.00    +0.011 A 
ATOM     14  C   LIG    1      -35.093  73.726  28.654  0.00  0.00    +0.013 A 
ATOM     15  C   LIG    1      -33.746  74.030  28.605  0.00  0.00    +0.057 A 
ATOM     16  C   LIG    1      -33.376  75.178  27.902  0.00  0.00    +0.036 A 
BRANCH  12  17
ATOM     17  C   LIG    1      -36.813  76.404  26.461  0.00  0.00    -0.016 A 
ATOM     18  C   LIG    1      -37.565  77.447  27.062  0.00  0.00    +0.008 A 
ATOM     19  C   LIG    1      -38.625  78.112  26.422  0.00  0.00    +0.001 A 
ATOM     20  C   LIG    1      -38.955  77.800  25.116  0.00  0.00    +0.000 A 
ATOM     21  C   LIG    1      -38.267  76.780  24.487  0.00  0.00    +0.001 A 
ATOM     22  C   LIG    1      -37.261  76.070  25.168  0.00  0.00    +0.008 A 
ENDBRANCH  12  17
BRANCH  15  23
ATOM     23  C   LIG    1      -32.732  73.161  29.307  0.00  0.00    +0.417 C 
ATOM     24  F   LIG    1      -31.456  73.580  29.097  0.00  0.00    -0.166 F 
ATOM     25  F   LIG    1      -32.778  71.867  28.884  0.00  0.00    -0.166 F 
ATOM     26  F   LIG    1      -32.899  73.114  30.657  0.00  0.00    -0.166 F 
ENDBRANCH  15  23
ENDBRANCH   9  11
ENDBRANCH   8   9
BRANCH   8  27
ATOM     27  O   LIG    1      -32.710  78.726  28.345  0.00  0.00    -0.481 OA
ATOM     28  H   LIG    1      -31.956  78.879  27.774  0.00  0.00    +0.295 HD
ENDBRANCH   8  27
ENDBRANCH   4   7
BRANCH   1  29
ATOM     29  O   LIG    1      -35.175  83.893  30.844  0.00  0.00    -0.424 OA
BRANCH  29  33
ATOM     30  C   LIG    1      -31.871  85.885  32.533  0.00  0.00    -0.014 A 
ATOM     31  C   LIG    1      -33.055  85.638  33.249  0.00  0.00    +0.012 A 
ATOM     32  C   LIG    1      -34.135  84.956  32.663  0.00  0.00    +0.047 A 
ATOM     33  C   LIG    1      -34.070  84.536  31.337  0.00  0.00    +0.132 A 
ATOM     34  C   LIG    1      -32.944  84.850  30.596  0.00  0.00    +0.047 A 
ATOM     35  C   LIG    1      -31.850  85.458  31.198  0.00  0.00    +0.012 A 
BRANCH  30  37
ATOM     36  C   LIG    1      -29.715  86.017  33.932  0.00  0.00    +0.124 A 
ATOM     37  C   LIG    1      -30.689  86.593  33.091  0.00  0.00    +0.024 A 
ATOM     38  C   LIG    1      -30.475  87.947  32.751  0.00  0.00    +0.051 A 
ATOM     39  C   LIG    1      -29.364  88.630  33.205  0.00  0.00    +0.142 A 
ATOM     40  F   LIG    1      -29.155  89.900  32.840  0.00  0.00    -0.204 F 
ATOM     41  C   LIG    1      -28.486  87.974  34.033  0.00  0.00    +0.151 A 
ATOM     42  N   LIG    1      -28.642  86.687  34.411  0.00  0.00    -0.237 NA
BRANCH  36  43
ATOM     43  N   LIG    1      -29.748  84.684  34.336  0.00  0.00    -0.343 N 
ATOM     44  H   LIG    1      -28.844  84.245  34.193  0.00  0.00    +0.144 HD
ATOM     45  H   LIG    1      -30.003  84.695  35.322  0.00  0.00    +0.144 HD
ENDBRANCH  36  43
ENDBRANCH  30  37
ENDBRANCH  29  33
ENDBRANCH   1  29
TORSDOF 10
ENDMDL
MODEL 7
REMARK VINA RESULT:      -6.6     11.673     14.780
REMARK  Name = pdb/CHEMBL3938236.pdb
REMARK                            x       y       z     vdW  Elec       q    Type
REMARK                         _______ _______ _______ _____ _____    ______ ____
ROOT
ATOM      1  C   LIG    1      -39.751  81.599  24.881  0.00  0.00    +0.323 A 
ATOM      2  N   LIG    1      -39.511  81.839  26.184  0.00  0.00    -0.201 NA
ATOM      3  C   LIG    1      -38.627  82.821  26.488  0.00  0.00    +0.145 A 
ATOM      4  C   LIG    1      -37.974  83.596  25.556  0.00  0.00    +0.105 A 
ATOM      5  C   LIG    1      -38.319  83.244  24.254  0.00  0.00    +0.145 A 
ATOM      6  N   LIG    1      -39.187  82.276  23.882  0.00  0.00    -0.201 NA
ENDROOT
BRANCH   4   7
ATOM      7  N   LIG    1      -37.129  84.634  25.990  0.00  0.00    -0.196 NA
ATOM      8  C   LIG    1      -35.866  84.466  26.231  0.00  0.00    +0.285 C 
BRANCH   8   9
ATOM      9  N   LIG    1      -35.007  85.475  26.526  0.00  0.00    -0.269 N 
ATOM     10  H   LIG    1      -34.531  85.784  25.705  0.00  0.00    +0.157 HD
BRANCH   9  11
ATOM     11  C   LIG    1      -34.787  86.192  27.729  0.00  0.00    +0.043 A 
ATOM     12  C   LIG    1      -35.460  87.412  28.051  0.00  0.00    +0.003 A 
ATOM     13  C   LIG    1      -34.846  88.167  29.093  0.00  0.00    +0.011 A 
ATOM     14  C   LIG    1      -33.718  87.756  29.817  0.00  0.00    +0.013 A 
ATOM     15  C   LIG    1      -33.154  86.516  29.581  0.00  0.00    +0.057 A 
ATOM     16  C   LIG    1      -33.714  85.745  28.561  0.00  0.00    +0.036 A 
BRANCH  12  17
ATOM     17  C   LIG    1      -36.730  87.972  27.404  0.00  0.00    -0.016 A 
ATOM     18  C   LIG    1      -38.017  87.659  27.913  0.00  0.00    +0.008 A 
ATOM     19  C   LIG    1      -39.215  88.120  27.339  0.00  0.00    +0.001 A 
ATOM     20  C   LIG    1      -39.184  88.967  26.247  0.00  0.00    +0.000 A 
ATOM     21  C   LIG    1      -37.957  89.291  25.699  0.00  0.00    +0.001 A 
ATOM     22  C   LIG    1      -36.770  88.758  26.236  0.00  0.00    +0.008 A 
ENDBRANCH  12  17
BRANCH  15  23
ATOM     23  C   LIG    1      -31.970  86.041  30.384  0.00  0.00    +0.417 C 
ATOM     24  F   LIG    1      -31.982  86.517  31.658  0.00  0.00    -0.166 F 
ATOM     25  F   LIG    1      -30.784  86.439  29.845  0.00  0.00    -0.166 F 
ATOM     26  F   LIG    1      -31.892  84.685  30.487  0.00  0.00    -0.166 F 
ENDBRANCH  15  23
ENDBRANCH   9  11
ENDBRANCH   8   9
BRANCH   8  27
ATOM     27  O   LIG    1      -35.289  83.264  26.103  0.00  0.00    -0.481 OA
ATOM     28  H   LIG    1      -35.228  83.010  25.182  0.00  0.00    +0.295 HD
ENDBRANCH   8  27
ENDBRANCH   4   7
BRANCH   1  29
ATOM     29  O   LIG    1      -40.698  80.665  24.475  0.00  0.00    -0.424 OA
BRANCH  29  33
ATOM     30  C   LIG    1      -39.691  76.575  24.487  0.00  0.00    -0.014 A 
ATOM     31  C   LIG    1      -39.301  77.450  23.458  0.00  0.00    +0.012 A 
ATOM     32  C   LIG    1      -39.638  78.814  23.490  0.00  0.00    +0.047 A 
ATOM     33  C   LIG    1      -40.403  79.328  24.534  0.00  0.00    +0.132 A 
ATOM     34  C   LIG    1      -40.867  78.461  25.507  0.00  0.00    +0.047 A 
ATOM     35  C   LIG    1      -40.471  77.129  25.513  0.00  0.00    +0.012 A 
BRANCH  30  37
ATOM     36  C   LIG    1      -38.194  74.566  25.073  0.00  0.00    +0.124 A 
ATOM     37  C   LIG    1      -39.365  75.125  24.522  0.00  0.00    +0.024 A 
ATOM     38  C   LIG    1      -40.292  74.199  23.994  0.00  0.00    +0.051 A 
ATOM     39  C   LIG    1      -40.053  72.840  24.050  0.00  0.00    +0.142 A 
ATOM     40  F   LIG    1      -40.960  71.975  23.582  0.00  0.00    -0.204 F 
ATOM     41  C   LIG    1      -38.870  72.406  24.596  0.00  0.00    +0.151 A 
ATOM     42  N   LIG    1      -37.934  73.239  25.100  0.00  0.00    -0.237 NA
BRANCH  36  43
ATOM     43  N   LIG    1      -37.191  75.328  25.670  0.00  0.00    -0.343 N 
ATOM     44  H   LIG    1      -36.389  75.407  25.053  0.00  0.00    +0.144 HD
ATOM     45  H   LIG    1      -37.605  76.239  25.860  0.00  0.00    +0.144 HD
ENDBRANCH  36  43
ENDBRANCH  30  37
ENDBRANCH  29  33
ENDBRANCH   1  29
TORSDOF 10
ENDMDL
MODEL 8
REMARK VINA RESULT:      -6.6      3.782      5.606
REMARK  Name = pdb/CHEMBL3938236.pdb
REMARK                            x       y       z     vdW  Elec       q    Type
REMARK                         _______ _______ _______ _____ _____    ______ ____
ROOT
ATOM      1  C   LIG    1      -30.780  75.471  30.401  0.00  0.00    +0.323 A 
ATOM      2  N   LIG    1      -30.172  76.669  30.489  0.00  0.00    -0.201 NA
ATOM      3  C   LIG    1      -29.159  76.794  31.380  0.00  0.00    +0.145 A 
ATOM      4  C   LIG    1      -28.702  75.775  32.187  0.00  0.00    +0.105 A 
ATOM      5  C   LIG    1      -29.416  74.596  31.989  0.00  0.00    +0.145 A 
ATOM      6  N   LIG    1      -30.436  74.406  31.122  0.00  0.00    -0.201 NA
ENDROOT
BRANCH   4   7
ATOM      7  N   LIG    1      -27.596  76.001  33.027  0.00  0.00    -0.196 NA
ATOM      8  C   LIG    1      -26.371  75.990  32.603  0.00  0.00    +0.285 C 
BRANCH   8   9
ATOM      9  N   LIG    1      -25.299  76.332  33.364  0.00  0.00    -0.269 N 
ATOM     10  H   LIG    1      -24.815  75.517  33.677  0.00  0.00    +0.157 HD
BRANCH   9  11
ATOM     11  C   LIG    1      -24.731  77.596  33.663  0.00  0.00    +0.043 A 
ATOM     12  C   LIG    1      -23.493  78.051  33.110  0.00  0.00    +0.003 A 
ATOM     13  C   LIG    1      -22.907  79.152  33.803  0.00  0.00    +0.011 A 
ATOM     14  C   LIG    1      -23.491  79.808  34.895  0.00  0.00    +0.013 A 
ATOM     15  C   LIG    1      -24.748  79.439  35.337  0.00  0.00    +0.057 A 
ATOM     16  C   LIG    1      -25.356  78.358  34.698  0.00  0.00    +0.036 A 
BRANCH  12  17
ATOM     17  C   LIG    1      -22.757  77.489  31.891  0.00  0.00    -0.016 A 
ATOM     18  C   LIG    1      -21.460  76.926  32.007  0.00  0.00    +0.008 A 
ATOM     19  C   LIG    1      -20.726  76.427  30.917  0.00  0.00    +0.001 A 
ATOM     20  C   LIG    1      -21.280  76.417  29.651  0.00  0.00    +0.000 A 
ATOM     21  C   LIG    1      -22.536  76.969  29.476  0.00  0.00    +0.001 A 
ATOM     22  C   LIG    1      -23.224  77.537  30.563  0.00  0.00    +0.008 A 
ENDBRANCH  12  17
BRANCH  15  23
ATOM     23  C   LIG    1      -25.409  80.167  36.481  0.00  0.00    +0.417 C 
ATOM     24  F   LIG    1      -24.944  79.761  37.692  0.00  0.00    -0.166 F 
ATOM     25  F   LIG    1      -26.757  79.972  36.509  0.00  0.00    -0.166 F 
ATOM     26  F   LIG    1      -25.232  81.516  36.440  0.00  0.00    -0.166 F 
ENDBRANCH  15  23
ENDBRANCH   9  11
ENDBRANCH   8   9
BRANCH   8  27
ATOM     27  O   LIG    1      -26.081  75.730  31.322  0.00  0.00    -0.481 OA
ATOM     28  H   LIG    1      -25.228  76.095  31.083  0.00  0.00    +0.295 HD
ENDBRANCH   8  27
ENDBRANCH   4   7
BRANCH   1  29
ATOM     29  O   LIG    1      -31.777  75.227  29.463  0.00  0.00    -0.424 OA
BRANCH  29  33
ATOM     30  C   LIG    1      -34.500  78.250  28.372  0.00  0.00    -0.014 A 
ATOM     31  C   LIG    1      -33.517  77.761  27.495  0.00  0.00    +0.012 A 
ATOM     32  C   LIG    1      -32.632  76.740  27.882  0.00  0.00    +0.047 A 
ATOM     33  C   LIG    1      -32.688  76.208  29.168  0.00  0.00    +0.132 A 
ATOM     34  C   LIG    1      -33.593  76.740  30.068  0.00  0.00    +0.047 A 
ATOM     35  C   LIG    1      -34.514  77.697  29.661  0.00  0.00    +0.012 A 
BRANCH  30  37
ATOM     36  C   LIG    1      -36.829  79.120  27.709  0.00  0.00    +0.124 A 
ATOM     37  C   LIG    1      -35.471  79.322  28.028  0.00  0.00    +0.024 A 
ATOM     38  C   LIG    1      -35.042  80.667  28.038  0.00  0.00    +0.051 A 
ATOM     39  C   LIG    1      -35.921  81.699  27.774  0.00  0.00    +0.142 A 
ATOM     40  F   LIG    1      -35.508  82.970  27.828  0.00  0.00    -0.204 F 
ATOM     41  C   LIG    1      -37.221  81.385  27.459  0.00  0.00    +0.151 A 
ATOM     42  N   LIG    1      -37.690  80.120  27.413  0.00  0.00    -0.237 NA
BRANCH  36  43
ATOM     43  N   LIG    1      -37.430  77.863  27.689  0.00  0.00    -0.343 N 
ATOM     44  H   LIG    1      -37.844  77.651  28.590  0.00  0.00    +0.144 HD
ATOM     45  H   LIG    1      -38.135  77.899  26.955  0.00  0.00    +0.144 HD
ENDBRANCH  36  43
ENDBRANCH  30  37
ENDBRANCH  29  33
ENDBRANCH   1  29
TORSDOF 10
ENDMDL
MODEL 9
REMARK VINA RESULT:      -6.6     10.753     16.143
REMARK  Name = pdb/CHEMBL3938236.pdb
REMARK                            x       y       z     vdW  Elec       q    Type
REMARK                         _______ _______ _______ _____ _____    ______ ____
ROOT
ATOM      1  C   LIG    1      -36.475  80.006  29.811  0.00  0.00    +0.323 A 
ATOM      2  N   LIG    1      -35.484  79.104  29.686  0.00  0.00    -0.201 NA
ATOM      3  C   LIG    1      -35.554  78.238  28.645  0.00  0.00    +0.145 A 
ATOM      4  C   LIG    1      -36.560  78.232  27.704  0.00  0.00    +0.105 A 
ATOM      5  C   LIG    1      -37.510  79.217  27.953  0.00  0.00    +0.145 A 
ATOM      6  N   LIG    1      -37.503  80.107  28.971  0.00  0.00    -0.201 NA
ENDROOT
BRANCH   4   7
ATOM      7  N   LIG    1      -36.492  77.329  26.626  0.00  0.00    -0.196 NA
ATOM      8  C   LIG    1      -37.050  76.160  26.645  0.00  0.00    +0.285 C 
BRANCH   8   9
ATOM      9  N   LIG    1      -37.107  75.326  25.574  0.00  0.00    -0.269 N 
ATOM     10  H   LIG    1      -36.192  75.038  25.302  0.00  0.00    +0.157 HD
BRANCH   9  11
ATOM     11  C   LIG    1      -38.212  74.745  24.903  0.00  0.00    +0.043 A 
ATOM     12  C   LIG    1      -39.427  75.451  24.634  0.00  0.00    +0.003 A 
ATOM     13  C   LIG    1      -40.535  74.614  24.305  0.00  0.00    +0.011 A 
ATOM     14  C   LIG    1      -40.469  73.220  24.176  0.00  0.00    +0.013 A 
ATOM     15  C   LIG    1      -39.259  72.564  24.313  0.00  0.00    +0.057 A 
ATOM     16  C   LIG    1      -38.149  73.341  24.647  0.00  0.00    +0.036 A 
BRANCH  12  17
ATOM     17  C   LIG    1      -39.651  76.965  24.669  0.00  0.00    -0.016 A 
ATOM     18  C   LIG    1      -40.354  77.583  25.734  0.00  0.00    +0.008 A 
ATOM     19  C   LIG    1      -40.616  78.963  25.799  0.00  0.00    +0.001 A 
ATOM     20  C   LIG    1      -40.136  79.809  24.817  0.00  0.00    +0.000 A 
ATOM     21  C   LIG    1      -39.457  79.259  23.745  0.00  0.00    +0.001 A 
ATOM     22  C   LIG    1      -39.273  77.867  23.655  0.00  0.00    +0.008 A 
ENDBRANCH  12  17
BRANCH  15  23
ATOM     23  C   LIG    1      -39.165  71.070  24.130  0.00  0.00    +0.417 C 
ATOM     24  F   LIG    1      -39.976  70.617  23.137  0.00  0.00    -0.166 F 
ATOM     25  F   LIG    1      -39.526  70.387  25.252  0.00  0.00    -0.166 F 
ATOM     26  F   LIG    1      -37.911  70.639  23.821  0.00  0.00    -0.166 F 
ENDBRANCH  15  23
ENDBRANCH   9  11
ENDBRANCH   8   9
BRANCH   8  27
ATOM     27  O   LIG    1      -37.713  75.723  27.724  0.00  0.00    -0.481 OA
ATOM     28  H   LIG    1      -37.105  75.481  28.424  0.00  0.00    +0.295 HD
ENDBRANCH   8  27
ENDBRANCH   4   7
BRANCH   1  29
ATOM     29  O   LIG    1      -36.449  80.983  30.801  0.00  0.00    -0.424 OA
BRANCH  29  33
ATOM     30  C   LIG    1      -33.918  84.342  30.584  0.00  0.00    -0.014 A 
ATOM     31  C   LIG    1      -34.523  83.924  31.782  0.00  0.00    +0.012 A 
ATOM     32  C   LIG    1      -35.350  82.789  31.827  0.00  0.00    +0.047 A 
ATOM     33  C   LIG    1      -35.620  82.065  30.667  0.00  0.00    +0.132 A 
ATOM     34  C   LIG    1      -35.101  82.517  29.467  0.00  0.00    +0.047 A 
ATOM     35  C   LIG    1      -34.225  83.596  29.438  0.00  0.00    +0.012 A 
BRANCH  30  37
ATOM     36  C   LIG    1      -31.700  85.599  30.931  0.00  0.00    +0.124 A 
ATOM     37  C   LIG    1      -33.028  85.527  30.466  0.00  0.00    +0.024 A 
ATOM     38  C   LIG    1      -33.508  86.685  29.815  0.00  0.00    +0.051 A 
ATOM     39  C   LIG    1      -32.701  87.791  29.637  0.00  0.00    +0.142 A 
ATOM     40  F   LIG    1      -33.157  88.864  28.983  0.00  0.00    -0.204 F 
ATOM     41  C   LIG    1      -31.425  87.757  30.146  0.00  0.00    +0.151 A 
ATOM     42  N   LIG    1      -30.911  86.689  30.795  0.00  0.00    -0.237 NA
BRANCH  36  43
ATOM     43  N   LIG    1      -31.053  84.538  31.562  0.00  0.00    -0.343 N 
ATOM     44  H   LIG    1      -31.184  84.587  32.567  0.00  0.00    +0.144 HD
ATOM     45  H   LIG    1      -31.461  83.689  31.176  0.00  0.00    +0.144 HD
ENDBRANCH  36  43
ENDBRANCH  30  37
ENDBRANCH  29  33
ENDBRANCH   1  29
TORSDOF 10
ENDMDL
