MODEL 1
REMARK VINA RESULT:      -6.9      0.000      0.000
REMARK  Name = pdb/CHEMBL3929612.pdb
REMARK                            x       y       z     vdW  Elec       q    Type
REMARK                         _______ _______ _______ _____ _____    ______ ____
ROOT
ATOM      1  N   LIG    1      -25.327  77.969  33.205  0.00  0.00    -0.198 NA
ATOM      2  C   LIG    1      -24.279  77.601  33.871  0.00  0.00    +0.285 C 
ENDROOT
BRANCH   1   6
ATOM      3  C   LIG    1      -28.686  75.672  32.380  0.00  0.00    +0.221 A 
ATOM      4  N   LIG    1      -27.696  75.744  31.462  0.00  0.00    -0.219 NA
ATOM      5  C   LIG    1      -26.611  76.485  31.797  0.00  0.00    +0.142 A 
ATOM      6  C   LIG    1      -26.478  77.209  32.983  0.00  0.00    +0.087 A 
ATOM      7  C   LIG    1      -27.505  77.050  33.913  0.00  0.00    +0.034 A 
ATOM      8  C   LIG    1      -28.647  76.322  33.597  0.00  0.00    +0.070 A 
BRANCH   3   9
ATOM      9  O   LIG    1      -29.806  74.887  32.141  0.00  0.00    -0.438 OA
BRANCH   9  13
ATOM     10  C   LIG    1      -32.886  76.526  29.820  0.00  0.00    -0.010 A 
ATOM     11  C   LIG    1      -33.025  76.326  31.202  0.00  0.00    +0.012 A 
ATOM     12  C   LIG    1      -31.983  75.769  31.953  0.00  0.00    +0.047 A 
ATOM     13  C   LIG    1      -30.790  75.404  31.330  0.00  0.00    +0.130 A 
ATOM     14  C   LIG    1      -30.670  75.534  29.950  0.00  0.00    +0.047 A 
ATOM     15  C   LIG    1      -31.690  76.123  29.211  0.00  0.00    +0.012 A 
BRANCH  10  18
ATOM     16  C   LIG    1      -35.900  77.472  27.423  0.00  0.00    +0.156 A 
ATOM     17  S   LIG    1      -35.107  76.075  28.181  0.00  0.00    -0.053 S 
ATOM     18  C   LIG    1      -33.959  77.113  29.014  0.00  0.00    +0.038 A 
ATOM     19  C   LIG    1      -34.226  78.405  28.754  0.00  0.00    +0.100 A 
ATOM     20  N   LIG    1      -35.301  78.604  27.925  0.00  0.00    -0.342 N 
ATOM     21  H   LIG    1      -35.531  79.510  27.548  0.00  0.00    +0.167 HD
BRANCH  16  22
ATOM     22  N   LIG    1      -36.831  77.443  26.552  0.00  0.00    -0.229 NA
BRANCH  22  24
ATOM     23  C   LIG    1      -37.662  75.564  25.260  0.00  0.00    +0.026 C 
ATOM     24  C   LIG    1      -37.788  76.335  26.561  0.00  0.00    +0.126 C 
ENDBRANCH  22  24
ENDBRANCH  16  22
ENDBRANCH  10  18
ENDBRANCH   9  13
ENDBRANCH   3   9
ENDBRANCH   1   6
BRANCH   2  25
ATOM     25  N   LIG    1      -23.154  78.336  34.079  0.00  0.00    -0.267 N 
ATOM     26  H   LIG    1      -23.343  79.265  34.440  0.00  0.00    +0.157 HD
BRANCH  25  27
ATOM     27  C   LIG    1      -22.008  78.292  33.260  0.00  0.00    +0.061 A 
ATOM     28  C   LIG    1      -20.830  79.009  33.556  0.00  0.00    +0.092 A 
ATOM     29  N   LIG    1      -19.762  78.989  32.700  0.00  0.00    -0.253 NA
ATOM     30  C   LIG    1      -19.830  78.249  31.572  0.00  0.00    +0.124 A 
ATOM     31  C   LIG    1      -20.935  77.513  31.206  0.00  0.00    +0.075 A 
ATOM     32  C   LIG    1      -22.036  77.560  32.058  0.00  0.00    +0.039 A 
BRANCH  28  33
ATOM     33  C   LIG    1      -20.578  79.822  34.783  0.00  0.00    +0.002 A 
ATOM     34  C   LIG    1      -19.587  79.417  35.703  0.00  0.00    +0.013 A 
ATOM     35  C   LIG    1      -19.333  80.090  36.916  0.00  0.00    -0.047 A 
ATOM     36  C   LIG    1      -18.354  79.464  37.874  0.00  0.00    +0.044 C 
ATOM     37  C   LIG    1      -20.074  81.240  37.225  0.00  0.00    -0.047 A 
ATOM     38  C   LIG    1      -19.876  82.003  38.506  0.00  0.00    +0.044 C 
ATOM     39  C   LIG    1      -21.076  81.650  36.334  0.00  0.00    +0.004 A 
ATOM     40  C   LIG    1      -21.329  80.949  35.145  0.00  0.00    +0.010 A 
ENDBRANCH  28  33
BRANCH  31  41
ATOM     41  C   LIG    1      -20.922  76.705  29.950  0.00  0.00    +0.419 C 
ATOM     42  F   LIG    1      -22.032  76.904  29.190  0.00  0.00    -0.166 F 
ATOM     43  F   LIG    1      -20.867  75.366  30.191  0.00  0.00    -0.166 F 
ATOM     44  F   LIG    1      -19.862  76.978  29.138  0.00  0.00    -0.166 F 
ENDBRANCH  31  41
ENDBRANCH  25  27
ENDBRANCH   2  25
BRANCH   2  45
ATOM     45  O   LIG    1      -24.134  76.414  34.486  0.00  0.00    -0.481 OA
ATOM     46  H   LIG    1      -23.932  76.518  35.425  0.00  0.00    +0.295 HD
ENDBRANCH   2  45
TORSDOF 11
ENDMDL
MODEL 2
REMARK VINA RESULT:      -6.8      2.990      3.604
REMARK  Name = pdb/CHEMBL3929612.pdb
REMARK                            x       y       z     vdW  Elec       q    Type
REMARK                         _______ _______ _______ _____ _____    ______ ____
ROOT
ATOM      1  N   LIG    1      -24.627  76.845  33.645  0.00  0.00    -0.198 NA
ATOM      2  C   LIG    1      -23.912  77.888  33.926  0.00  0.00    +0.285 C 
ENDROOT
BRANCH   1   6
ATOM      3  C   LIG    1      -28.520  76.825  32.203  0.00  0.00    +0.221 A 
ATOM      4  N   LIG    1      -27.494  76.733  31.329  0.00  0.00    -0.219 NA
ATOM      5  C   LIG    1      -26.246  76.715  31.857  0.00  0.00    +0.142 A 
ATOM      6  C   LIG    1      -25.957  76.840  33.218  0.00  0.00    +0.087 A 
ATOM      7  C   LIG    1      -27.057  76.874  34.074  0.00  0.00    +0.034 A 
ATOM      8  C   LIG    1      -28.352  76.923  33.570  0.00  0.00    +0.070 A 
BRANCH   3   9
ATOM      9  O   LIG    1      -29.833  76.792  31.750  0.00  0.00    -0.438 OA
BRANCH   9  13
ATOM     10  C   LIG    1      -31.189  73.136  30.215  0.00  0.00    -0.010 A 
ATOM     11  C   LIG    1      -30.392  73.206  31.368  0.00  0.00    +0.012 A 
ATOM     12  C   LIG    1      -29.945  74.441  31.856  0.00  0.00    +0.047 A 
ATOM     13  C   LIG    1      -30.290  75.619  31.195  0.00  0.00    +0.130 A 
ATOM     14  C   LIG    1      -31.021  75.553  30.012  0.00  0.00    +0.047 A 
ATOM     15  C   LIG    1      -31.497  74.331  29.551  0.00  0.00    +0.012 A 
BRANCH  10  18
ATOM     16  C   LIG    1      -33.111  69.992  28.752  0.00  0.00    +0.156 A 
ATOM     17  S   LIG    1      -33.283  71.743  28.992  0.00  0.00    -0.053 S 
ATOM     18  C   LIG    1      -31.674  71.858  29.691  0.00  0.00    +0.038 A 
ATOM     19  C   LIG    1      -31.073  70.656  29.673  0.00  0.00    +0.100 A 
ATOM     20  N   LIG    1      -31.834  69.652  29.128  0.00  0.00    -0.342 N 
ATOM     21  H   LIG    1      -31.557  68.683  29.169  0.00  0.00    +0.167 HD
BRANCH  16  22
ATOM     22  N   LIG    1      -34.008  69.186  28.336  0.00  0.00    -0.229 NA
BRANCH  22  24
ATOM     23  C   LIG    1      -34.160  69.058  25.917  0.00  0.00    +0.026 C 
ATOM     24  C   LIG    1      -34.830  69.558  27.184  0.00  0.00    +0.126 C 
ENDBRANCH  22  24
ENDBRANCH  16  22
ENDBRANCH  10  18
ENDBRANCH   9  13
ENDBRANCH   3   9
ENDBRANCH   1   6
BRANCH   2  25
ATOM     25  N   LIG    1      -22.622  77.893  34.351  0.00  0.00    -0.267 N 
ATOM     26  H   LIG    1      -22.493  78.373  35.235  0.00  0.00    +0.157 HD
BRANCH  25  27
ATOM     27  C   LIG    1      -21.501  78.000  33.504  0.00  0.00    +0.061 A 
ATOM     28  C   LIG    1      -20.449  78.910  33.740  0.00  0.00    +0.092 A 
ATOM     29  N   LIG    1      -19.410  79.026  32.856  0.00  0.00    -0.253 NA
ATOM     30  C   LIG    1      -19.380  78.237  31.759  0.00  0.00    +0.124 A 
ATOM     31  C   LIG    1      -20.359  77.318  31.452  0.00  0.00    +0.075 A 
ATOM     32  C   LIG    1      -21.435  77.223  32.332  0.00  0.00    +0.039 A 
BRANCH  28  33
ATOM     33  C   LIG    1      -20.307  79.803  34.926  0.00  0.00    +0.002 A 
ATOM     34  C   LIG    1      -19.388  79.476  35.947  0.00  0.00    +0.013 A 
ATOM     35  C   LIG    1      -19.241  80.229  37.130  0.00  0.00    -0.047 A 
ATOM     36  C   LIG    1      -18.335  79.683  38.202  0.00  0.00    +0.044 C 
ATOM     37  C   LIG    1      -20.019  81.383  37.303  0.00  0.00    -0.047 A 
ATOM     38  C   LIG    1      -19.935  82.231  38.543  0.00  0.00    +0.044 C 
ATOM     39  C   LIG    1      -20.951  81.719  36.311  0.00  0.00    +0.004 A 
ATOM     40  C   LIG    1      -21.098  80.938  35.153  0.00  0.00    +0.010 A 
ENDBRANCH  28  33
BRANCH  31  41
ATOM     41  C   LIG    1      -20.241  76.471  30.228  0.00  0.00    +0.419 C 
ATOM     42  F   LIG    1      -19.237  75.557  30.321  0.00  0.00    -0.166 F 
ATOM     43  F   LIG    1      -19.979  77.202  29.110  0.00  0.00    -0.166 F 
ATOM     44  F   LIG    1      -21.368  75.757  29.949  0.00  0.00    -0.166 F 
ENDBRANCH  31  41
ENDBRANCH  25  27
ENDBRANCH   2  25
BRANCH   2  45
ATOM     45  O   LIG    1      -24.336  79.160  33.828  0.00  0.00    -0.481 OA
ATOM     46  H   LIG    1      -24.697  79.354  32.954  0.00  0.00    +0.295 HD
ENDBRANCH   2  45
TORSDOF 11
ENDMDL
MODEL 3
REMARK VINA RESULT:      -6.8     15.013     19.969
REMARK  Name = pdb/CHEMBL3929612.pdb
REMARK                            x       y       z     vdW  Elec       q    Type
REMARK                         _______ _______ _______ _____ _____    ______ ____
ROOT
ATOM      1  N   LIG    1      -38.622  69.457  23.051  0.00  0.00    -0.198 NA
ATOM      2  C   LIG    1      -38.112  70.349  23.841  0.00  0.00    +0.285 C 
ENDROOT
BRANCH   1   6
ATOM      3  C   LIG    1      -36.521  67.112  20.345  0.00  0.00    +0.221 A 
ATOM      4  N   LIG    1      -36.539  66.757  21.649  0.00  0.00    -0.219 NA
ATOM      5  C   LIG    1      -37.264  67.543  22.482  0.00  0.00    +0.142 A 
ATOM      6  C   LIG    1      -37.935  68.705  22.096  0.00  0.00    +0.087 A 
ATOM      7  C   LIG    1      -37.928  68.987  20.730  0.00  0.00    +0.034 A 
ATOM      8  C   LIG    1      -37.173  68.223  19.847  0.00  0.00    +0.070 A 
BRANCH   3   9
ATOM      9  O   LIG    1      -35.850  66.328  19.415  0.00  0.00    -0.438 OA
BRANCH   9  13
ATOM     10  C   LIG    1      -31.908  67.379  18.461  0.00  0.00    -0.010 A 
ATOM     11  C   LIG    1      -32.974  67.626  17.583  0.00  0.00    +0.012 A 
ATOM     12  C   LIG    1      -34.281  67.258  17.923  0.00  0.00    +0.047 A 
ATOM     13  C   LIG    1      -34.537  66.637  19.144  0.00  0.00    +0.130 A 
ATOM     14  C   LIG    1      -33.477  66.325  19.991  0.00  0.00    +0.047 A 
ATOM     15  C   LIG    1      -32.185  66.726  19.670  0.00  0.00    +0.012 A 
BRANCH  10  18
ATOM     16  C   LIG    1      -28.402  69.058  17.679  0.00  0.00    +0.156 A 
ATOM     17  S   LIG    1      -29.987  69.412  18.397  0.00  0.00    -0.053 S 
ATOM     18  C   LIG    1      -30.533  67.762  18.131  0.00  0.00    +0.038 A 
ATOM     19  C   LIG    1      -29.545  67.026  17.593  0.00  0.00    +0.100 A 
ATOM     20  N   LIG    1      -28.377  67.716  17.385  0.00  0.00    -0.342 N 
ATOM     21  H   LIG    1      -27.603  67.322  16.873  0.00  0.00    +0.167 HD
BRANCH  16  22
ATOM     22  N   LIG    1      -27.464  69.892  17.449  0.00  0.00    -0.229 NA
BRANCH  22  24
ATOM     23  C   LIG    1      -25.229  70.815  17.654  0.00  0.00    +0.026 C 
ATOM     24  C   LIG    1      -26.134  69.650  18.009  0.00  0.00    +0.126 C 
ENDBRANCH  22  24
ENDBRANCH  16  22
ENDBRANCH  10  18
ENDBRANCH   9  13
ENDBRANCH   3   9
ENDBRANCH   1   6
BRANCH   2  25
ATOM     25  N   LIG    1      -38.782  71.089  24.764  0.00  0.00    -0.267 N 
ATOM     26  H   LIG    1      -39.441  70.546  25.311  0.00  0.00    +0.157 HD
BRANCH  25  27
ATOM     27  C   LIG    1      -39.201  72.420  24.569  0.00  0.00    +0.061 A 
ATOM     28  C   LIG    1      -40.416  72.754  23.936  0.00  0.00    +0.092 A 
ATOM     29  N   LIG    1      -40.753  74.061  23.709  0.00  0.00    -0.253 NA
ATOM     30  C   LIG    1      -39.923  75.043  24.125  0.00  0.00    +0.124 A 
ATOM     31  C   LIG    1      -38.721  74.811  24.757  0.00  0.00    +0.075 A 
ATOM     32  C   LIG    1      -38.358  73.480  24.956  0.00  0.00    +0.039 A 
BRANCH  28  33
ATOM     33  C   LIG    1      -41.461  71.795  23.474  0.00  0.00    +0.002 A 
ATOM     34  C   LIG    1      -41.692  71.618  22.092  0.00  0.00    +0.013 A 
ATOM     35  C   LIG    1      -42.704  70.783  21.575  0.00  0.00    -0.047 A 
ATOM     36  C   LIG    1      -42.941  70.805  20.088  0.00  0.00    +0.044 C 
ATOM     37  C   LIG    1      -43.510  70.060  22.465  0.00  0.00    -0.047 A 
ATOM     38  C   LIG    1      -44.622  69.162  21.995  0.00  0.00    +0.044 C 
ATOM     39  C   LIG    1      -43.311  70.232  23.842  0.00  0.00    +0.004 A 
ATOM     40  C   LIG    1      -42.315  71.090  24.334  0.00  0.00    +0.010 A 
ENDBRANCH  28  33
BRANCH  31  41
ATOM     41  C   LIG    1      -37.869  75.954  25.202  0.00  0.00    +0.419 C 
ATOM     42  F   LIG    1      -37.105  76.458  24.196  0.00  0.00    -0.166 F 
ATOM     43  F   LIG    1      -37.002  75.604  26.192  0.00  0.00    -0.166 F 
ATOM     44  F   LIG    1      -38.583  77.007  25.691  0.00  0.00    -0.166 F 
ENDBRANCH  31  41
ENDBRANCH  25  27
ENDBRANCH   2  25
BRANCH   2  45
ATOM     45  O   LIG    1      -36.811  70.685  23.885  0.00  0.00    -0.481 OA
ATOM     46  H   LIG    1      -36.555  71.017  24.755  0.00  0.00    +0.295 HD
ENDBRANCH   2  45
TORSDOF 11
ENDMDL
MODEL 4
REMARK VINA RESULT:      -6.7      6.611      7.571
REMARK  Name = pdb/CHEMBL3929612.pdb
REMARK                            x       y       z     vdW  Elec       q    Type
REMARK                         _______ _______ _______ _____ _____    ______ ____
ROOT
ATOM      1  N   LIG    1      -23.845  79.464  36.106  0.00  0.00    -0.198 NA
ATOM      2  C   LIG    1      -23.824  78.847  34.968  0.00  0.00    +0.285 C 
ENDROOT
BRANCH   1   6
ATOM      3  C   LIG    1      -26.564  82.400  37.213  0.00  0.00    +0.221 A 
ATOM      4  N   LIG    1      -26.981  81.118  37.119  0.00  0.00    -0.219 NA
ATOM      5  C   LIG    1      -26.045  80.198  36.782  0.00  0.00    +0.142 A 
ATOM      6  C   LIG    1      -24.714  80.492  36.477  0.00  0.00    +0.087 A 
ATOM      7  C   LIG    1      -24.330  81.823  36.646  0.00  0.00    +0.034 A 
ATOM      8  C   LIG    1      -25.267  82.801  36.963  0.00  0.00    +0.070 A 
BRANCH   3   9
ATOM      9  O   LIG    1      -27.446  83.397  37.609  0.00  0.00    -0.438 OA
BRANCH   9  13
ATOM     10  C   LIG    1      -29.565  85.491  34.662  0.00  0.00    -0.010 A 
ATOM     11  C   LIG    1      -30.087  84.342  35.275  0.00  0.00    +0.012 A 
ATOM     12  C   LIG    1      -29.355  83.656  36.252  0.00  0.00    +0.047 A 
ATOM     13  C   LIG    1      -28.091  84.111  36.625  0.00  0.00    +0.130 A 
ATOM     14  C   LIG    1      -27.536  85.208  35.973  0.00  0.00    +0.047 A 
ATOM     15  C   LIG    1      -28.280  85.911  35.031  0.00  0.00    +0.012 A 
BRANCH  10  18
ATOM     16  C   LIG    1      -31.134  87.988  32.012  0.00  0.00    +0.156 A 
ATOM     17  S   LIG    1      -29.675  87.731  32.991  0.00  0.00    -0.053 S 
ATOM     18  C   LIG    1      -30.314  86.229  33.643  0.00  0.00    +0.038 A 
ATOM     19  C   LIG    1      -31.512  85.957  33.096  0.00  0.00    +0.100 A 
ATOM     20  N   LIG    1      -31.939  86.888  32.182  0.00  0.00    -0.342 N 
ATOM     21  H   LIG    1      -32.870  86.874  31.794  0.00  0.00    +0.167 HD
BRANCH  16  22
ATOM     22  N   LIG    1      -31.408  89.013  31.303  0.00  0.00    -0.229 NA
BRANCH  22  24
ATOM     23  C   LIG    1      -32.612  90.012  29.448  0.00  0.00    +0.026 C 
ATOM     24  C   LIG    1      -31.759  88.839  29.894  0.00  0.00    +0.126 C 
ENDBRANCH  22  24
ENDBRANCH  16  22
ENDBRANCH  10  18
ENDBRANCH   9  13
ENDBRANCH   3   9
ENDBRANCH   1   6
BRANCH   2  25
ATOM     25  N   LIG    1      -22.971  77.853  34.603  0.00  0.00    -0.267 N 
ATOM     26  H   LIG    1      -22.689  77.262  35.377  0.00  0.00    +0.157 HD
BRANCH  25  27
ATOM     27  C   LIG    1      -21.969  77.981  33.621  0.00  0.00    +0.061 A 
ATOM     28  C   LIG    1      -20.772  78.695  33.839  0.00  0.00    +0.092 A 
ATOM     29  N   LIG    1      -19.854  78.848  32.835  0.00  0.00    -0.253 NA
ATOM     30  C   LIG    1      -20.086  78.283  31.630  0.00  0.00    +0.124 A 
ATOM     31  C   LIG    1      -21.222  77.564  31.330  0.00  0.00    +0.075 A 
ATOM     32  C   LIG    1      -22.174  77.436  32.339  0.00  0.00    +0.039 A 
BRANCH  28  33
ATOM     33  C   LIG    1      -20.344  79.324  35.122  0.00  0.00    +0.002 A 
ATOM     34  C   LIG    1      -20.784  80.625  35.448  0.00  0.00    +0.013 A 
ATOM     35  C   LIG    1      -20.372  81.316  36.606  0.00  0.00    -0.047 A 
ATOM     36  C   LIG    1      -20.796  82.754  36.755  0.00  0.00    +0.044 C 
ATOM     37  C   LIG    1      -19.505  80.680  37.507  0.00  0.00    -0.047 A 
ATOM     38  C   LIG    1      -19.005  81.355  38.755  0.00  0.00    +0.044 C 
ATOM     39  C   LIG    1      -19.041  79.394  37.195  0.00  0.00    +0.004 A 
ATOM     40  C   LIG    1      -19.444  78.737  36.022  0.00  0.00    +0.010 A 
ENDBRANCH  28  33
BRANCH  31  41
ATOM     41  C   LIG    1      -21.393  76.954  29.977  0.00  0.00    +0.419 C 
ATOM     42  F   LIG    1      -21.552  75.604  30.030  0.00  0.00    -0.166 F 
ATOM     43  F   LIG    1      -20.322  77.174  29.166  0.00  0.00    -0.166 F 
ATOM     44  F   LIG    1      -22.476  77.430  29.299  0.00  0.00    -0.166 F 
ENDBRANCH  31  41
ENDBRANCH  25  27
ENDBRANCH   2  25
BRANCH   2  45
ATOM     45  O   LIG    1      -24.665  79.086  33.947  0.00  0.00    -0.481 OA
ATOM     46  H   LIG    1      -24.406  79.868  33.443  0.00  0.00    +0.295 HD
ENDBRANCH   2  45
TORSDOF 11
ENDMDL
MODEL 5
REMARK VINA RESULT:      -6.7     10.360     17.662
REMARK  Name = pdb/CHEMBL3929612.pdb
REMARK                            x       y       z     vdW  Elec       q    Type
REMARK                         _______ _______ _______ _____ _____    ______ ____
ROOT
ATOM      1  N   LIG    1      -35.929  67.853  24.171  0.00  0.00    -0.198 NA
ATOM      2  C   LIG    1      -35.512  66.670  23.848  0.00  0.00    +0.285 C 
ENDROOT
BRANCH   1   6
ATOM      3  C   LIG    1      -35.036  69.984  27.621  0.00  0.00    +0.221 A 
ATOM      4  N   LIG    1      -36.276  69.467  27.468  0.00  0.00    -0.219 NA
ATOM      5  C   LIG    1      -36.502  68.757  26.336  0.00  0.00    +0.142 A 
ATOM      6  C   LIG    1      -35.571  68.576  25.312  0.00  0.00    +0.087 A 
ATOM      7  C   LIG    1      -34.294  69.083  25.552  0.00  0.00    +0.034 A 
ATOM      8  C   LIG    1      -34.030  69.842  26.687  0.00  0.00    +0.070 A 
BRANCH   3   9
ATOM      9  O   LIG    1      -34.703  70.676  28.778  0.00  0.00    -0.438 OA
BRANCH   9  13
ATOM     10  C   LIG    1      -33.740  74.742  28.458  0.00  0.00    -0.010 A 
ATOM     11  C   LIG    1      -32.829  73.801  28.961  0.00  0.00    +0.012 A 
ATOM     12  C   LIG    1      -33.179  72.449  29.065  0.00  0.00    +0.047 A 
ATOM     13  C   LIG    1      -34.445  72.023  28.668  0.00  0.00    +0.130 A 
ATOM     14  C   LIG    1      -35.379  72.959  28.234  0.00  0.00    +0.047 A 
ATOM     15  C   LIG    1      -35.018  74.295  28.094  0.00  0.00    +0.012 A 
BRANCH  10  18
ATOM     16  C   LIG    1      -33.378  78.624  27.742  0.00  0.00    +0.156 A 
ATOM     17  S   LIG    1      -34.545  77.290  27.633  0.00  0.00    -0.053 S 
ATOM     18  C   LIG    1      -33.395  76.159  28.333  0.00  0.00    +0.038 A 
ATOM     19  C   LIG    1      -32.256  76.795  28.657  0.00  0.00    +0.100 A 
ATOM     20  N   LIG    1      -32.259  78.138  28.375  0.00  0.00    -0.342 N 
ATOM     21  H   LIG    1      -31.430  78.706  28.448  0.00  0.00    +0.167 HD
BRANCH  16  22
ATOM     22  N   LIG    1      -33.528  79.809  27.293  0.00  0.00    -0.229 NA
BRANCH  22  24
ATOM     23  C   LIG    1      -34.596  80.840  29.213  0.00  0.00    +0.026 C 
ATOM     24  C   LIG    1      -34.685  80.597  27.718  0.00  0.00    +0.126 C 
ENDBRANCH  22  24
ENDBRANCH  16  22
ENDBRANCH  10  18
ENDBRANCH   9  13
ENDBRANCH   3   9
ENDBRANCH   1   6
BRANCH   2  25
ATOM     25  N   LIG    1      -35.867  65.962  22.743  0.00  0.00    -0.267 N 
ATOM     26  H   LIG    1      -35.931  64.964  22.910  0.00  0.00    +0.157 HD
BRANCH  25  27
ATOM     27  C   LIG    1      -35.458  66.270  21.430  0.00  0.00    +0.061 A 
ATOM     28  C   LIG    1      -36.311  66.880  20.487  0.00  0.00    +0.092 A 
ATOM     29  N   LIG    1      -35.894  67.103  19.203  0.00  0.00    -0.253 NA
ATOM     30  C   LIG    1      -34.636  66.760  18.845  0.00  0.00    +0.124 A 
ATOM     31  C   LIG    1      -33.733  66.167  19.700  0.00  0.00    +0.075 A 
ATOM     32  C   LIG    1      -34.168  65.907  20.998  0.00  0.00    +0.039 A 
BRANCH  28  33
ATOM     33  C   LIG    1      -37.699  67.367  20.741  0.00  0.00    +0.002 A 
ATOM     34  C   LIG    1      -38.795  66.497  20.555  0.00  0.00    +0.013 A 
ATOM     35  C   LIG    1      -40.138  66.896  20.708  0.00  0.00    -0.047 A 
ATOM     36  C   LIG    1      -41.212  65.910  20.331  0.00  0.00    +0.044 C 
ATOM     37  C   LIG    1      -40.416  68.216  21.095  0.00  0.00    -0.047 A 
ATOM     38  C   LIG    1      -41.822  68.726  21.262  0.00  0.00    +0.044 C 
ATOM     39  C   LIG    1      -39.345  69.103  21.267  0.00  0.00    +0.004 A 
ATOM     40  C   LIG    1      -38.016  68.689  21.084  0.00  0.00    +0.010 A 
ENDBRANCH  28  33
BRANCH  31  41
ATOM     41  C   LIG    1      -32.355  65.837  19.230  0.00  0.00    +0.419 C 
ATOM     42  F   LIG    1      -32.080  66.363  18.006  0.00  0.00    -0.166 F 
ATOM     43  F   LIG    1      -32.151  64.495  19.115  0.00  0.00    -0.166 F 
ATOM     44  F   LIG    1      -31.373  66.291  20.059  0.00  0.00    -0.166 F 
ENDBRANCH  31  41
ENDBRANCH  25  27
ENDBRANCH   2  25
BRANCH   2  45
ATOM     45  O   LIG    1      -34.635  65.941  24.560  0.00  0.00    -0.481 OA
ATOM     46  H   LIG    1      -35.009  65.092  24.830  0.00  0.00    +0.295 HD
ENDBRANCH   2  45
TORSDOF 11
ENDMDL
MODEL 6
REMARK VINA RESULT:      -6.7      8.165     12.516
REMARK  Name = pdb/CHEMBL3929612.pdb
REMARK                            x       y       z     vdW  Elec       q    Type
REMARK                         _______ _______ _______ _____ _____    ______ ____
ROOT
ATOM      1  N   LIG    1      -29.211  84.634  36.205  0.00  0.00    -0.198 NA
ATOM      2  C   LIG    1      -29.736  84.558  35.023  0.00  0.00    +0.285 C 
ENDROOT
BRANCH   1   6
ATOM      3  C   LIG    1      -25.753  82.710  37.460  0.00  0.00    +0.221 A 
ATOM      4  N   LIG    1      -25.648  83.836  36.720  0.00  0.00    -0.219 NA
ATOM      5  C   LIG    1      -26.809  84.437  36.363  0.00  0.00    +0.142 A 
ATOM      6  C   LIG    1      -28.082  83.947  36.657  0.00  0.00    +0.087 A 
ATOM      7  C   LIG    1      -28.126  82.814  37.471  0.00  0.00    +0.034 A 
ATOM      8  C   LIG    1      -26.959  82.152  37.835  0.00  0.00    +0.070 A 
BRANCH   3   9
ATOM      9  O   LIG    1      -24.612  82.063  37.918  0.00  0.00    -0.438 OA
BRANCH   9  13
ATOM     10  C   LIG    1      -22.367  79.949  35.080  0.00  0.00    -0.010 A 
ATOM     11  C   LIG    1      -23.472  79.376  35.728  0.00  0.00    +0.012 A 
ATOM     12  C   LIG    1      -24.201  80.102  36.678  0.00  0.00    +0.047 A 
ATOM     13  C   LIG    1      -23.831  81.409  36.993  0.00  0.00    +0.130 A 
ATOM     14  C   LIG    1      -22.695  81.960  36.407  0.00  0.00    +0.047 A 
ATOM     15  C   LIG    1      -21.996  81.253  35.435  0.00  0.00    +0.012 A 
BRANCH  10  18
ATOM     16  C   LIG    1      -20.844  77.578  32.292  0.00  0.00    +0.156 A 
ATOM     17  S   LIG    1      -22.388  78.040  33.036  0.00  0.00    -0.053 S 
ATOM     18  C   LIG    1      -21.594  79.213  34.078  0.00  0.00    +0.038 A 
ATOM     19  C   LIG    1      -20.277  79.255  33.811  0.00  0.00    +0.100 A 
ATOM     20  N   LIG    1      -19.875  78.400  32.816  0.00  0.00    -0.342 N 
ATOM     21  H   LIG    1      -18.903  78.238  32.605  0.00  0.00    +0.167 HD
BRANCH  16  22
ATOM     22  N   LIG    1      -20.653  76.640  31.449  0.00  0.00    -0.229 NA
BRANCH  22  24
ATOM     23  C   LIG    1      -21.945  76.516  29.398  0.00  0.00    +0.026 C 
ATOM     24  C   LIG    1      -20.631  76.952  30.019  0.00  0.00    +0.126 C 
ENDBRANCH  22  24
ENDBRANCH  16  22
ENDBRANCH  10  18
ENDBRANCH   9  13
ENDBRANCH   3   9
ENDBRANCH   1   6
BRANCH   2  25
ATOM     25  N   LIG    1      -30.840  85.218  34.585  0.00  0.00    -0.267 N 
ATOM     26  H   LIG    1      -31.709  84.791  34.888  0.00  0.00    +0.157 HD
BRANCH  25  27
ATOM     27  C   LIG    1      -30.950  85.847  33.329  0.00  0.00    +0.061 A 
ATOM     28  C   LIG    1      -30.246  87.024  33.000  0.00  0.00    +0.092 A 
ATOM     29  N   LIG    1      -30.431  87.638  31.791  0.00  0.00    -0.253 NA
ATOM     30  C   LIG    1      -31.278  87.091  30.892  0.00  0.00    +0.124 A 
ATOM     31  C   LIG    1      -32.002  85.942  31.123  0.00  0.00    +0.075 A 
ATOM     32  C   LIG    1      -31.842  85.335  32.367  0.00  0.00    +0.039 A 
BRANCH  28  33
ATOM     33  C   LIG    1      -29.237  87.715  33.856  0.00  0.00    +0.002 A 
ATOM     34  C   LIG    1      -29.524  88.989  34.392  0.00  0.00    +0.013 A 
ATOM     35  C   LIG    1      -28.603  89.737  35.153  0.00  0.00    -0.047 A 
ATOM     36  C   LIG    1      -28.984  91.143  35.534  0.00  0.00    +0.044 C 
ATOM     37  C   LIG    1      -27.341  89.188  35.427  0.00  0.00    -0.047 A 
ATOM     38  C   LIG    1      -26.296  89.928  36.215  0.00  0.00    +0.044 C 
ATOM     39  C   LIG    1      -27.027  87.931  34.889  0.00  0.00    +0.004 A 
ATOM     40  C   LIG    1      -27.952  87.217  34.112  0.00  0.00    +0.010 A 
ENDBRANCH  28  33
BRANCH  31  41
ATOM     41  C   LIG    1      -32.903  85.392  30.068  0.00  0.00    +0.419 C 
ATOM     42  F   LIG    1      -34.107  86.025  30.028  0.00  0.00    -0.166 F 
ATOM     43  F   LIG    1      -33.180  84.072  30.254  0.00  0.00    -0.166 F 
ATOM     44  F   LIG    1      -32.391  85.489  28.809  0.00  0.00    -0.166 F 
ENDBRANCH  31  41
ENDBRANCH  25  27
ENDBRANCH   2  25
BRANCH   2  45
ATOM     45  O   LIG    1      -29.258  83.808  34.015  0.00  0.00    -0.481 OA
ATOM     46  H   LIG    1      -28.554  84.260  33.532  0.00  0.00    +0.295 HD
ENDBRANCH   2  45
TORSDOF 11
ENDMDL
MODEL 7
REMARK VINA RESULT:      -6.6     14.566     17.374
REMARK  Name = pdb/CHEMBL3929612.pdb
REMARK                            x       y       z     vdW  Elec       q    Type
REMARK                         _______ _______ _______ _____ _____    ______ ____
ROOT
ATOM      1  N   LIG    1      -33.711  90.949  27.925  0.00  0.00    -0.198 NA
ATOM      2  C   LIG    1      -32.976  90.472  28.879  0.00  0.00    +0.285 C 
ENDROOT
BRANCH   1   6
ATOM      3  C   LIG    1      -32.502  93.720  25.079  0.00  0.00    +0.221 A 
ATOM      4  N   LIG    1      -32.113  92.432  24.951  0.00  0.00    -0.219 NA
ATOM      5  C   LIG    1      -32.561  91.565  25.893  0.00  0.00    +0.142 A 
ATOM      6  C   LIG    1      -33.337  91.923  26.997  0.00  0.00    +0.087 A 
ATOM      7  C   LIG    1      -33.754  93.254  27.044  0.00  0.00    +0.034 A 
ATOM      8  C   LIG    1      -33.293  94.179  26.114  0.00  0.00    +0.070 A 
BRANCH   3   9
ATOM      9  O   LIG    1      -32.135  94.661  24.126  0.00  0.00    -0.438 OA
BRANCH   9  13
ATOM     10  C   LIG    1      -32.142  93.512  20.096  0.00  0.00    -0.010 A 
ATOM     11  C   LIG    1      -30.972  93.940  20.743  0.00  0.00    +0.012 A 
ATOM     12  C   LIG    1      -30.999  94.326  22.089  0.00  0.00    +0.047 A 
ATOM     13  C   LIG    1      -32.196  94.290  22.802  0.00  0.00    +0.130 A 
ATOM     14  C   LIG    1      -33.374  93.934  22.150  0.00  0.00    +0.047 A 
ATOM     15  C   LIG    1      -33.339  93.514  20.825  0.00  0.00    +0.012 A 
BRANCH  10  18
ATOM     16  C   LIG    1      -32.569  91.901  16.499  0.00  0.00    +0.156 A 
ATOM     17  S   LIG    1      -33.293  91.902  18.120  0.00  0.00    -0.053 S 
ATOM     18  C   LIG    1      -32.138  93.097  18.692  0.00  0.00    +0.038 A 
ATOM     19  C   LIG    1      -31.326  93.476  17.689  0.00  0.00    +0.100 A 
ATOM     20  N   LIG    1      -31.583  92.859  16.490  0.00  0.00    -0.342 N 
ATOM     21  H   LIG    1      -30.973  92.953  15.694  0.00  0.00    +0.167 HD
BRANCH  16  22
ATOM     22  N   LIG    1      -32.878  91.137  15.525  0.00  0.00    -0.229 NA
BRANCH  22  24
ATOM     23  C   LIG    1      -33.497  88.795  15.676  0.00  0.00    +0.026 C 
ATOM     24  C   LIG    1      -34.012  90.223  15.660  0.00  0.00    +0.126 C 
ENDBRANCH  22  24
ENDBRANCH  16  22
ENDBRANCH  10  18
ENDBRANCH   9  13
ENDBRANCH   3   9
ENDBRANCH   1   6
BRANCH   2  25
ATOM     25  N   LIG    1      -33.343  89.531  29.789  0.00  0.00    -0.267 N 
ATOM     26  H   LIG    1      -32.970  89.704  30.716  0.00  0.00    +0.157 HD
BRANCH  25  27
ATOM     27  C   LIG    1      -33.487  88.158  29.505  0.00  0.00    +0.061 A 
ATOM     28  C   LIG    1      -32.636  87.173  30.048  0.00  0.00    +0.092 A 
ATOM     29  N   LIG    1      -32.771  85.857  29.696  0.00  0.00    -0.253 NA
ATOM     30  C   LIG    1      -33.751  85.497  28.839  0.00  0.00    +0.124 A 
ATOM     31  C   LIG    1      -34.631  86.388  28.265  0.00  0.00    +0.075 A 
ATOM     32  C   LIG    1      -34.473  87.733  28.595  0.00  0.00    +0.039 A 
BRANCH  28  33
ATOM     33  C   LIG    1      -31.550  87.400  31.046  0.00  0.00    +0.002 A 
ATOM     34  C   LIG    1      -31.846  87.375  32.426  0.00  0.00    +0.013 A 
ATOM     35  C   LIG    1      -30.894  87.646  33.430  0.00  0.00    -0.047 A 
ATOM     36  C   LIG    1      -31.379  87.736  34.853  0.00  0.00    +0.044 C 
ATOM     37  C   LIG    1      -29.571  87.925  33.056  0.00  0.00    -0.047 A 
ATOM     38  C   LIG    1      -28.500  88.242  34.064  0.00  0.00    +0.044 C 
ATOM     39  C   LIG    1      -29.257  87.973  31.690  0.00  0.00    +0.004 A 
ATOM     40  C   LIG    1      -30.229  87.727  30.708  0.00  0.00    +0.010 A 
ENDBRANCH  28  33
BRANCH  31  41
ATOM     41  C   LIG    1      -35.699  85.905  27.341  0.00  0.00    +0.419 C 
ATOM     42  F   LIG    1      -35.204  85.165  26.312  0.00  0.00    -0.166 F 
ATOM     43  F   LIG    1      -36.394  86.927  26.767  0.00  0.00    -0.166 F 
ATOM     44  F   LIG    1      -36.632  85.119  27.949  0.00  0.00    -0.166 F 
ENDBRANCH  31  41
ENDBRANCH  25  27
ENDBRANCH   2  25
BRANCH   2  45
ATOM     45  O   LIG    1      -31.702  90.829  29.121  0.00  0.00    -0.481 OA
ATOM     46  H   LIG    1      -31.157  90.779  28.326  0.00  0.00    +0.295 HD
ENDBRANCH   2  45
TORSDOF 11
ENDMDL
MODEL 8
REMARK VINA RESULT:      -6.5     11.203     17.471
REMARK  Name = pdb/CHEMBL3929612.pdb
REMARK                            x       y       z     vdW  Elec       q    Type
REMARK                         _______ _______ _______ _____ _____    ______ ____
ROOT
ATOM      1  N   LIG    1      -37.983  68.110  22.225  0.00  0.00    -0.198 NA
ATOM      2  C   LIG    1      -37.617  68.010  20.987  0.00  0.00    +0.285 C 
ENDROOT
BRANCH   1   6
ATOM      3  C   LIG    1      -39.638  71.431  24.088  0.00  0.00    +0.221 A 
ATOM      4  N   LIG    1      -38.333  71.146  24.290  0.00  0.00    -0.219 NA
ATOM      5  C   LIG    1      -37.839  70.067  23.634  0.00  0.00    +0.142 A 
ATOM      6  C   LIG    1      -38.593  69.216  22.823  0.00  0.00    +0.087 A 
ATOM      7  C   LIG    1      -39.918  69.594  22.608  0.00  0.00    +0.034 A 
ATOM      8  C   LIG    1      -40.469  70.677  23.284  0.00  0.00    +0.070 A 
BRANCH   3   9
ATOM      9  O   LIG    1      -40.209  72.553  24.676  0.00  0.00    -0.438 OA
BRANCH   9  13
ATOM     10  C   LIG    1      -37.680  75.477  26.291  0.00  0.00    -0.010 A 
ATOM     11  C   LIG    1      -38.120  75.531  24.960  0.00  0.00    +0.012 A 
ATOM     12  C   LIG    1      -38.959  74.536  24.443  0.00  0.00    +0.047 A 
ATOM     13  C   LIG    1      -39.366  73.475  25.250  0.00  0.00    +0.130 A 
ATOM     14  C   LIG    1      -38.878  73.377  26.550  0.00  0.00    +0.047 A 
ATOM     15  C   LIG    1      -38.076  74.385  27.075  0.00  0.00    +0.012 A 
BRANCH  10  18
ATOM     16  C   LIG    1      -34.880  77.754  27.934  0.00  0.00    +0.156 A 
ATOM     17  S   LIG    1      -35.138  76.133  27.257  0.00  0.00    -0.053 S 
ATOM     18  C   LIG    1      -36.808  76.509  26.857  0.00  0.00    +0.038 A 
ATOM     19  C   LIG    1      -37.087  77.785  27.176  0.00  0.00    +0.100 A 
ATOM     20  N   LIG    1      -36.032  78.473  27.722  0.00  0.00    -0.342 N 
ATOM     21  H   LIG    1      -36.139  79.392  28.122  0.00  0.00    +0.167 HD
BRANCH  16  22
ATOM     22  N   LIG    1      -33.835  78.175  28.532  0.00  0.00    -0.229 NA
BRANCH  22  24
ATOM     23  C   LIG    1      -32.268  78.791  26.785  0.00  0.00    +0.026 C 
ATOM     24  C   LIG    1      -32.517  77.878  27.971  0.00  0.00    +0.126 C 
ENDBRANCH  22  24
ENDBRANCH  16  22
ENDBRANCH  10  18
ENDBRANCH   9  13
ENDBRANCH   3   9
ENDBRANCH   1   6
BRANCH   2  25
ATOM     25  N   LIG    1      -37.015  66.938  20.407  0.00  0.00    -0.267 N 
ATOM     26  H   LIG    1      -37.418  66.051  20.689  0.00  0.00    +0.157 HD
BRANCH  25  27
ATOM     27  C   LIG    1      -35.636  66.848  20.131  0.00  0.00    +0.061 A 
ATOM     28  C   LIG    1      -34.670  66.618  21.133  0.00  0.00    +0.092 A 
ATOM     29  N   LIG    1      -33.335  66.603  20.831  0.00  0.00    -0.253 NA
ATOM     30  C   LIG    1      -32.942  66.780  19.550  0.00  0.00    +0.124 A 
ATOM     31  C   LIG    1      -33.814  67.004  18.507  0.00  0.00    +0.075 A 
ATOM     32  C   LIG    1      -35.171  67.056  18.819  0.00  0.00    +0.039 A 
BRANCH  28  33
ATOM     33  C   LIG    1      -34.944  66.347  22.575  0.00  0.00    +0.002 A 
ATOM     34  C   LIG    1      -34.749  67.367  23.531  0.00  0.00    +0.013 A 
ATOM     35  C   LIG    1      -34.920  67.174  24.917  0.00  0.00    -0.047 A 
ATOM     36  C   LIG    1      -34.532  68.301  25.837  0.00  0.00    +0.044 C 
ATOM     37  C   LIG    1      -35.335  65.918  25.384  0.00  0.00    -0.047 A 
ATOM     38  C   LIG    1      -35.523  65.625  26.848  0.00  0.00    +0.044 C 
ATOM     39  C   LIG    1      -35.517  64.884  24.454  0.00  0.00    +0.004 A 
ATOM     40  C   LIG    1      -35.315  65.093  23.081  0.00  0.00    +0.010 A 
ENDBRANCH  28  33
BRANCH  31  41
ATOM     41  C   LIG    1      -33.299  67.173  17.116  0.00  0.00    +0.419 C 
ATOM     42  F   LIG    1      -32.488  66.150  16.732  0.00  0.00    -0.166 F 
ATOM     43  F   LIG    1      -32.566  68.310  16.965  0.00  0.00    -0.166 F 
ATOM     44  F   LIG    1      -34.283  67.240  16.175  0.00  0.00    -0.166 F 
ENDBRANCH  31  41
ENDBRANCH  25  27
ENDBRANCH   2  25
BRANCH   2  45
ATOM     45  O   LIG    1      -37.785  68.963  20.054  0.00  0.00    -0.481 OA
ATOM     46  H   LIG    1      -37.171  68.857  19.316  0.00  0.00    +0.295 HD
ENDBRANCH   2  45
TORSDOF 11
ENDMDL
MODEL 9
REMARK VINA RESULT:      -6.5     18.035     19.788
REMARK  Name = pdb/CHEMBL3929612.pdb
REMARK                            x       y       z     vdW  Elec       q    Type
REMARK                         _______ _______ _______ _____ _____    ______ ____
ROOT
ATOM      1  N   LIG    1      -23.150  81.133  15.706  0.00  0.00    -0.198 NA
ATOM      2  C   LIG    1      -23.451  82.286  15.200  0.00  0.00    +0.285 C 
ENDROOT
BRANCH   1   6
ATOM      3  C   LIG    1      -24.739  77.474  14.554  0.00  0.00    +0.221 A 
ATOM      4  N   LIG    1      -25.493  78.314  15.297  0.00  0.00    -0.219 NA
ATOM      5  C   LIG    1      -24.934  79.507  15.620  0.00  0.00    +0.142 A 
ATOM      6  C   LIG    1      -23.634  79.891  15.287  0.00  0.00    +0.087 A 
ATOM      7  C   LIG    1      -22.926  79.007  14.473  0.00  0.00    +0.034 A 
ATOM      8  C   LIG    1      -23.453  77.763  14.143  0.00  0.00    +0.070 A 
BRANCH   3   9
ATOM      9  O   LIG    1      -25.257  76.257  14.131  0.00  0.00    -0.438 OA
BRANCH   9  13
ATOM     10  C   LIG    1      -28.394  76.318  11.352  0.00  0.00    -0.010 A 
ATOM     11  C   LIG    1      -28.592  75.930  12.686  0.00  0.00    +0.012 A 
ATOM     12  C   LIG    1      -27.525  75.911  13.593  0.00  0.00    +0.047 A 
ATOM     13  C   LIG    1      -26.247  76.278  13.175  0.00  0.00    +0.130 A 
ATOM     14  C   LIG    1      -26.027  76.597  11.838  0.00  0.00    +0.047 A 
ATOM     15  C   LIG    1      -27.094  76.653  10.948  0.00  0.00    +0.012 A 
BRANCH  10  18
ATOM     16  C   LIG    1      -31.655  76.874   9.167  0.00  0.00    +0.156 A 
ATOM     17  S   LIG    1      -30.749  77.577  10.523  0.00  0.00    -0.053 S 
ATOM     18  C   LIG    1      -29.495  76.353  10.388  0.00  0.00    +0.038 A 
ATOM     19  C   LIG    1      -29.753  75.535   9.353  0.00  0.00    +0.100 A 
ATOM     20  N   LIG    1      -30.902  75.839   8.666  0.00  0.00    -0.342 N 
ATOM     21  H   LIG    1      -31.279  75.235   7.953  0.00  0.00    +0.167 HD
BRANCH  16  22
ATOM     22  N   LIG    1      -32.804  77.235   8.747  0.00  0.00    -0.229 NA
BRANCH  22  24
ATOM     23  C   LIG    1      -35.151  76.644   8.579  0.00  0.00    +0.026 C 
ATOM     24  C   LIG    1      -33.994  76.895   9.527  0.00  0.00    +0.126 C 
ENDBRANCH  22  24
ENDBRANCH  16  22
ENDBRANCH  10  18
ENDBRANCH   9  13
ENDBRANCH   3   9
ENDBRANCH   1   6
BRANCH   2  25
ATOM     25  N   LIG    1      -22.989  83.496  15.613  0.00  0.00    -0.267 N 
ATOM     26  H   LIG    1      -23.615  83.965  16.259  0.00  0.00    +0.157 HD
BRANCH  25  27
ATOM     27  C   LIG    1      -22.266  84.395  14.804  0.00  0.00    +0.061 A 
ATOM     28  C   LIG    1      -21.154  84.001  14.030  0.00  0.00    +0.092 A 
ATOM     29  N   LIG    1      -20.441  84.920  13.308  0.00  0.00    -0.253 NA
ATOM     30  C   LIG    1      -20.827  86.215  13.315  0.00  0.00    +0.124 A 
ATOM     31  C   LIG    1      -21.902  86.688  14.035  0.00  0.00    +0.075 A 
ATOM     32  C   LIG    1      -22.608  85.761  14.799  0.00  0.00    +0.039 A 
BRANCH  28  33
ATOM     33  C   LIG    1      -20.640  82.609  13.871  0.00  0.00    +0.002 A 
ATOM     34  C   LIG    1      -19.854  82.029  14.890  0.00  0.00    +0.013 A 
ATOM     35  C   LIG    1      -19.276  80.748  14.789  0.00  0.00    -0.047 A 
ATOM     36  C   LIG    1      -18.335  80.313  15.882  0.00  0.00    +0.044 C 
ATOM     37  C   LIG    1      -19.509  79.984  13.636  0.00  0.00    -0.047 A 
ATOM     38  C   LIG    1      -18.914  78.616  13.443  0.00  0.00    +0.044 C 
ATOM     39  C   LIG    1      -20.272  80.546  12.603  0.00  0.00    +0.004 A 
ATOM     40  C   LIG    1      -20.816  81.835  12.715  0.00  0.00    +0.010 A 
ENDBRANCH  28  33
BRANCH  31  41
ATOM     41  C   LIG    1      -22.275  88.132  13.975  0.00  0.00    +0.419 C 
ATOM     42  F   LIG    1      -22.862  88.569  15.122  0.00  0.00    -0.166 F 
ATOM     43  F   LIG    1      -23.158  88.402  12.975  0.00  0.00    -0.166 F 
ATOM     44  F   LIG    1      -21.213  88.960  13.763  0.00  0.00    -0.166 F 
ENDBRANCH  31  41
ENDBRANCH  25  27
ENDBRANCH   2  25
BRANCH   2  45
ATOM     45  O   LIG    1      -24.277  82.478  14.156  0.00  0.00    -0.481 OA
ATOM     46  H   LIG    1      -25.202  82.352  14.401  0.00  0.00    +0.295 HD
ENDBRANCH   2  45
TORSDOF 11
ENDMDL
