MODEL 1
REMARK VINA RESULT:      -6.2      0.000      0.000
REMARK  Name = pdb/CHEMBL3661491.pdb
REMARK                            x       y       z     vdW  Elec       q    Type
REMARK                         _______ _______ _______ _____ _____    ______ ____
ROOT
ATOM      1  C   LIG    1      -40.369  72.779  24.399  0.00  0.00    +0.042 A 
ATOM      2  C   LIG    1      -39.575  73.562  25.259  0.00  0.00    +0.038 A 
ATOM      3  C   LIG    1      -39.650  74.958  25.195  0.00  0.00    +0.052 A 
ATOM      4  C   LIG    1      -40.519  75.497  24.244  0.00  0.00    +0.134 A 
ATOM      5  N   LIG    1      -41.262  74.773  23.374  0.00  0.00    -0.261 NA
ATOM      6  C   LIG    1      -41.155  73.434  23.460  0.00  0.00    +0.122 A 
ENDROOT
BRANCH   3   7
ATOM      7  N   LIG    1      -38.878  75.748  26.090  0.00  0.00    -0.283 N 
ATOM      8  H   LIG    1      -39.193  75.787  27.055  0.00  0.00    +0.155 HD
ATOM      9  C   LIG    1      -37.726  76.444  25.740  0.00  0.00    +0.239 C 
ATOM     10  O   LIG    1      -37.192  76.416  24.632  0.00  0.00    -0.273 OA
BRANCH   9  11
ATOM     11  C   LIG    1      -37.112  77.288  26.828  0.00  0.00    +0.239 C 
BRANCH  11  12
ATOM     12  N   LIG    1      -35.810  76.809  27.254  0.00  0.00    -0.262 N 
ATOM     13  N   LIG    1      -34.760  77.653  27.189  0.00  0.00    -0.167 NA
ATOM     14  C   LIG    1      -33.690  76.894  27.512  0.00  0.00    +0.165 A 
ATOM     15  C   LIG    1      -34.096  75.570  27.827  0.00  0.00    +0.053 A 
ATOM     16  C   LIG    1      -35.458  75.551  27.645  0.00  0.00    +0.109 A 
BRANCH  14  17
ATOM     17  C   LIG    1      -32.280  77.425  27.516  0.00  0.00    +0.436 C 
ATOM     18  F   LIG    1      -31.437  76.651  28.250  0.00  0.00    -0.164 F 
ATOM     19  F   LIG    1      -32.199  78.687  28.016  0.00  0.00    -0.164 F 
ATOM     20  F   LIG    1      -31.753  77.477  26.260  0.00  0.00    -0.164 F 
ENDBRANCH  14  17
ENDBRANCH  11  12
ENDBRANCH   9  11
ENDBRANCH   3   7
BRANCH   1  21
ATOM     21  C   LIG    1      -40.352  71.296  24.474  0.00  0.00    +0.197 C 
ATOM     22  O   LIG    1      -41.376  70.712  24.847  0.00  0.00    -0.287 OA
BRANCH  21  30
ATOM     23  N   LIG    1      -37.683  69.304  22.929  0.00  0.00    -0.329 N 
ATOM     24  C   LIG    1      -37.065  69.626  24.111  0.00  0.00    +0.145 A 
ATOM     25  N   LIG    1      -35.834  69.232  24.481  0.00  0.00    -0.218 NA
ATOM     26  C   LIG    1      -35.481  69.730  25.674  0.00  0.00    +0.223 A 
ATOM     27  N   LIG    1      -36.188  70.559  26.464  0.00  0.00    -0.243 NA
ATOM     28  C   LIG    1      -37.425  70.926  26.051  0.00  0.00    +0.124 A 
ATOM     29  C   LIG    1      -37.924  70.440  24.841  0.00  0.00    +0.048 A 
ATOM     30  C   LIG    1      -39.141  70.566  24.099  0.00  0.00    +0.051 A 
ATOM     31  C   LIG    1      -38.965  69.801  22.946  0.00  0.00    +0.100 A 
BRANCH  23  33
ATOM     32  C   LIG    1      -37.212  67.046  21.971  0.00  0.00    +0.030 C 
ATOM     33  C   LIG    1      -37.094  68.565  21.811  0.00  0.00    +0.083 C 
ATOM     34  C   LIG    1      -37.653  68.997  20.455  0.00  0.00    +0.030 C 
ENDBRANCH  23  33
ENDBRANCH  21  30
ENDBRANCH   1  21
TORSDOF 7
ENDMDL
MODEL 2
REMARK VINA RESULT:      -6.2     18.891     22.397
REMARK  Name = pdb/CHEMBL3661491.pdb
REMARK                            x       y       z     vdW  Elec       q    Type
REMARK                         _______ _______ _______ _____ _____    ______ ____
ROOT
ATOM      1  C   LIG    1      -24.260  85.586  10.663  0.00  0.00    +0.042 A 
ATOM      2  C   LIG    1      -24.515  84.601  11.636  0.00  0.00    +0.038 A 
ATOM      3  C   LIG    1      -25.534  83.664  11.428  0.00  0.00    +0.052 A 
ATOM      4  C   LIG    1      -26.263  83.783  10.243  0.00  0.00    +0.134 A 
ATOM      5  N   LIG    1      -26.071  84.744   9.308  0.00  0.00    -0.261 NA
ATOM      6  C   LIG    1      -25.089  85.632   9.548  0.00  0.00    +0.122 A 
ENDROOT
BRANCH   3   7
ATOM      7  N   LIG    1      -25.766  82.647  12.393  0.00  0.00    -0.283 N 
ATOM      8  H   LIG    1      -26.322  82.903  13.204  0.00  0.00    +0.155 HD
ATOM      9  C   LIG    1      -25.304  81.340  12.293  0.00  0.00    +0.239 C 
ATOM     10  O   LIG    1      -24.692  80.877  11.331  0.00  0.00    -0.273 OA
BRANCH   9  11
ATOM     11  C   LIG    1      -25.592  80.447  13.473  0.00  0.00    +0.239 C 
BRANCH  11  12
ATOM     12  N   LIG    1      -24.616  80.578  14.539  0.00  0.00    -0.262 N 
ATOM     13  N   LIG    1      -24.084  81.795  14.778  0.00  0.00    -0.167 NA
ATOM     14  C   LIG    1      -23.131  81.574  15.710  0.00  0.00    +0.165 A 
ATOM     15  C   LIG    1      -23.110  80.204  16.085  0.00  0.00    +0.053 A 
ATOM     16  C   LIG    1      -24.069  79.597  15.311  0.00  0.00    +0.109 A 
BRANCH  14  17
ATOM     17  C   LIG    1      -22.235  82.663  16.241  0.00  0.00    +0.436 C 
ATOM     18  F   LIG    1      -22.220  83.759  15.436  0.00  0.00    -0.164 F 
ATOM     19  F   LIG    1      -20.946  82.255  16.383  0.00  0.00    -0.164 F 
ATOM     20  F   LIG    1      -22.637  83.097  17.469  0.00  0.00    -0.164 F 
ENDBRANCH  14  17
ENDBRANCH  11  12
ENDBRANCH   9  11
ENDBRANCH   3   7
BRANCH   1  21
ATOM     21  C   LIG    1      -23.154  86.563  10.828  0.00  0.00    +0.197 C 
ATOM     22  O   LIG    1      -23.080  87.509  10.037  0.00  0.00    -0.287 OA
BRANCH  21  30
ATOM     23  N   LIG    1      -20.423  85.666  13.112  0.00  0.00    -0.329 N 
ATOM     24  C   LIG    1      -21.110  86.540  13.917  0.00  0.00    +0.145 A 
ATOM     25  N   LIG    1      -20.777  86.864  15.179  0.00  0.00    -0.218 NA
ATOM     26  C   LIG    1      -21.614  87.770  15.706  0.00  0.00    +0.223 A 
ATOM     27  N   LIG    1      -22.664  88.366  15.112  0.00  0.00    -0.243 NA
ATOM     28  C   LIG    1      -22.962  88.004  13.841  0.00  0.00    +0.124 A 
ATOM     29  C   LIG    1      -22.188  87.038  13.196  0.00  0.00    +0.048 A 
ATOM     30  C   LIG    1      -22.194  86.391  11.918  0.00  0.00    +0.051 A 
ATOM     31  C   LIG    1      -21.113  85.511  11.933  0.00  0.00    +0.100 A 
BRANCH  23  33
ATOM     32  C   LIG    1      -19.307  83.495  13.636  0.00  0.00    +0.030 C 
ATOM     33  C   LIG    1      -19.156  85.004  13.426  0.00  0.00    +0.083 C 
ATOM     34  C   LIG    1      -18.068  85.286  12.390  0.00  0.00    +0.030 C 
ENDBRANCH  23  33
ENDBRANCH  21  30
ENDBRANCH   1  21
TORSDOF 7
ENDMDL
MODEL 3
REMARK VINA RESULT:      -6.1      8.896     14.602
REMARK  Name = pdb/CHEMBL3661491.pdb
REMARK                            x       y       z     vdW  Elec       q    Type
REMARK                         _______ _______ _______ _____ _____    ______ ____
ROOT
ATOM      1  C   LIG    1      -26.392  76.597  31.988  0.00  0.00    +0.042 A 
ATOM      2  C   LIG    1      -27.758  76.521  31.656  0.00  0.00    +0.038 A 
ATOM      3  C   LIG    1      -28.603  75.670  32.378  0.00  0.00    +0.052 A 
ATOM      4  C   LIG    1      -28.015  74.918  33.397  0.00  0.00    +0.134 A 
ATOM      5  N   LIG    1      -26.698  74.936  33.712  0.00  0.00    -0.261 NA
ATOM      6  C   LIG    1      -25.917  75.759  32.990  0.00  0.00    +0.122 A 
ENDROOT
BRANCH   3   7
ATOM      7  N   LIG    1      -29.990  75.622  32.067  0.00  0.00    -0.283 N 
ATOM      8  H   LIG    1      -30.547  76.427  32.339  0.00  0.00    +0.155 HD
ATOM      9  C   LIG    1      -30.619  74.571  31.410  0.00  0.00    +0.239 C 
ATOM     10  O   LIG    1      -30.050  73.579  30.956  0.00  0.00    -0.273 OA
BRANCH   9  11
ATOM     11  C   LIG    1      -32.114  74.690  31.259  0.00  0.00    +0.239 C 
BRANCH  11  12
ATOM     12  N   LIG    1      -32.520  75.136  29.940  0.00  0.00    -0.262 N 
ATOM     13  N   LIG    1      -31.993  76.280  29.456  0.00  0.00    -0.167 NA
ATOM     14  C   LIG    1      -32.652  76.498  28.298  0.00  0.00    +0.165 A 
ATOM     15  C   LIG    1      -33.568  75.442  28.040  0.00  0.00    +0.053 A 
ATOM     16  C   LIG    1      -33.460  74.593  29.114  0.00  0.00    +0.109 A 
BRANCH  14  17
ATOM     17  C   LIG    1      -32.417  77.711  27.436  0.00  0.00    +0.436 C 
ATOM     18  F   LIG    1      -31.760  78.699  28.100  0.00  0.00    -0.164 F 
ATOM     19  F   LIG    1      -33.575  78.249  26.966  0.00  0.00    -0.164 F 
ATOM     20  F   LIG    1      -31.661  77.418  26.341  0.00  0.00    -0.164 F 
ENDBRANCH  14  17
ENDBRANCH  11  12
ENDBRANCH   9  11
ENDBRANCH   3   7
BRANCH   1  21
ATOM     21  C   LIG    1      -25.478  77.527  31.278  0.00  0.00    +0.197 C 
ATOM     22  O   LIG    1      -25.948  78.266  30.407  0.00  0.00    -0.287 OA
BRANCH  21  30
ATOM     23  N   LIG    1      -21.836  77.171  31.576  0.00  0.00    -0.329 N 
ATOM     24  C   LIG    1      -22.075  77.948  32.681  0.00  0.00    +0.145 A 
ATOM     25  N   LIG    1      -21.145  78.367  33.558  0.00  0.00    -0.218 NA
ATOM     26  C   LIG    1      -21.669  79.141  34.519  0.00  0.00    +0.223 A 
ATOM     27  N   LIG    1      -22.948  79.536  34.656  0.00  0.00    -0.243 NA
ATOM     28  C   LIG    1      -23.850  79.085  33.750  0.00  0.00    +0.124 A 
ATOM     29  C   LIG    1      -23.435  78.237  32.722  0.00  0.00    +0.048 A 
ATOM     30  C   LIG    1      -24.058  77.554  31.629  0.00  0.00    +0.051 A 
ATOM     31  C   LIG    1      -23.035  76.864  30.979  0.00  0.00    +0.100 A 
BRANCH  23  33
ATOM     32  C   LIG    1      -20.181  75.303  31.490  0.00  0.00    +0.030 C 
ATOM     33  C   LIG    1      -20.528  76.738  31.082  0.00  0.00    +0.083 C 
ATOM     34  C   LIG    1      -20.379  76.906  29.571  0.00  0.00    +0.030 C 
ENDBRANCH  23  33
ENDBRANCH  21  30
ENDBRANCH   1  21
TORSDOF 7
ENDMDL
MODEL 4
REMARK VINA RESULT:      -6.1      3.538      8.964
REMARK  Name = pdb/CHEMBL3661491.pdb
REMARK                            x       y       z     vdW  Elec       q    Type
REMARK                         _______ _______ _______ _____ _____    ______ ____
ROOT
ATOM      1  C   LIG    1      -33.325  73.609  29.057  0.00  0.00    +0.042 A 
ATOM      2  C   LIG    1      -34.083  73.416  27.887  0.00  0.00    +0.038 A 
ATOM      3  C   LIG    1      -34.928  72.304  27.781  0.00  0.00    +0.052 A 
ATOM      4  C   LIG    1      -34.949  71.427  28.866  0.00  0.00    +0.134 A 
ATOM      5  N   LIG    1      -34.200  71.561  29.986  0.00  0.00    -0.261 NA
ATOM      6  C   LIG    1      -33.393  72.636  30.047  0.00  0.00    +0.122 A 
ENDROOT
BRANCH   3   7
ATOM      7  N   LIG    1      -35.723  72.131  26.615  0.00  0.00    -0.283 N 
ATOM      8  H   LIG    1      -35.227  71.957  25.745  0.00  0.00    +0.155 HD
ATOM      9  C   LIG    1      -37.112  72.165  26.590  0.00  0.00    +0.239 C 
ATOM     10  O   LIG    1      -37.834  72.284  27.580  0.00  0.00    -0.273 OA
BRANCH   9  11
ATOM     11  C   LIG    1      -37.750  72.042  25.230  0.00  0.00    +0.239 C 
BRANCH  11  12
ATOM     12  N   LIG    1      -38.438  73.249  24.813  0.00  0.00    -0.262 N 
ATOM     13  N   LIG    1      -37.824  74.436  24.997  0.00  0.00    -0.167 NA
ATOM     14  C   LIG    1      -38.748  75.357  24.648  0.00  0.00    +0.165 A 
ATOM     15  C   LIG    1      -39.936  74.724  24.194  0.00  0.00    +0.053 A 
ATOM     16  C   LIG    1      -39.703  73.376  24.320  0.00  0.00    +0.109 A 
BRANCH  14  17
ATOM     17  C   LIG    1      -38.506  76.842  24.749  0.00  0.00    +0.436 C 
ATOM     18  F   LIG    1      -37.691  77.164  25.788  0.00  0.00    -0.164 F 
ATOM     19  F   LIG    1      -39.657  77.547  24.912  0.00  0.00    -0.164 F 
ATOM     20  F   LIG    1      -37.910  77.336  23.628  0.00  0.00    -0.164 F 
ENDBRANCH  14  17
ENDBRANCH  11  12
ENDBRANCH   9  11
ENDBRANCH   3   7
BRANCH   1  21
ATOM     21  C   LIG    1      -32.458  74.803  29.224  0.00  0.00    +0.197 C 
ATOM     22  O   LIG    1      -31.250  74.632  29.422  0.00  0.00    -0.287 OA
BRANCH  21  30
ATOM     23  N   LIG    1      -34.224  77.993  29.657  0.00  0.00    -0.329 N 
ATOM     24  C   LIG    1      -33.657  78.216  28.427  0.00  0.00    +0.145 A 
ATOM     25  N   LIG    1      -33.812  79.328  27.687  0.00  0.00    -0.218 NA
ATOM     26  C   LIG    1      -33.111  79.278  26.545  0.00  0.00    +0.223 A 
ATOM     27  N   LIG    1      -32.296  78.294  26.121  0.00  0.00    -0.243 NA
ATOM     28  C   LIG    1      -32.175  77.192  26.899  0.00  0.00    +0.124 A 
ATOM     29  C   LIG    1      -32.888  77.107  28.096  0.00  0.00    +0.048 A 
ATOM     30  C   LIG    1      -33.045  76.140  29.140  0.00  0.00    +0.051 A 
ATOM     31  C   LIG    1      -33.924  76.713  30.059  0.00  0.00    +0.100 A 
BRANCH  23  33
ATOM     32  C   LIG    1      -36.519  78.812  30.203  0.00  0.00    +0.030 C 
ATOM     33  C   LIG    1      -35.011  78.946  30.440  0.00  0.00    +0.083 C 
ATOM     34  C   LIG    1      -34.706  78.880  31.935  0.00  0.00    +0.030 C 
ENDBRANCH  23  33
ENDBRANCH  21  30
ENDBRANCH   1  21
TORSDOF 7
ENDMDL
MODEL 5
REMARK VINA RESULT:      -6.1     12.831     16.606
REMARK  Name = pdb/CHEMBL3661491.pdb
REMARK                            x       y       z     vdW  Elec       q    Type
REMARK                         _______ _______ _______ _____ _____    ______ ____
ROOT
ATOM      1  C   LIG    1      -25.723  75.827  31.395  0.00  0.00    +0.042 A 
ATOM      2  C   LIG    1      -25.142  74.547  31.322  0.00  0.00    +0.038 A 
ATOM      3  C   LIG    1      -25.867  73.429  31.748  0.00  0.00    +0.052 A 
ATOM      4  C   LIG    1      -27.149  73.666  32.248  0.00  0.00    +0.134 A 
ATOM      5  N   LIG    1      -27.720  74.887  32.371  0.00  0.00    -0.261 NA
ATOM      6  C   LIG    1      -26.988  75.939  31.960  0.00  0.00    +0.122 A 
ENDROOT
BRANCH   3   7
ATOM      7  N   LIG    1      -25.294  72.133  31.639  0.00  0.00    -0.283 N 
ATOM      8  H   LIG    1      -25.246  71.731  30.707  0.00  0.00    +0.155 HD
ATOM      9  C   LIG    1      -24.787  71.398  32.705  0.00  0.00    +0.239 C 
ATOM     10  O   LIG    1      -24.708  71.798  33.866  0.00  0.00    -0.273 OA
BRANCH   9  11
ATOM     11  C   LIG    1      -24.303  70.009  32.376  0.00  0.00    +0.239 C 
BRANCH  11  12
ATOM     12  N   LIG    1      -24.799  69.520  31.103  0.00  0.00    -0.262 N 
ATOM     13  N   LIG    1      -24.183  69.925  29.974  0.00  0.00    -0.167 NA
ATOM     14  C   LIG    1      -24.940  69.425  28.973  0.00  0.00    +0.165 A 
ATOM     15  C   LIG    1      -26.015  68.658  29.497  0.00  0.00    +0.053 A 
ATOM     16  C   LIG    1      -25.896  68.747  30.862  0.00  0.00    +0.109 A 
BRANCH  14  17
ATOM     17  C   LIG    1      -24.646  69.680  27.517  0.00  0.00    +0.436 C 
ATOM     18  F   LIG    1      -23.995  68.641  26.930  0.00  0.00    -0.164 F 
ATOM     19  F   LIG    1      -23.881  70.789  27.325  0.00  0.00    -0.164 F 
ATOM     20  F   LIG    1      -25.786  69.873  26.795  0.00  0.00    -0.164 F 
ENDBRANCH  14  17
ENDBRANCH  11  12
ENDBRANCH   9  11
ENDBRANCH   3   7
BRANCH   1  21
ATOM     21  C   LIG    1      -25.003  77.029  30.904  0.00  0.00    +0.197 C 
ATOM     22  O   LIG    1      -25.555  77.747  30.064  0.00  0.00    -0.287 OA
BRANCH  21  30
ATOM     23  N   LIG    1      -22.027  78.022  32.813  0.00  0.00    -0.329 N 
ATOM     24  C   LIG    1      -21.422  77.626  31.646  0.00  0.00    +0.145 A 
ATOM     25  N   LIG    1      -20.101  77.669  31.399  0.00  0.00    -0.218 NA
ATOM     26  C   LIG    1      -19.798  77.184  30.186  0.00  0.00    +0.223 A 
ATOM     27  N   LIG    1      -20.639  76.664  29.272  0.00  0.00    -0.243 NA
ATOM     28  C   LIG    1      -21.961  76.645  29.565  0.00  0.00    +0.124 A 
ATOM     29  C   LIG    1      -22.408  77.160  30.783  0.00  0.00    +0.048 A 
ATOM     30  C   LIG    1      -23.673  77.340  31.429  0.00  0.00    +0.051 A 
ATOM     31  C   LIG    1      -23.390  77.926  32.662  0.00  0.00    +0.100 A 
BRANCH  23  33
ATOM     32  C   LIG    1      -22.108  79.589  34.756  0.00  0.00    +0.030 C 
ATOM     33  C   LIG    1      -21.356  78.465  34.035  0.00  0.00    +0.083 C 
ATOM     34  C   LIG    1      -21.071  77.318  35.004  0.00  0.00    +0.030 C 
ENDBRANCH  23  33
ENDBRANCH  21  30
ENDBRANCH   1  21
TORSDOF 7
ENDMDL
MODEL 6
REMARK VINA RESULT:      -6.0     15.150     18.685
REMARK  Name = pdb/CHEMBL3661491.pdb
REMARK                            x       y       z     vdW  Elec       q    Type
REMARK                         _______ _______ _______ _____ _____    ______ ____
ROOT
ATOM      1  C   LIG    1      -22.825  77.175  30.695  0.00  0.00    +0.042 A 
ATOM      2  C   LIG    1      -23.093  77.704  31.972  0.00  0.00    +0.038 A 
ATOM      3  C   LIG    1      -24.418  77.904  32.378  0.00  0.00    +0.052 A 
ATOM      4  C   LIG    1      -25.413  77.572  31.457  0.00  0.00    +0.134 A 
ATOM      5  N   LIG    1      -25.188  77.102  30.207  0.00  0.00    -0.261 NA
ATOM      6  C   LIG    1      -23.901  76.933  29.850  0.00  0.00    +0.122 A 
ENDROOT
BRANCH   3   7
ATOM      7  N   LIG    1      -24.689  78.402  33.681  0.00  0.00    -0.283 N 
ATOM      8  H   LIG    1      -24.932  79.386  33.754  0.00  0.00    +0.155 HD
ATOM      9  C   LIG    1      -24.662  77.639  34.843  0.00  0.00    +0.239 C 
ATOM     10  O   LIG    1      -24.464  76.426  34.888  0.00  0.00    -0.273 OA
BRANCH   9  11
ATOM     11  C   LIG    1      -24.897  78.390  36.129  0.00  0.00    +0.239 C 
BRANCH  11  12
ATOM     12  N   LIG    1      -23.756  79.185  36.542  0.00  0.00    -0.262 N 
ATOM     13  N   LIG    1      -22.913  79.642  35.593  0.00  0.00    -0.167 NA
ATOM     14  C   LIG    1      -21.901  80.214  36.281  0.00  0.00    +0.165 A 
ATOM     15  C   LIG    1      -22.150  80.150  37.678  0.00  0.00    +0.053 A 
ATOM     16  C   LIG    1      -23.342  79.479  37.807  0.00  0.00    +0.109 A 
BRANCH  14  17
ATOM     17  C   LIG    1      -20.693  80.818  35.612  0.00  0.00    +0.436 C 
ATOM     18  F   LIG    1      -19.552  80.614  36.322  0.00  0.00    -0.164 F 
ATOM     19  F   LIG    1      -20.815  82.161  35.431  0.00  0.00    -0.164 F 
ATOM     20  F   LIG    1      -20.476  80.285  34.377  0.00  0.00    -0.164 F 
ENDBRANCH  14  17
ENDBRANCH  11  12
ENDBRANCH   9  11
ENDBRANCH   3   7
BRANCH   1  21
ATOM     21  C   LIG    1      -21.434  76.902  30.252  0.00  0.00    +0.197 C 
ATOM     22  O   LIG    1      -21.194  76.886  29.040  0.00  0.00    -0.287 OA
BRANCH  21  30
ATOM     23  N   LIG    1      -18.601  77.000  32.585  0.00  0.00    -0.329 N 
ATOM     24  C   LIG    1      -19.043  75.723  32.824  0.00  0.00    +0.145 A 
ATOM     25  N   LIG    1      -18.483  74.851  33.680  0.00  0.00    -0.218 NA
ATOM     26  C   LIG    1      -19.152  73.690  33.729  0.00  0.00    +0.223 A 
ATOM     27  N   LIG    1      -20.276  73.357  33.067  0.00  0.00    -0.243 NA
ATOM     28  C   LIG    1      -20.801  74.267  32.213  0.00  0.00    +0.124 A 
ATOM     29  C   LIG    1      -20.172  75.502  32.043  0.00  0.00    +0.048 A 
ATOM     30  C   LIG    1      -20.389  76.673  31.249  0.00  0.00    +0.051 A 
ATOM     31  C   LIG    1      -19.359  77.553  31.580  0.00  0.00    +0.100 A 
BRANCH  23  33
ATOM     32  C   LIG    1      -16.876  78.799  32.438  0.00  0.00    +0.030 C 
ATOM     33  C   LIG    1      -17.514  77.690  33.280  0.00  0.00    +0.083 C 
ATOM     34  C   LIG    1      -17.936  78.241  34.642  0.00  0.00    +0.030 C 
ENDBRANCH  23  33
ENDBRANCH  21  30
ENDBRANCH   1  21
TORSDOF 7
ENDMDL
MODEL 7
REMARK VINA RESULT:      -5.9      4.978      9.394
REMARK  Name = pdb/CHEMBL3661491.pdb
REMARK                            x       y       z     vdW  Elec       q    Type
REMARK                         _______ _______ _______ _____ _____    ______ ____
ROOT
ATOM      1  C   LIG    1      -40.172  79.187  24.740  0.00  0.00    +0.042 A 
ATOM      2  C   LIG    1      -39.051  78.610  25.366  0.00  0.00    +0.038 A 
ATOM      3  C   LIG    1      -38.642  77.319  25.010  0.00  0.00    +0.052 A 
ATOM      4  C   LIG    1      -39.406  76.664  24.043  0.00  0.00    +0.134 A 
ATOM      5  N   LIG    1      -40.513  77.174  23.453  0.00  0.00    -0.261 NA
ATOM      6  C   LIG    1      -40.880  78.413  23.828  0.00  0.00    +0.122 A 
ENDROOT
BRANCH   3   7
ATOM      7  N   LIG    1      -37.488  76.753  25.616  0.00  0.00    -0.283 N 
ATOM      8  H   LIG    1      -36.590  77.000  25.209  0.00  0.00    +0.155 HD
ATOM      9  C   LIG    1      -37.505  75.910  26.721  0.00  0.00    +0.239 C 
ATOM     10  O   LIG    1      -38.512  75.597  27.356  0.00  0.00    -0.273 OA
BRANCH   9  11
ATOM     11  C   LIG    1      -36.170  75.354  27.147  0.00  0.00    +0.239 C 
BRANCH  11  12
ATOM     12  N   LIG    1      -35.197  76.385  27.455  0.00  0.00    -0.262 N 
ATOM     13  N   LIG    1      -35.639  77.637  27.694  0.00  0.00    -0.167 NA
ATOM     14  C   LIG    1      -34.516  78.380  27.810  0.00  0.00    +0.165 A 
ATOM     15  C   LIG    1      -33.362  77.560  27.687  0.00  0.00    +0.053 A 
ATOM     16  C   LIG    1      -33.836  76.292  27.454  0.00  0.00    +0.109 A 
BRANCH  14  17
ATOM     17  C   LIG    1      -34.538  79.870  28.032  0.00  0.00    +0.436 C 
ATOM     18  F   LIG    1      -33.867  80.548  27.063  0.00  0.00    -0.164 F 
ATOM     19  F   LIG    1      -33.988  80.228  29.223  0.00  0.00    -0.164 F 
ATOM     20  F   LIG    1      -35.808  80.364  28.034  0.00  0.00    -0.164 F 
ENDBRANCH  14  17
ENDBRANCH  11  12
ENDBRANCH   9  11
ENDBRANCH   3   7
BRANCH   1  21
ATOM     21  C   LIG    1      -40.602  80.572  25.056  0.00  0.00    +0.197 C 
ATOM     22  O   LIG    1      -41.673  80.737  25.651  0.00  0.00    -0.287 OA
BRANCH  21  30
ATOM     23  N   LIG    1      -38.170  83.304  24.739  0.00  0.00    -0.329 N 
ATOM     24  C   LIG    1      -38.816  83.440  23.536  0.00  0.00    +0.145 A 
ATOM     25  N   LIG    1      -38.547  84.374  22.607  0.00  0.00    -0.218 NA
ATOM     26  C   LIG    1      -39.318  84.240  21.517  0.00  0.00    +0.223 A 
ATOM     27  N   LIG    1      -40.247  83.297  21.275  0.00  0.00    -0.243 NA
ATOM     28  C   LIG    1      -40.485  82.379  22.243  0.00  0.00    +0.124 A 
ATOM     29  C   LIG    1      -39.775  82.438  23.443  0.00  0.00    +0.048 A 
ATOM     30  C   LIG    1      -39.753  81.700  24.670  0.00  0.00    +0.051 A 
ATOM     31  C   LIG    1      -38.780  82.307  25.462  0.00  0.00    +0.100 A 
BRANCH  23  33
ATOM     32  C   LIG    1      -37.395  85.413  25.829  0.00  0.00    +0.030 C 
ATOM     33  C   LIG    1      -37.011  84.071  25.197  0.00  0.00    +0.083 C 
ATOM     34  C   LIG    1      -36.113  83.279  26.146  0.00  0.00    +0.030 C 
ENDBRANCH  23  33
ENDBRANCH  21  30
ENDBRANCH   1  21
TORSDOF 7
ENDMDL
MODEL 8
REMARK VINA RESULT:      -5.8     18.572     21.562
REMARK  Name = pdb/CHEMBL3661491.pdb
REMARK                            x       y       z     vdW  Elec       q    Type
REMARK                         _______ _______ _______ _____ _____    ______ ____
ROOT
ATOM      1  C   LIG    1      -20.208  81.113  15.270  0.00  0.00    +0.042 A 
ATOM      2  C   LIG    1      -20.057  82.373  14.660  0.00  0.00    +0.038 A 
ATOM      3  C   LIG    1      -18.863  82.689  14.002  0.00  0.00    +0.052 A 
ATOM      4  C   LIG    1      -17.865  81.712  14.010  0.00  0.00    +0.134 A 
ATOM      5  N   LIG    1      -17.962  80.509  14.623  0.00  0.00    -0.261 NA
ATOM      6  C   LIG    1      -19.122  80.246  15.253  0.00  0.00    +0.122 A 
ENDROOT
BRANCH   3   7
ATOM      7  N   LIG    1      -18.726  83.946  13.353  0.00  0.00    -0.283 N 
ATOM      8  H   LIG    1      -18.167  84.648  13.830  0.00  0.00    +0.155 HD
ATOM      9  C   LIG    1      -19.283  84.267  12.121  0.00  0.00    +0.239 C 
ATOM     10  O   LIG    1      -19.910  83.488  11.403  0.00  0.00    -0.273 OA
BRANCH   9  11
ATOM     11  C   LIG    1      -19.084  85.688  11.658  0.00  0.00    +0.239 C 
BRANCH  11  12
ATOM     12  N   LIG    1      -19.687  86.666  12.545  0.00  0.00    -0.262 N 
ATOM     13  N   LIG    1      -20.532  86.231  13.502  0.00  0.00    -0.167 NA
ATOM     14  C   LIG    1      -21.025  87.358  14.060  0.00  0.00    +0.165 A 
ATOM     15  C   LIG    1      -20.435  88.507  13.467  0.00  0.00    +0.053 A 
ATOM     16  C   LIG    1      -19.590  88.025  12.498  0.00  0.00    +0.109 A 
BRANCH  14  17
ATOM     17  C   LIG    1      -22.061  87.346  15.155  0.00  0.00    +0.436 C 
ATOM     18  F   LIG    1      -21.504  87.359  16.395  0.00  0.00    -0.164 F 
ATOM     19  F   LIG    1      -22.871  86.256  15.093  0.00  0.00    -0.164 F 
ATOM     20  F   LIG    1      -22.879  88.434  15.092  0.00  0.00    -0.164 F 
ENDBRANCH  14  17
ENDBRANCH  11  12
ENDBRANCH   9  11
ENDBRANCH   3   7
BRANCH   1  21
ATOM     21  C   LIG    1      -21.479  80.725  15.932  0.00  0.00    +0.197 C 
ATOM     22  O   LIG    1      -21.930  81.457  16.819  0.00  0.00    -0.287 OA
BRANCH  21  30
ATOM     23  N   LIG    1      -22.546  77.359  14.925  0.00  0.00    -0.329 N 
ATOM     24  C   LIG    1      -23.754  78.007  14.852  0.00  0.00    +0.145 A 
ATOM     25  N   LIG    1      -24.918  77.449  14.475  0.00  0.00    -0.218 NA
ATOM     26  C   LIG    1      -25.937  78.318  14.534  0.00  0.00    +0.223 A 
ATOM     27  N   LIG    1      -25.906  79.601  14.940  0.00  0.00    -0.243 NA
ATOM     28  C   LIG    1      -24.710  80.120  15.307  0.00  0.00    +0.124 A 
ATOM     29  C   LIG    1      -23.563  79.326  15.250  0.00  0.00    +0.048 A 
ATOM     30  C   LIG    1      -22.167  79.503  15.516  0.00  0.00    +0.051 A 
ATOM     31  C   LIG    1      -21.570  78.271  15.249  0.00  0.00    +0.100 A 
BRANCH  23  33
ATOM     32  C   LIG    1      -20.918  75.634  14.145  0.00  0.00    +0.030 C 
ATOM     33  C   LIG    1      -22.310  75.931  14.711  0.00  0.00    +0.083 C 
ATOM     34  C   LIG    1      -22.557  75.095  15.966  0.00  0.00    +0.030 C 
ENDBRANCH  23  33
ENDBRANCH  21  30
ENDBRANCH   1  21
TORSDOF 7
ENDMDL
MODEL 9
REMARK VINA RESULT:      -5.8     13.516     17.745
REMARK  Name = pdb/CHEMBL3661491.pdb
REMARK                            x       y       z     vdW  Elec       q    Type
REMARK                         _______ _______ _______ _____ _____    ______ ____
ROOT
ATOM      1  C   LIG    1      -21.176  77.046  30.619  0.00  0.00    +0.042 A 
ATOM      2  C   LIG    1      -20.967  77.537  31.922  0.00  0.00    +0.038 A 
ATOM      3  C   LIG    1      -19.665  77.647  32.423  0.00  0.00    +0.052 A 
ATOM      4  C   LIG    1      -18.631  77.234  31.580  0.00  0.00    +0.134 A 
ATOM      5  N   LIG    1      -18.801  76.718  30.339  0.00  0.00    -0.261 NA
ATOM      6  C   LIG    1      -20.068  76.619  29.897  0.00  0.00    +0.122 A 
ENDROOT
BRANCH   3   7
ATOM      7  N   LIG    1      -19.452  78.179  33.724  0.00  0.00    -0.283 N 
ATOM      8  H   LIG    1      -19.323  79.184  33.792  0.00  0.00    +0.155 HD
ATOM      9  C   LIG    1      -19.427  77.427  34.893  0.00  0.00    +0.239 C 
ATOM     10  O   LIG    1      -19.649  76.218  34.961  0.00  0.00    -0.273 OA
BRANCH   9  11
ATOM     11  C   LIG    1      -19.100  78.183  36.155  0.00  0.00    +0.239 C 
BRANCH  11  12
ATOM     12  N   LIG    1      -19.927  79.360  36.345  0.00  0.00    -0.262 N 
ATOM     13  N   LIG    1      -21.163  79.371  35.805  0.00  0.00    -0.167 NA
ATOM     14  C   LIG    1      -21.622  80.622  36.028  0.00  0.00    +0.165 A 
ATOM     15  C   LIG    1      -20.668  81.379  36.760  0.00  0.00    +0.053 A 
ATOM     16  C   LIG    1      -19.595  80.541  36.939  0.00  0.00    +0.109 A 
BRANCH  14  17
ATOM     17  C   LIG    1      -22.965  81.102  35.540  0.00  0.00    +0.436 C 
ATOM     18  F   LIG    1      -23.970  80.788  36.400  0.00  0.00    -0.164 F 
ATOM     19  F   LIG    1      -23.297  80.578  34.330  0.00  0.00    -0.164 F 
ATOM     20  F   LIG    1      -22.997  82.456  35.393  0.00  0.00    -0.164 F 
ENDBRANCH  14  17
ENDBRANCH  11  12
ENDBRANCH   9  11
ENDBRANCH   3   7
BRANCH   1  21
ATOM     21  C   LIG    1      -22.540  76.964  30.037  0.00  0.00    +0.197 C 
ATOM     22  O   LIG    1      -22.806  77.667  29.056  0.00  0.00    -0.287 OA
BRANCH  21  30
ATOM     23  N   LIG    1      -24.493  74.180  31.421  0.00  0.00    -0.329 N 
ATOM     24  C   LIG    1      -25.425  75.183  31.531  0.00  0.00    +0.145 A 
ATOM     25  N   LIG    1      -26.674  75.039  32.005  0.00  0.00    -0.218 NA
ATOM     26  C   LIG    1      -27.344  76.200  32.025  0.00  0.00    +0.223 A 
ATOM     27  N   LIG    1      -26.896  77.418  31.668  0.00  0.00    -0.243 NA
ATOM     28  C   LIG    1      -25.631  77.512  31.192  0.00  0.00    +0.124 A 
ATOM     29  C   LIG    1      -24.844  76.364  31.084  0.00  0.00    +0.048 A 
ATOM     30  C   LIG    1      -23.524  76.055  30.625  0.00  0.00    +0.051 A 
ATOM     31  C   LIG    1      -23.371  74.680  30.804  0.00  0.00    +0.100 A 
BRANCH  23  33
ATOM     32  C   LIG    1      -24.899  72.706  33.395  0.00  0.00    +0.030 C 
ATOM     33  C   LIG    1      -24.639  72.801  31.888  0.00  0.00    +0.083 C 
ATOM     34  C   LIG    1      -25.707  72.025  31.120  0.00  0.00    +0.030 C 
ENDBRANCH  23  33
ENDBRANCH  21  30
ENDBRANCH   1  21
TORSDOF 7
ENDMDL
