MODEL 1
REMARK VINA RESULT:      -5.5      0.000      0.000
REMARK  Name = pdb/CHEMBL3676041.pdb
REMARK                            x       y       z     vdW  Elec       q    Type
REMARK                         _______ _______ _______ _____ _____    ______ ____
ROOT
ATOM      1  C   LIG    1      -20.602  77.151  30.528  0.00  0.00    +0.100 A 
ATOM      2  C   LIG    1      -20.284  77.773  31.729  0.00  0.00    +0.170 A 
ATOM      3  N   LIG    1      -21.046  78.379  32.698  0.00  0.00    -0.212 NA
ATOM      4  C   LIG    1      -20.428  78.990  33.688  0.00  0.00    +0.126 A 
ATOM      5  C   LIG    1      -18.920  78.986  33.805  0.00  0.00    +0.063 A 
ATOM      6  C   LIG    1      -18.227  78.353  32.855  0.00  0.00    +0.118 A 
ATOM      7  N   LIG    1      -18.888  77.739  31.808  0.00  0.00    -0.221 N 
ATOM      8  N   LIG    1      -18.325  77.064  30.780  0.00  0.00    -0.173 NA
ATOM      9  C   LIG    1      -19.358  76.730  30.012  0.00  0.00    +0.150 A 
ENDROOT
BRANCH   4  10
ATOM     10  N   LIG    1      -21.160  79.648  34.667  0.00  0.00    -0.308 N 
ATOM     11  C   LIG    1      -22.632  79.699  34.679  0.00  0.00    +0.108 C 
ATOM     12  C   LIG    1      -22.952  80.997  35.443  0.00  0.00    +0.029 C 
ATOM     13  C   LIG    1      -21.764  81.178  36.372  0.00  0.00    +0.021 C 
ATOM     14  C   LIG    1      -20.598  80.686  35.530  0.00  0.00    +0.107 C 
BRANCH  11  15
ATOM     15  C   LIG    1      -23.227  78.476  35.355  0.00  0.00    +0.011 A 
ATOM     16  C   LIG    1      -24.558  78.125  35.095  0.00  0.00    +0.129 A 
ATOM     17  F   LIG    1      -25.295  78.874  34.261  0.00  0.00    -0.205 F 
ATOM     18  C   LIG    1      -25.153  77.009  35.684  0.00  0.00    +0.041 A 
ATOM     19  C   LIG    1      -24.417  76.218  36.564  0.00  0.00    +0.041 A 
ATOM     20  C   LIG    1      -23.101  76.563  36.845  0.00  0.00    +0.124 A 
ATOM     21  F   LIG    1      -22.391  75.812  37.698  0.00  0.00    -0.205 F 
ATOM     22  C   LIG    1      -22.506  77.676  36.257  0.00  0.00    +0.046 A 
ENDBRANCH  11  15
ENDBRANCH   4  10
BRANCH   1  25
ATOM     23  N   LIG    1      -22.958  77.514  30.536  0.00  0.00    -0.309 N 
ATOM     24  H   LIG    1      -22.783  78.004  31.411  0.00  0.00    +0.149 HD
ATOM     25  C   LIG    1      -21.887  76.953  29.894  0.00  0.00    +0.249 C 
ATOM     26  O   LIG    1      -21.998  76.284  28.862  0.00  0.00    -0.270 OA
BRANCH  23  27
ATOM     27  C   LIG    1      -24.322  77.290  30.097  0.00  0.00    +0.132 C 
BRANCH  27  28
ATOM     28  C   LIG    1      -25.348  77.274  31.243  0.00  0.00    +0.178 C 
BRANCH  28  30
ATOM     29  C   LIG    1      -27.470  76.448  31.982  0.00  0.00    +0.194 C 
ATOM     30  O   LIG    1      -26.623  76.731  30.878  0.00  0.00    -0.381 OA
ENDBRANCH  28  30
ENDBRANCH  27  28
ENDBRANCH  23  27
ENDBRANCH   1  25
TORSDOF 6
ENDMDL
MODEL 2
REMARK VINA RESULT:      -5.4      2.023      3.223
REMARK  Name = pdb/CHEMBL3676041.pdb
REMARK                            x       y       z     vdW  Elec       q    Type
REMARK                         _______ _______ _______ _____ _____    ______ ____
ROOT
ATOM      1  C   LIG    1      -22.818  76.733  30.665  0.00  0.00    +0.100 A 
ATOM      2  C   LIG    1      -21.739  77.077  31.469  0.00  0.00    +0.170 A 
ATOM      3  N   LIG    1      -21.618  77.327  32.815  0.00  0.00    -0.212 NA
ATOM      4  C   LIG    1      -20.457  77.751  33.270  0.00  0.00    +0.126 A 
ATOM      5  C   LIG    1      -19.258  77.909  32.361  0.00  0.00    +0.063 A 
ATOM      6  C   LIG    1      -19.419  77.621  31.067  0.00  0.00    +0.118 A 
ATOM      7  N   LIG    1      -20.650  77.202  30.599  0.00  0.00    -0.221 N 
ATOM      8  N   LIG    1      -20.963  76.876  29.324  0.00  0.00    -0.173 NA
ATOM      9  C   LIG    1      -22.267  76.611  29.372  0.00  0.00    +0.150 A 
ENDROOT
BRANCH   4  10
ATOM     10  N   LIG    1      -20.303  78.051  34.617  0.00  0.00    -0.308 N 
ATOM     11  C   LIG    1      -20.206  79.427  35.133  0.00  0.00    +0.108 C 
ATOM     12  C   LIG    1      -19.401  79.277  36.437  0.00  0.00    +0.029 C 
ATOM     13  C   LIG    1      -19.722  77.868  36.906  0.00  0.00    +0.021 C 
ATOM     14  C   LIG    1      -19.811  77.090  35.603  0.00  0.00    +0.107 C 
BRANCH  11  15
ATOM     15  C   LIG    1      -21.577  80.032  35.372  0.00  0.00    +0.011 A 
ATOM     16  C   LIG    1      -21.688  81.399  35.654  0.00  0.00    +0.129 A 
ATOM     17  F   LIG    1      -20.584  82.158  35.718  0.00  0.00    -0.205 F 
ATOM     18  C   LIG    1      -22.924  82.008  35.877  0.00  0.00    +0.041 A 
ATOM     19  C   LIG    1      -24.087  81.243  35.829  0.00  0.00    +0.041 A 
ATOM     20  C   LIG    1      -23.994  79.882  35.567  0.00  0.00    +0.124 A 
ATOM     21  F   LIG    1      -25.108  79.140  35.530  0.00  0.00    -0.205 F 
ATOM     22  C   LIG    1      -22.761  79.274  35.344  0.00  0.00    +0.046 A 
ENDBRANCH  11  15
ENDBRANCH   4  10
BRANCH   1  25
ATOM     23  N   LIG    1      -24.444  76.027  32.259  0.00  0.00    -0.309 N 
ATOM     24  H   LIG    1      -23.638  75.806  32.841  0.00  0.00    +0.149 HD
ATOM     25  C   LIG    1      -24.209  76.533  31.009  0.00  0.00    +0.249 C 
ATOM     26  O   LIG    1      -25.112  76.774  30.201  0.00  0.00    -0.270 OA
BRANCH  23  27
ATOM     27  C   LIG    1      -25.774  75.648  32.698  0.00  0.00    +0.132 C 
BRANCH  27  28
ATOM     28  C   LIG    1      -26.555  76.793  33.367  0.00  0.00    +0.178 C 
BRANCH  28  30
ATOM     29  C   LIG    1      -28.442  76.623  31.904  0.00  0.00    +0.194 C 
ATOM     30  O   LIG    1      -27.463  77.470  32.489  0.00  0.00    -0.381 OA
ENDBRANCH  28  30
ENDBRANCH  27  28
ENDBRANCH  23  27
ENDBRANCH   1  25
TORSDOF 6
ENDMDL
MODEL 3
REMARK VINA RESULT:      -5.1     16.713     18.542
REMARK  Name = pdb/CHEMBL3676041.pdb
REMARK                            x       y       z     vdW  Elec       q    Type
REMARK                         _______ _______ _______ _____ _____    ______ ____
ROOT
ATOM      1  C   LIG    1      -23.071  80.431  15.645  0.00  0.00    +0.100 A 
ATOM      2  C   LIG    1      -21.966  79.595  15.543  0.00  0.00    +0.170 A 
ATOM      3  N   LIG    1      -21.770  78.374  14.944  0.00  0.00    -0.212 NA
ATOM      4  C   LIG    1      -20.614  77.769  15.124  0.00  0.00    +0.126 A 
ATOM      5  C   LIG    1      -19.497  78.410  15.918  0.00  0.00    +0.063 A 
ATOM      6  C   LIG    1      -19.727  79.613  16.451  0.00  0.00    +0.118 A 
ATOM      7  N   LIG    1      -20.954  80.224  16.276  0.00  0.00    -0.221 N 
ATOM      8  N   LIG    1      -21.331  81.433  16.753  0.00  0.00    -0.173 NA
ATOM      9  C   LIG    1      -22.605  81.540  16.382  0.00  0.00    +0.150 A 
ENDROOT
BRANCH   4  10
ATOM     10  N   LIG    1      -20.388  76.517  14.567  0.00  0.00    -0.308 N 
ATOM     11  C   LIG    1      -19.506  75.508  15.178  0.00  0.00    +0.108 C 
ATOM     12  C   LIG    1      -19.035  74.657  13.983  0.00  0.00    +0.029 C 
ATOM     13  C   LIG    1      -20.172  74.770  12.982  0.00  0.00    +0.021 C 
ATOM     14  C   LIG    1      -20.638  76.207  13.161  0.00  0.00    +0.107 C 
BRANCH  11  15
ATOM     15  C   LIG    1      -20.241  74.679  16.216  0.00  0.00    +0.011 A 
ATOM     16  C   LIG    1      -19.507  73.968  17.174  0.00  0.00    +0.129 A 
ATOM     17  F   LIG    1      -18.167  74.017  17.160  0.00  0.00    -0.205 F 
ATOM     18  C   LIG    1      -20.132  73.195  18.154  0.00  0.00    +0.041 A 
ATOM     19  C   LIG    1      -21.522  73.114  18.187  0.00  0.00    +0.041 A 
ATOM     20  C   LIG    1      -22.264  73.800  17.234  0.00  0.00    +0.124 A 
ATOM     21  F   LIG    1      -23.600  73.718  17.254  0.00  0.00    -0.205 F 
ATOM     22  C   LIG    1      -21.642  74.572  16.255  0.00  0.00    +0.046 A 
ENDBRANCH  11  15
ENDBRANCH   4  10
BRANCH   1  25
ATOM     23  N   LIG    1      -24.929  78.997  15.231  0.00  0.00    -0.309 N 
ATOM     24  H   LIG    1      -24.332  78.269  15.619  0.00  0.00    +0.149 HD
ATOM     25  C   LIG    1      -24.416  80.262  15.139  0.00  0.00    +0.249 C 
ATOM     26  O   LIG    1      -25.033  81.201  14.626  0.00  0.00    -0.270 OA
BRANCH  23  27
ATOM     27  C   LIG    1      -26.210  78.641  14.648  0.00  0.00    +0.132 C 
BRANCH  27  28
ATOM     28  C   LIG    1      -26.116  78.159  13.190  0.00  0.00    +0.178 C 
BRANCH  28  30
ATOM     29  C   LIG    1      -28.405  77.997  12.510  0.00  0.00    +0.194 C 
ATOM     30  O   LIG    1      -27.158  78.657  12.343  0.00  0.00    -0.381 OA
ENDBRANCH  28  30
ENDBRANCH  27  28
ENDBRANCH  23  27
ENDBRANCH   1  25
TORSDOF 6
ENDMDL
MODEL 4
REMARK VINA RESULT:      -5.0     16.777     19.395
REMARK  Name = pdb/CHEMBL3676041.pdb
REMARK                            x       y       z     vdW  Elec       q    Type
REMARK                         _______ _______ _______ _____ _____    ______ ____
ROOT
ATOM      1  C   LIG    1      -29.975  70.676  17.298  0.00  0.00    +0.100 A 
ATOM      2  C   LIG    1      -28.593  70.807  17.341  0.00  0.00    +0.170 A 
ATOM      3  N   LIG    1      -27.671  71.287  16.442  0.00  0.00    -0.212 NA
ATOM      4  C   LIG    1      -26.392  71.171  16.737  0.00  0.00    +0.126 A 
ATOM      5  C   LIG    1      -25.931  70.580  18.051  0.00  0.00    +0.063 A 
ATOM      6  C   LIG    1      -26.868  70.160  18.904  0.00  0.00    +0.118 A 
ATOM      7  N   LIG    1      -28.206  70.264  18.571  0.00  0.00    -0.221 N 
ATOM      8  N   LIG    1      -29.260  69.884  19.327  0.00  0.00    -0.173 NA
ATOM      9  C   LIG    1      -30.314  70.121  18.550  0.00  0.00    +0.150 A 
ENDROOT
BRANCH   4  10
ATOM     10  N   LIG    1      -25.427  71.608  15.839  0.00  0.00    -0.308 N 
ATOM     11  C   LIG    1      -24.526  72.742  16.110  0.00  0.00    +0.108 C 
ATOM     12  C   LIG    1      -24.167  73.270  14.709  0.00  0.00    +0.029 C 
ATOM     13  C   LIG    1      -24.278  72.047  13.815  0.00  0.00    +0.021 C 
ATOM     14  C   LIG    1      -25.460  71.300  14.411  0.00  0.00    +0.107 C 
BRANCH  11  15
ATOM     15  C   LIG    1      -23.299  72.306  16.889  0.00  0.00    +0.011 A 
ATOM     16  C   LIG    1      -22.718  73.188  17.810  0.00  0.00    +0.129 A 
ATOM     17  F   LIG    1      -23.244  74.408  17.987  0.00  0.00    -0.205 F 
ATOM     18  C   LIG    1      -21.593  72.836  18.556  0.00  0.00    +0.041 A 
ATOM     19  C   LIG    1      -21.017  71.579  18.385  0.00  0.00    +0.041 A 
ATOM     20  C   LIG    1      -21.571  70.699  17.465  0.00  0.00    +0.124 A 
ATOM     21  F   LIG    1      -21.015  69.493  17.289  0.00  0.00    -0.205 F 
ATOM     22  C   LIG    1      -22.694  71.048  16.720  0.00  0.00    +0.046 A 
ENDBRANCH  11  15
ENDBRANCH   4  10
BRANCH   1  25
ATOM     23  N   LIG    1      -30.547  70.613  14.985  0.00  0.00    -0.309 N 
ATOM     24  H   LIG    1      -29.651  70.143  14.874  0.00  0.00    +0.149 HD
ATOM     25  C   LIG    1      -30.909  71.008  16.245  0.00  0.00    +0.249 C 
ATOM     26  O   LIG    1      -31.944  71.642  16.478  0.00  0.00    -0.270 OA
BRANCH  23  27
ATOM     27  C   LIG    1      -31.313  70.989  13.811  0.00  0.00    +0.132 C 
BRANCH  27  28
ATOM     28  C   LIG    1      -30.626  72.053  12.936  0.00  0.00    +0.178 C 
BRANCH  28  30
ATOM     29  C   LIG    1      -30.802  74.217  11.928  0.00  0.00    +0.194 C 
ATOM     30  O   LIG    1      -31.478  73.146  12.572  0.00  0.00    -0.381 OA
ENDBRANCH  28  30
ENDBRANCH  27  28
ENDBRANCH  23  27
ENDBRANCH   1  25
TORSDOF 6
ENDMDL
MODEL 5
REMARK VINA RESULT:      -5.0     14.669     19.560
REMARK  Name = pdb/CHEMBL3676041.pdb
REMARK                            x       y       z     vdW  Elec       q    Type
REMARK                         _______ _______ _______ _____ _____    ______ ____
ROOT
ATOM      1  C   LIG    1      -38.019  76.261  25.734  0.00  0.00    +0.100 A 
ATOM      2  C   LIG    1      -38.410  74.974  25.384  0.00  0.00    +0.170 A 
ATOM      3  N   LIG    1      -37.878  73.734  25.639  0.00  0.00    -0.212 NA
ATOM      4  C   LIG    1      -38.428  72.686  25.060  0.00  0.00    +0.126 A 
ATOM      5  C   LIG    1      -39.651  72.818  24.179  0.00  0.00    +0.063 A 
ATOM      6  C   LIG    1      -40.150  74.043  23.990  0.00  0.00    +0.118 A 
ATOM      7  N   LIG    1      -39.546  75.135  24.583  0.00  0.00    -0.221 N 
ATOM      8  N   LIG    1      -39.934  76.427  24.484  0.00  0.00    -0.173 NA
ATOM      9  C   LIG    1      -39.005  77.094  25.164  0.00  0.00    +0.150 A 
ENDROOT
BRANCH   4  10
ATOM     10  N   LIG    1      -37.899  71.419  25.262  0.00  0.00    -0.308 N 
ATOM     11  C   LIG    1      -38.698  70.185  25.176  0.00  0.00    +0.108 C 
ATOM     12  C   LIG    1      -37.949  69.195  26.088  0.00  0.00    +0.029 C 
ATOM     13  C   LIG    1      -36.505  69.664  26.030  0.00  0.00    +0.021 C 
ATOM     14  C   LIG    1      -36.643  71.177  25.972  0.00  0.00    +0.107 C 
BRANCH  11  15
ATOM     15  C   LIG    1      -38.799  69.683  23.747  0.00  0.00    +0.011 A 
ATOM     16  C   LIG    1      -40.062  69.495  23.171  0.00  0.00    +0.129 A 
ATOM     17  F   LIG    1      -41.167  69.750  23.887  0.00  0.00    -0.205 F 
ATOM     18  C   LIG    1      -40.212  69.042  21.859  0.00  0.00    +0.041 A 
ATOM     19  C   LIG    1      -39.083  68.757  21.095  0.00  0.00    +0.041 A 
ATOM     20  C   LIG    1      -37.824  68.923  21.657  0.00  0.00    +0.124 A 
ATOM     21  F   LIG    1      -36.735  68.641  20.929  0.00  0.00    -0.205 F 
ATOM     22  C   LIG    1      -37.673  69.376  22.965  0.00  0.00    +0.046 A 
ENDBRANCH  11  15
ENDBRANCH   4  10
BRANCH   1  25
ATOM     23  N   LIG    1      -35.972  75.742  26.839  0.00  0.00    -0.309 N 
ATOM     24  H   LIG    1      -36.173  74.784  26.557  0.00  0.00    +0.149 HD
ATOM     25  C   LIG    1      -36.877  76.711  26.499  0.00  0.00    +0.249 C 
ATOM     26  O   LIG    1      -36.760  77.890  26.847  0.00  0.00    -0.270 OA
BRANCH  23  27
ATOM     27  C   LIG    1      -34.847  76.012  27.715  0.00  0.00    +0.132 C 
BRANCH  27  28
ATOM     28  C   LIG    1      -33.576  76.460  26.973  0.00  0.00    +0.178 C 
BRANCH  28  30
ATOM     29  C   LIG    1      -32.994  78.597  27.881  0.00  0.00    +0.194 C 
ATOM     30  O   LIG    1      -33.492  77.875  26.764  0.00  0.00    -0.381 OA
ENDBRANCH  28  30
ENDBRANCH  27  28
ENDBRANCH  23  27
ENDBRANCH   1  25
TORSDOF 6
ENDMDL
MODEL 6
REMARK VINA RESULT:      -5.0     18.335     21.040
REMARK  Name = pdb/CHEMBL3676041.pdb
REMARK                            x       y       z     vdW  Elec       q    Type
REMARK                         _______ _______ _______ _____ _____    ______ ____
ROOT
ATOM      1  C   LIG    1      -18.100  85.492  12.576  0.00  0.00    +0.100 A 
ATOM      2  C   LIG    1      -18.625  84.266  12.967  0.00  0.00    +0.170 A 
ATOM      3  N   LIG    1      -19.662  83.916  13.798  0.00  0.00    -0.212 NA
ATOM      4  C   LIG    1      -19.845  82.639  14.064  0.00  0.00    +0.126 A 
ATOM      5  C   LIG    1      -18.983  81.566  13.436  0.00  0.00    +0.063 A 
ATOM      6  C   LIG    1      -18.010  81.958  12.609  0.00  0.00    +0.118 A 
ATOM      7  N   LIG    1      -17.814  83.303  12.360  0.00  0.00    -0.221 N 
ATOM      8  N   LIG    1      -16.875  83.847  11.552  0.00  0.00    -0.173 NA
ATOM      9  C   LIG    1      -17.046  85.158  11.700  0.00  0.00    +0.150 A 
ENDROOT
BRANCH   4  10
ATOM     10  N   LIG    1      -20.858  82.245  14.928  0.00  0.00    -0.308 N 
ATOM     11  C   LIG    1      -22.064  83.052  15.181  0.00  0.00    +0.108 C 
ATOM     12  C   LIG    1      -22.505  82.624  16.593  0.00  0.00    +0.029 C 
ATOM     13  C   LIG    1      -22.001  81.196  16.719  0.00  0.00    +0.021 C 
ATOM     14  C   LIG    1      -20.676  81.240  15.974  0.00  0.00    +0.107 C 
BRANCH  11  15
ATOM     15  C   LIG    1      -23.139  82.790  14.142  0.00  0.00    +0.011 A 
ATOM     16  C   LIG    1      -23.262  83.653  13.046  0.00  0.00    +0.129 A 
ATOM     17  F   LIG    1      -22.438  84.704  12.929  0.00  0.00    -0.205 F 
ATOM     18  C   LIG    1      -24.228  83.455  12.058  0.00  0.00    +0.041 A 
ATOM     19  C   LIG    1      -25.107  82.378  12.158  0.00  0.00    +0.041 A 
ATOM     20  C   LIG    1      -25.009  81.523  13.248  0.00  0.00    +0.124 A 
ATOM     21  F   LIG    1      -25.857  80.492  13.354  0.00  0.00    -0.205 F 
ATOM     22  C   LIG    1      -24.044  81.718  14.233  0.00  0.00    +0.046 A 
ENDBRANCH  11  15
ENDBRANCH   4  10
BRANCH   1  25
ATOM     23  N   LIG    1      -19.671  86.937  13.637  0.00  0.00    -0.309 N 
ATOM     24  H   LIG    1      -20.191  86.081  13.820  0.00  0.00    +0.149 HD
ATOM     25  C   LIG    1      -18.494  86.834  12.946  0.00  0.00    +0.249 C 
ATOM     26  O   LIG    1      -17.819  87.815  12.618  0.00  0.00    -0.270 OA
BRANCH  23  27
ATOM     27  C   LIG    1      -20.263  88.222  13.962  0.00  0.00    +0.132 C 
BRANCH  27  28
ATOM     28  C   LIG    1      -21.797  88.243  13.854  0.00  0.00    +0.178 C 
BRANCH  28  30
ATOM     29  C   LIG    1      -22.127  86.719  15.670  0.00  0.00    +0.194 C 
ATOM     30  O   LIG    1      -22.473  87.967  15.087  0.00  0.00    -0.381 OA
ENDBRANCH  28  30
ENDBRANCH  27  28
ENDBRANCH  23  27
ENDBRANCH   1  25
TORSDOF 6
ENDMDL
MODEL 7
REMARK VINA RESULT:      -4.9      2.241      5.366
REMARK  Name = pdb/CHEMBL3676041.pdb
REMARK                            x       y       z     vdW  Elec       q    Type
REMARK                         _______ _______ _______ _____ _____    ______ ____
ROOT
ATOM      1  C   LIG    1      -23.545  77.301  30.837  0.00  0.00    +0.100 A 
ATOM      2  C   LIG    1      -23.933  77.480  32.159  0.00  0.00    +0.170 A 
ATOM      3  N   LIG    1      -23.229  77.584  33.335  0.00  0.00    -0.212 NA
ATOM      4  C   LIG    1      -23.903  77.636  34.465  0.00  0.00    +0.126 A 
ATOM      5  C   LIG    1      -25.416  77.642  34.486  0.00  0.00    +0.063 A 
ATOM      6  C   LIG    1      -26.053  77.574  33.314  0.00  0.00    +0.118 A 
ATOM      7  N   LIG    1      -25.332  77.493  32.138  0.00  0.00    -0.221 N 
ATOM      8  N   LIG    1      -25.834  77.418  30.884  0.00  0.00    -0.173 NA
ATOM      9  C   LIG    1      -24.756  77.289  30.114  0.00  0.00    +0.150 A 
ENDROOT
BRANCH   4  10
ATOM     10  N   LIG    1      -23.230  77.703  35.677  0.00  0.00    -0.308 N 
ATOM     11  C   LIG    1      -21.916  78.350  35.837  0.00  0.00    +0.108 C 
ATOM     12  C   LIG    1      -21.292  77.626  37.044  0.00  0.00    +0.029 C 
ATOM     13  C   LIG    1      -22.490  77.184  37.866  0.00  0.00    +0.021 C 
ATOM     14  C   LIG    1      -23.512  76.815  36.803  0.00  0.00    +0.107 C 
BRANCH  11  15
ATOM     15  C   LIG    1      -22.055  79.843  36.074  0.00  0.00    +0.011 A 
ATOM     16  C   LIG    1      -20.917  80.658  36.014  0.00  0.00    +0.129 A 
ATOM     17  F   LIG    1      -19.719  80.114  35.758  0.00  0.00    -0.205 F 
ATOM     18  C   LIG    1      -20.989  82.037  36.218  0.00  0.00    +0.041 A 
ATOM     19  C   LIG    1      -22.218  82.630  36.498  0.00  0.00    +0.041 A 
ATOM     20  C   LIG    1      -23.353  81.834  36.577  0.00  0.00    +0.124 A 
ATOM     21  F   LIG    1      -24.536  82.397  36.856  0.00  0.00    -0.205 F 
ATOM     22  C   LIG    1      -23.283  80.458  36.373  0.00  0.00    +0.046 A 
ENDBRANCH  11  15
ENDBRANCH   4  10
BRANCH   1  25
ATOM     23  N   LIG    1      -21.184  77.532  31.072  0.00  0.00    -0.309 N 
ATOM     24  H   LIG    1      -21.408  77.911  31.990  0.00  0.00    +0.149 HD
ATOM     25  C   LIG    1      -22.224  77.150  30.267  0.00  0.00    +0.249 C 
ATOM     26  O   LIG    1      -22.064  76.737  29.114  0.00  0.00    -0.270 OA
BRANCH  23  27
ATOM     27  C   LIG    1      -19.814  77.565  30.595  0.00  0.00    +0.132 C 
BRANCH  27  28
ATOM     28  C   LIG    1      -18.776  77.167  31.659  0.00  0.00    +0.178 C 
BRANCH  28  30
ATOM     29  C   LIG    1      -17.133  78.707  32.469  0.00  0.00    +0.194 C 
ATOM     30  O   LIG    1      -18.460  78.213  32.585  0.00  0.00    -0.381 OA
ENDBRANCH  28  30
ENDBRANCH  27  28
ENDBRANCH  23  27
ENDBRANCH   1  25
TORSDOF 6
ENDMDL
MODEL 8
REMARK VINA RESULT:      -4.9     16.281     20.175
REMARK  Name = pdb/CHEMBL3676041.pdb
REMARK                            x       y       z     vdW  Elec       q    Type
REMARK                         _______ _______ _______ _____ _____    ______ ____
ROOT
ATOM      1  C   LIG    1      -38.003  69.207  22.963  0.00  0.00    +0.100 A 
ATOM      2  C   LIG    1      -38.864  70.221  23.363  0.00  0.00    +0.170 A 
ATOM      3  N   LIG    1      -38.793  71.172  24.352  0.00  0.00    -0.212 NA
ATOM      4  C   LIG    1      -39.844  71.938  24.560  0.00  0.00    +0.126 A 
ATOM      5  C   LIG    1      -41.086  71.830  23.703  0.00  0.00    +0.063 A 
ATOM      6  C   LIG    1      -41.091  70.912  22.732  0.00  0.00    +0.118 A 
ATOM      7  N   LIG    1      -39.991  70.098  22.543  0.00  0.00    -0.221 N 
ATOM      8  N   LIG    1      -39.851  69.130  21.608  0.00  0.00    -0.173 NA
ATOM      9  C   LIG    1      -38.664  68.593  21.878  0.00  0.00    +0.150 A 
ENDROOT
BRANCH   4  10
ATOM     10  N   LIG    1      -39.827  72.885  25.574  0.00  0.00    -0.308 N 
ATOM     11  C   LIG    1      -38.824  73.960  25.660  0.00  0.00    +0.108 C 
ATOM     12  C   LIG    1      -38.759  74.286  27.164  0.00  0.00    +0.029 C 
ATOM     13  C   LIG    1      -40.143  73.929  27.677  0.00  0.00    +0.021 C 
ATOM     14  C   LIG    1      -40.500  72.699  26.859  0.00  0.00    +0.107 C 
BRANCH  11  15
ATOM     15  C   LIG    1      -39.226  75.166  24.831  0.00  0.00    +0.011 A 
ATOM     16  C   LIG    1      -38.307  76.206  24.636  0.00  0.00    +0.129 A 
ATOM     17  F   LIG    1      -37.088  76.130  25.191  0.00  0.00    -0.205 F 
ATOM     18  C   LIG    1      -38.622  77.334  23.878  0.00  0.00    +0.041 A 
ATOM     19  C   LIG    1      -39.884  77.447  23.300  0.00  0.00    +0.041 A 
ATOM     20  C   LIG    1      -40.813  76.432  23.497  0.00  0.00    +0.124 A 
ATOM     21  F   LIG    1      -42.031  76.539  22.952  0.00  0.00    -0.205 F 
ATOM     22  C   LIG    1      -40.499  75.305  24.253  0.00  0.00    +0.046 A 
ENDBRANCH  11  15
ENDBRANCH   4  10
BRANCH   1  25
ATOM     23  N   LIG    1      -36.569  68.947  24.849  0.00  0.00    -0.309 N 
ATOM     24  H   LIG    1      -37.352  69.329  25.377  0.00  0.00    +0.149 HD
ATOM     25  C   LIG    1      -36.717  68.814  23.495  0.00  0.00    +0.249 C 
ATOM     26  O   LIG    1      -35.808  68.422  22.756  0.00  0.00    -0.270 OA
BRANCH  23  27
ATOM     27  C   LIG    1      -35.298  68.721  25.511  0.00  0.00    +0.132 C 
BRANCH  27  28
ATOM     28  C   LIG    1      -34.565  70.015  25.906  0.00  0.00    +0.178 C 
BRANCH  28  30
ATOM     29  C   LIG    1      -34.499  71.712  27.593  0.00  0.00    +0.194 C 
ATOM     30  O   LIG    1      -34.648  70.329  27.301  0.00  0.00    -0.381 OA
ENDBRANCH  28  30
ENDBRANCH  27  28
ENDBRANCH  23  27
ENDBRANCH   1  25
TORSDOF 6
ENDMDL
MODEL 9
REMARK VINA RESULT:      -4.8     13.685     18.613
REMARK  Name = pdb/CHEMBL3676041.pdb
REMARK                            x       y       z     vdW  Elec       q    Type
REMARK                         _______ _______ _______ _____ _____    ______ ____
ROOT
ATOM      1  C   LIG    1      -37.257  77.914  29.317  0.00  0.00    +0.100 A 
ATOM      2  C   LIG    1      -38.449  77.613  28.669  0.00  0.00    +0.170 A 
ATOM      3  N   LIG    1      -38.785  77.478  27.343  0.00  0.00    -0.212 NA
ATOM      4  C   LIG    1      -40.053  77.297  27.035  0.00  0.00    +0.126 A 
ATOM      5  C   LIG    1      -41.120  77.179  28.101  0.00  0.00    +0.063 A 
ATOM      6  C   LIG    1      -40.736  77.282  29.377  0.00  0.00    +0.118 A 
ATOM      7  N   LIG    1      -39.406  77.499  29.684  0.00  0.00    -0.221 N 
ATOM      8  N   LIG    1      -38.871  77.625  30.920  0.00  0.00    -0.173 NA
ATOM      9  C   LIG    1      -37.587  77.888  30.688  0.00  0.00    +0.150 A 
ENDROOT
BRANCH   4  10
ATOM     10  N   LIG    1      -40.439  77.194  25.706  0.00  0.00    -0.308 N 
ATOM     11  C   LIG    1      -39.524  76.781  24.628  0.00  0.00    +0.108 C 
ATOM     12  C   LIG    1      -40.117  77.441  23.368  0.00  0.00    +0.029 C 
ATOM     13  C   LIG    1      -41.601  77.545  23.672  0.00  0.00    +0.021 C 
ATOM     14  C   LIG    1      -41.621  77.859  25.159  0.00  0.00    +0.107 C 
BRANCH  11  15
ATOM     15  C   LIG    1      -39.455  75.270  24.503  0.00  0.00    +0.011 A 
ATOM     16  C   LIG    1      -38.327  74.591  24.982  0.00  0.00    +0.129 A 
ATOM     17  F   LIG    1      -37.319  75.281  25.536  0.00  0.00    -0.205 F 
ATOM     18  C   LIG    1      -38.213  73.202  24.898  0.00  0.00    +0.041 A 
ATOM     19  C   LIG    1      -39.239  72.460  24.317  0.00  0.00    +0.041 A 
ATOM     20  C   LIG    1      -40.357  73.120  23.823  0.00  0.00    +0.124 A 
ATOM     21  F   LIG    1      -41.342  72.413  23.254  0.00  0.00    -0.205 F 
ATOM     22  C   LIG    1      -40.472  74.506  23.906  0.00  0.00    +0.046 A 
ENDBRANCH  11  15
ENDBRANCH   4  10
BRANCH   1  25
ATOM     23  N   LIG    1      -34.967  77.298  29.079  0.00  0.00    -0.309 N 
ATOM     24  H   LIG    1      -35.214  76.514  29.679  0.00  0.00    +0.149 HD
ATOM     25  C   LIG    1      -35.949  78.201  28.772  0.00  0.00    +0.249 C 
ATOM     26  O   LIG    1      -35.739  79.220  28.105  0.00  0.00    -0.270 OA
BRANCH  23  27
ATOM     27  C   LIG    1      -33.579  77.518  28.718  0.00  0.00    +0.132 C 
BRANCH  27  28
ATOM     28  C   LIG    1      -33.191  76.923  27.353  0.00  0.00    +0.178 C 
BRANCH  28  30
ATOM     29  C   LIG    1      -32.388  79.091  26.735  0.00  0.00    +0.194 C 
ATOM     30  O   LIG    1      -33.034  77.898  26.315  0.00  0.00    -0.381 OA
ENDBRANCH  28  30
ENDBRANCH  27  28
ENDBRANCH  23  27
ENDBRANCH   1  25
TORSDOF 6
ENDMDL
