MODEL 1
REMARK VINA RESULT:      -6.5      0.000      0.000
REMARK  Name = pdb/CHEMBL3976264.pdb
REMARK                            x       y       z     vdW  Elec       q    Type
REMARK                         _______ _______ _______ _____ _____    ______ ____
ROOT
ATOM      1  C   LIG    1      -31.769  74.131  29.671  0.00  0.00    +0.149 A 
ATOM      2  N   LIG    1      -31.633  75.401  29.276  0.00  0.00    -0.160 NA
ATOM      3  N   LIG    1      -32.760  75.687  28.573  0.00  0.00    -0.218 N 
ATOM      4  C   LIG    1      -33.546  74.545  28.397  0.00  0.00    +0.129 A 
ATOM      5  C   LIG    1      -32.932  73.559  29.122  0.00  0.00    +0.078 A 
ENDROOT
BRANCH   3   6
ATOM      6  C   LIG    1      -32.977  77.043  28.175  0.00  0.00    +0.067 A 
ATOM      7  C   LIG    1      -33.821  77.912  28.872  0.00  0.00    +0.028 A 
ATOM      8  C   LIG    1      -33.997  79.227  28.428  0.00  0.00    +0.002 A 
ATOM      9  C   LIG    1      -33.306  79.698  27.315  0.00  0.00    +0.000 A 
ATOM     10  C   LIG    1      -32.435  78.856  26.635  0.00  0.00    +0.002 A 
ATOM     11  C   LIG    1      -32.274  77.535  27.057  0.00  0.00    +0.028 A 
ENDBRANCH   3   6
BRANCH   4  12
ATOM     12  N   LIG    1      -34.684  74.349  27.624  0.00  0.00    -0.266 N 
ATOM     13  H   LIG    1      -34.553  73.885  26.736  0.00  0.00    +0.157 HD
ATOM     14  C   LIG    1      -36.024  74.675  28.032  0.00  0.00    +0.251 C 
ATOM     15  O   LIG    1      -36.253  75.272  29.079  0.00  0.00    -0.270 OA
BRANCH  14  16
ATOM     16  C   LIG    1      -37.111  74.372  27.064  0.00  0.00    +0.056 A 
ATOM     17  C   LIG    1      -37.475  73.072  26.719  0.00  0.00    +0.054 A 
ATOM     18 CL   LIG    1      -36.901  71.666  27.546  0.00  0.00    -0.083 Cl
ATOM     19  C   LIG    1      -38.379  72.862  25.682  0.00  0.00    +0.041 A 
ATOM     20  C   LIG    1      -38.999  73.941  25.035  0.00  0.00    +0.052 A 
ATOM     21 CL   LIG    1      -40.094  73.493  23.770  0.00  0.00    -0.083 Cl
ATOM     22  C   LIG    1      -38.756  75.272  25.438  0.00  0.00    +0.022 A 
ATOM     23  C   LIG    1      -37.768  75.455  26.439  0.00  0.00    +0.026 A 
BRANCH  22  24
ATOM     24  C   LIG    1      -39.490  76.446  24.896  0.00  0.00    +0.107 A 
ATOM     25  C   LIG    1      -38.919  77.343  23.986  0.00  0.00    +0.149 A 
ATOM     26  F   LIG    1      -37.667  77.177  23.537  0.00  0.00    -0.203 F 
ATOM     27  C   LIG    1      -39.642  78.445  23.541  0.00  0.00    +0.042 A 
ATOM     28  C   LIG    1      -40.923  78.655  24.031  0.00  0.00    +0.023 A 
ATOM     29  C   LIG    1      -41.432  77.732  24.928  0.00  0.00    +0.111 A 
ATOM     30  N   LIG    1      -40.758  76.631  25.343  0.00  0.00    -0.252 NA
ENDBRANCH  22  24
ENDBRANCH  14  16
ENDBRANCH   4  12
BRANCH   1  32
ATOM     31  N   LIG    1      -30.161  72.429  30.199  0.00  0.00    -0.247 NA
ATOM     32  C   LIG    1      -30.859  73.433  30.567  0.00  0.00    +0.236 C 
BRANCH  32  33
ATOM     33  O   LIG    1      -30.853  73.999  31.788  0.00  0.00    -0.491 OA
ATOM     34  H   LIG    1      -31.552  73.616  32.349  0.00  0.00    +0.294 HD
ENDBRANCH  32  33
BRANCH  31  35
ATOM     35  C   LIG    1      -29.182  71.723  31.026  0.00  0.00    +0.173 C 
BRANCH  35  36
ATOM     36  C   LIG    1      -28.815  70.314  30.550  0.00  0.00    +0.179 C 
BRANCH  36  37
ATOM     37  O   LIG    1      -27.814  70.361  29.530  0.00  0.00    -0.393 OA
ATOM     38  H   LIG    1      -28.170  70.922  28.814  0.00  0.00    +0.209 HD
ENDBRANCH  36  37
ENDBRANCH  35  36
ENDBRANCH  31  35
ENDBRANCH   1  32
TORSDOF 9
ENDMDL
MODEL 2
REMARK VINA RESULT:      -6.3      4.275      7.726
REMARK  Name = pdb/CHEMBL3976264.pdb
REMARK                            x       y       z     vdW  Elec       q    Type
REMARK                         _______ _______ _______ _____ _____    ______ ____
ROOT
ATOM      1  C   LIG    1      -36.677  76.880  26.516  0.00  0.00    +0.149 A 
ATOM      2  N   LIG    1      -37.723  77.588  26.079  0.00  0.00    -0.160 NA
ATOM      3  N   LIG    1      -38.529  76.696  25.446  0.00  0.00    -0.218 N 
ATOM      4  C   LIG    1      -37.917  75.443  25.355  0.00  0.00    +0.129 A 
ATOM      5  C   LIG    1      -36.751  75.549  26.063  0.00  0.00    +0.078 A 
ENDROOT
BRANCH   3   6
ATOM      6  C   LIG    1      -39.822  77.138  25.026  0.00  0.00    +0.067 A 
ATOM      7  C   LIG    1      -40.413  76.730  23.827  0.00  0.00    +0.028 A 
ATOM      8  C   LIG    1      -41.678  77.204  23.469  0.00  0.00    +0.002 A 
ATOM      9  C   LIG    1      -42.383  78.054  24.319  0.00  0.00    +0.000 A 
ATOM     10  C   LIG    1      -41.825  78.437  25.532  0.00  0.00    +0.002 A 
ATOM     11  C   LIG    1      -40.551  77.989  25.883  0.00  0.00    +0.028 A 
ENDBRANCH   3   6
BRANCH   4  12
ATOM     12  N   LIG    1      -38.308  74.300  24.665  0.00  0.00    -0.266 N 
ATOM     13  H   LIG    1      -37.808  74.094  23.812  0.00  0.00    +0.157 HD
ATOM     14  C   LIG    1      -39.298  73.362  25.121  0.00  0.00    +0.251 C 
ATOM     15  O   LIG    1      -39.968  73.568  26.127  0.00  0.00    -0.270 OA
BRANCH  14  16
ATOM     16  C   LIG    1      -39.563  72.191  24.243  0.00  0.00    +0.056 A 
ATOM     17  C   LIG    1      -40.717  72.070  23.472  0.00  0.00    +0.054 A 
ATOM     18 CL   LIG    1      -41.849  73.355  23.236  0.00  0.00    -0.083 Cl
ATOM     19  C   LIG    1      -40.981  70.875  22.810  0.00  0.00    +0.041 A 
ATOM     20  C   LIG    1      -40.060  69.818  22.833  0.00  0.00    +0.052 A 
ATOM     21 CL   LIG    1      -40.553  68.409  21.955  0.00  0.00    -0.083 Cl
ATOM     22  C   LIG    1      -38.819  69.944  23.497  0.00  0.00    +0.022 A 
ATOM     23  C   LIG    1      -38.619  71.141  24.231  0.00  0.00    +0.026 A 
BRANCH  22  24
ATOM     24  C   LIG    1      -37.742  68.921  23.435  0.00  0.00    +0.107 A 
ATOM     25  C   LIG    1      -36.961  68.711  22.293  0.00  0.00    +0.149 A 
ATOM     26  F   LIG    1      -37.138  69.443  21.183  0.00  0.00    -0.203 F 
ATOM     27  C   LIG    1      -35.991  67.714  22.280  0.00  0.00    +0.042 A 
ATOM     28  C   LIG    1      -35.827  66.918  23.406  0.00  0.00    +0.023 A 
ATOM     29  C   LIG    1      -36.629  67.177  24.504  0.00  0.00    +0.111 A 
ATOM     30  N   LIG    1      -37.552  68.169  24.548  0.00  0.00    -0.252 NA
ENDBRANCH  22  24
ENDBRANCH  14  16
ENDBRANCH   4  12
BRANCH   1  32
ATOM     31  N   LIG    1      -34.380  77.314  27.059  0.00  0.00    -0.247 NA
ATOM     32  C   LIG    1      -35.616  77.397  27.368  0.00  0.00    +0.236 C 
BRANCH  32  33
ATOM     33  O   LIG    1      -36.120  77.968  28.477  0.00  0.00    -0.491 OA
ATOM     34  H   LIG    1      -35.658  78.803  28.675  0.00  0.00    +0.294 HD
ENDBRANCH  32  33
BRANCH  31  35
ATOM     35  C   LIG    1      -33.269  77.867  27.834  0.00  0.00    +0.173 C 
BRANCH  35  36
ATOM     36  C   LIG    1      -32.449  78.949  27.125  0.00  0.00    +0.179 C 
BRANCH  36  37
ATOM     37  O   LIG    1      -32.369  78.695  25.721  0.00  0.00    -0.393 OA
ATOM     38  H   LIG    1      -32.038  79.517  25.307  0.00  0.00    +0.209 HD
ENDBRANCH  36  37
ENDBRANCH  35  36
ENDBRANCH  31  35
ENDBRANCH   1  32
TORSDOF 9
ENDMDL
MODEL 3
REMARK VINA RESULT:      -6.2      3.795      9.112
REMARK  Name = pdb/CHEMBL3976264.pdb
REMARK                            x       y       z     vdW  Elec       q    Type
REMARK                         _______ _______ _______ _____ _____    ______ ____
ROOT
ATOM      1  C   LIG    1      -40.878  73.202  23.582  0.00  0.00    +0.149 A 
ATOM      2  N   LIG    1      -41.172  74.493  23.771  0.00  0.00    -0.160 NA
ATOM      3  N   LIG    1      -40.069  75.036  24.350  0.00  0.00    -0.218 N 
ATOM      4  C   LIG    1      -39.128  74.052  24.662  0.00  0.00    +0.129 A 
ATOM      5  C   LIG    1      -39.628  72.887  24.146  0.00  0.00    +0.078 A 
ENDROOT
BRANCH   3   6
ATOM      6  C   LIG    1      -40.026  76.457  24.507  0.00  0.00    +0.067 A 
ATOM      7  C   LIG    1      -39.874  77.335  23.430  0.00  0.00    +0.028 A 
ATOM      8  C   LIG    1      -39.831  78.716  23.649  0.00  0.00    +0.002 A 
ATOM      9  C   LIG    1      -39.980  79.234  24.933  0.00  0.00    +0.000 A 
ATOM     10  C   LIG    1      -40.171  78.374  26.008  0.00  0.00    +0.002 A 
ATOM     11  C   LIG    1      -40.188  76.995  25.800  0.00  0.00    +0.028 A 
ENDBRANCH   3   6
BRANCH   4  12
ATOM     12  N   LIG    1      -37.946  74.138  25.388  0.00  0.00    -0.266 N 
ATOM     13  H   LIG    1      -37.102  74.309  24.859  0.00  0.00    +0.157 HD
ATOM     14  C   LIG    1      -37.854  74.090  26.822  0.00  0.00    +0.251 C 
ATOM     15  O   LIG    1      -38.831  73.850  27.523  0.00  0.00    -0.270 OA
BRANCH  14  16
ATOM     16  C   LIG    1      -36.494  74.216  27.410  0.00  0.00    +0.056 A 
ATOM     17  C   LIG    1      -35.878  73.186  28.117  0.00  0.00    +0.054 A 
ATOM     18 CL   LIG    1      -36.491  71.570  28.183  0.00  0.00    -0.083 Cl
ATOM     19  C   LIG    1      -34.682  73.429  28.786  0.00  0.00    +0.041 A 
ATOM     20  C   LIG    1      -34.039  74.671  28.687  0.00  0.00    +0.052 A 
ATOM     21 CL   LIG    1      -32.562  74.794  29.583  0.00  0.00    -0.083 Cl
ATOM     22  C   LIG    1      -34.562  75.703  27.877  0.00  0.00    +0.022 A 
ATOM     23  C   LIG    1      -35.824  75.452  27.278  0.00  0.00    +0.026 A 
BRANCH  22  24
ATOM     24  C   LIG    1      -33.856  76.984  27.612  0.00  0.00    +0.107 A 
ATOM     25  C   LIG    1      -34.229  78.193  28.209  0.00  0.00    +0.149 A 
ATOM     26  F   LIG    1      -35.250  78.255  29.077  0.00  0.00    -0.203 F 
ATOM     27  C   LIG    1      -33.555  79.368  27.895  0.00  0.00    +0.042 A 
ATOM     28  C   LIG    1      -32.525  79.327  26.964  0.00  0.00    +0.023 A 
ATOM     29  C   LIG    1      -32.203  78.100  26.410  0.00  0.00    +0.111 A 
ATOM     30  N   LIG    1      -32.823  76.939  26.733  0.00  0.00    -0.252 NA
ENDBRANCH  22  24
ENDBRANCH  14  16
ENDBRANCH   4  12
BRANCH   1  32
ATOM     31  N   LIG    1      -42.602  72.609  22.020  0.00  0.00    -0.247 NA
ATOM     32  C   LIG    1      -41.717  72.250  22.868  0.00  0.00    +0.236 C 
BRANCH  32  33
ATOM     33  O   LIG    1      -41.416  70.985  23.212  0.00  0.00    -0.491 OA
ATOM     34  H   LIG    1      -42.205  70.520  23.542  0.00  0.00    +0.294 HD
ENDBRANCH  32  33
BRANCH  31  35
ATOM     35  C   LIG    1      -43.432  71.708  21.221  0.00  0.00    +0.173 C 
BRANCH  35  36
ATOM     36  C   LIG    1      -42.765  71.143  19.963  0.00  0.00    +0.179 C 
BRANCH  36  37
ATOM     37  O   LIG    1      -41.942  70.018  20.280  0.00  0.00    -0.393 OA
ATOM     38  H   LIG    1      -41.752  69.563  19.436  0.00  0.00    +0.209 HD
ENDBRANCH  36  37
ENDBRANCH  35  36
ENDBRANCH  31  35
ENDBRANCH   1  32
TORSDOF 9
ENDMDL
MODEL 4
REMARK VINA RESULT:      -6.1      7.868     10.627
REMARK  Name = pdb/CHEMBL3976264.pdb
REMARK                            x       y       z     vdW  Elec       q    Type
REMARK                         _______ _______ _______ _____ _____    ______ ____
ROOT
ATOM      1  C   LIG    1      -31.377  86.640  31.034  0.00  0.00    +0.149 A 
ATOM      2  N   LIG    1      -32.003  87.543  30.272  0.00  0.00    -0.160 NA
ATOM      3  N   LIG    1      -33.001  86.863  29.649  0.00  0.00    -0.218 N 
ATOM      4  C   LIG    1      -32.914  85.492  29.906  0.00  0.00    +0.129 A 
ATOM      5  C   LIG    1      -31.898  85.352  30.813  0.00  0.00    +0.078 A 
ENDROOT
BRANCH   3   6
ATOM      6  C   LIG    1      -33.959  87.615  28.898  0.00  0.00    +0.067 A 
ATOM      7  C   LIG    1      -35.208  87.105  28.536  0.00  0.00    +0.028 A 
ATOM      8  C   LIG    1      -36.099  87.889  27.795  0.00  0.00    +0.002 A 
ATOM      9  C   LIG    1      -35.771  89.196  27.445  0.00  0.00    +0.000 A 
ATOM     10  C   LIG    1      -34.548  89.729  27.833  0.00  0.00    +0.002 A 
ATOM     11  C   LIG    1      -33.644  88.944  28.549  0.00  0.00    +0.028 A 
ENDBRANCH   3   6
BRANCH   4  12
ATOM     12  N   LIG    1      -33.621  84.429  29.358  0.00  0.00    -0.266 N 
ATOM     13  H   LIG    1      -33.336  84.120  28.439  0.00  0.00    +0.157 HD
ATOM     14  C   LIG    1      -34.656  83.693  30.034  0.00  0.00    +0.251 C 
ATOM     15  O   LIG    1      -35.076  84.033  31.135  0.00  0.00    -0.270 OA
BRANCH  14  16
ATOM     16  C   LIG    1      -35.283  82.575  29.281  0.00  0.00    +0.056 A 
ATOM     17  C   LIG    1      -36.640  82.540  28.969  0.00  0.00    +0.054 A 
ATOM     18 CL   LIG    1      -37.706  83.885  29.186  0.00  0.00    -0.083 Cl
ATOM     19  C   LIG    1      -37.191  81.389  28.416  0.00  0.00    +0.041 A 
ATOM     20  C   LIG    1      -36.385  80.291  28.083  0.00  0.00    +0.052 A 
ATOM     21 CL   LIG    1      -37.240  78.946  27.404  0.00  0.00    -0.083 Cl
ATOM     22  C   LIG    1      -34.985  80.331  28.262  0.00  0.00    +0.022 A 
ATOM     23  C   LIG    1      -34.467  81.484  28.906  0.00  0.00    +0.026 A 
BRANCH  22  24
ATOM     24  C   LIG    1      -34.061  79.264  27.794  0.00  0.00    +0.107 A 
ATOM     25  C   LIG    1      -33.981  78.008  28.406  0.00  0.00    +0.149 A 
ATOM     26  F   LIG    1      -34.757  77.693  29.454  0.00  0.00    -0.203 F 
ATOM     27  C   LIG    1      -33.071  77.062  27.948  0.00  0.00    +0.042 A 
ATOM     28  C   LIG    1      -32.230  77.390  26.893  0.00  0.00    +0.023 A 
ATOM     29  C   LIG    1      -32.359  78.647  26.330  0.00  0.00    +0.111 A 
ATOM     30  N   LIG    1      -33.266  79.568  26.737  0.00  0.00    -0.252 NA
ENDBRANCH  22  24
ENDBRANCH  14  16
ENDBRANCH   4  12
BRANCH   1  32
ATOM     31  N   LIG    1      -30.377  86.605  33.216  0.00  0.00    -0.247 NA
ATOM     32  C   LIG    1      -30.318  86.942  31.986  0.00  0.00    +0.236 C 
BRANCH  32  33
ATOM     33  O   LIG    1      -29.300  87.590  31.390  0.00  0.00    -0.491 OA
ATOM     34  H   LIG    1      -29.608  88.424  30.992  0.00  0.00    +0.294 HD
ENDBRANCH  32  33
BRANCH  31  35
ATOM     35  C   LIG    1      -29.326  86.818  34.211  0.00  0.00    +0.173 C 
BRANCH  35  36
ATOM     36  C   LIG    1      -28.954  85.590  35.047  0.00  0.00    +0.179 C 
BRANCH  36  37
ATOM     37  O   LIG    1      -28.703  84.457  34.211  0.00  0.00    -0.393 OA
ATOM     38  H   LIG    1      -27.744  84.455  34.024  0.00  0.00    +0.209 HD
ENDBRANCH  36  37
ENDBRANCH  35  36
ENDBRANCH  31  35
ENDBRANCH   1  32
TORSDOF 9
ENDMDL
MODEL 5
REMARK VINA RESULT:      -6.0      4.509      7.770
REMARK  Name = pdb/CHEMBL3976264.pdb
REMARK                            x       y       z     vdW  Elec       q    Type
REMARK                         _______ _______ _______ _____ _____    ______ ____
ROOT
ATOM      1  C   LIG    1      -36.246  69.199  25.308  0.00  0.00    +0.149 A 
ATOM      2  N   LIG    1      -37.289  70.022  25.459  0.00  0.00    -0.160 NA
ATOM      3  N   LIG    1      -36.763  71.205  25.871  0.00  0.00    -0.218 N 
ATOM      4  C   LIG    1      -35.394  71.087  26.122  0.00  0.00    +0.129 A 
ATOM      5  C   LIG    1      -35.056  69.818  25.735  0.00  0.00    +0.078 A 
ENDROOT
BRANCH   3   6
ATOM      6  C   LIG    1      -37.633  72.337  25.943  0.00  0.00    +0.067 A 
ATOM      7  C   LIG    1      -38.079  72.877  27.153  0.00  0.00    +0.028 A 
ATOM      8  C   LIG    1      -38.936  73.982  27.157  0.00  0.00    +0.002 A 
ATOM      9  C   LIG    1      -39.322  74.583  25.962  0.00  0.00    +0.000 A 
ATOM     10  C   LIG    1      -38.855  74.082  24.753  0.00  0.00    +0.002 A 
ATOM     11  C   LIG    1      -38.022  72.963  24.740  0.00  0.00    +0.028 A 
ENDBRANCH   3   6
BRANCH   4  12
ATOM     12  N   LIG    1      -34.505  71.989  26.695  0.00  0.00    -0.266 N 
ATOM     13  H   LIG    1      -33.856  72.445  26.069  0.00  0.00    +0.157 HD
ATOM     14  C   LIG    1      -34.503  72.376  28.080  0.00  0.00    +0.251 C 
ATOM     15  O   LIG    1      -35.237  71.838  28.902  0.00  0.00    -0.270 OA
BRANCH  14  16
ATOM     16  C   LIG    1      -33.478  73.370  28.495  0.00  0.00    +0.056 A 
ATOM     17  C   LIG    1      -32.322  73.019  29.190  0.00  0.00    +0.054 A 
ATOM     18 CL   LIG    1      -31.810  71.385  29.431  0.00  0.00    -0.083 Cl
ATOM     19  C   LIG    1      -31.494  74.015  29.696  0.00  0.00    +0.041 A 
ATOM     20  C   LIG    1      -31.754  75.370  29.443  0.00  0.00    +0.052 A 
ATOM     21 CL   LIG    1      -30.619  76.470  30.150  0.00  0.00    -0.083 Cl
ATOM     22  C   LIG    1      -32.843  75.766  28.635  0.00  0.00    +0.022 A 
ATOM     23  C   LIG    1      -33.715  74.732  28.206  0.00  0.00    +0.026 A 
BRANCH  22  24
ATOM     24  C   LIG    1      -33.087  77.168  28.207  0.00  0.00    +0.107 A 
ATOM     25  C   LIG    1      -32.424  77.756  27.124  0.00  0.00    +0.149 A 
ATOM     26  F   LIG    1      -31.532  77.069  26.396  0.00  0.00    -0.203 F 
ATOM     27  C   LIG    1      -32.666  79.086  26.792  0.00  0.00    +0.042 A 
ATOM     28  C   LIG    1      -33.553  79.823  27.563  0.00  0.00    +0.023 A 
ATOM     29  C   LIG    1      -34.178  79.184  28.620  0.00  0.00    +0.111 A 
ATOM     30  N   LIG    1      -33.985  77.880  28.935  0.00  0.00    -0.252 NA
ENDBRANCH  22  24
ENDBRANCH  14  16
ENDBRANCH   4  12
BRANCH   1  32
ATOM     31  N   LIG    1      -36.686  66.843  25.437  0.00  0.00    -0.247 NA
ATOM     32  C   LIG    1      -36.316  67.855  24.753  0.00  0.00    +0.236 C 
BRANCH  32  33
ATOM     33  O   LIG    1      -35.962  67.848  23.455  0.00  0.00    -0.491 OA
ATOM     34  H   LIG    1      -34.994  67.799  23.361  0.00  0.00    +0.294 HD
ENDBRANCH  32  33
BRANCH  31  35
ATOM     35  C   LIG    1      -36.841  65.480  24.929  0.00  0.00    +0.173 C 
BRANCH  35  36
ATOM     36  C   LIG    1      -35.611  64.580  25.076  0.00  0.00    +0.179 C 
BRANCH  36  37
ATOM     37  O   LIG    1      -34.868  64.522  23.856  0.00  0.00    -0.393 OA
ATOM     38  H   LIG    1      -33.990  64.157  24.080  0.00  0.00    +0.209 HD
ENDBRANCH  36  37
ENDBRANCH  35  36
ENDBRANCH  31  35
ENDBRANCH   1  32
TORSDOF 9
ENDMDL
MODEL 6
REMARK VINA RESULT:      -6.0     14.572     18.046
REMARK  Name = pdb/CHEMBL3976264.pdb
REMARK                            x       y       z     vdW  Elec       q    Type
REMARK                         _______ _______ _______ _____ _____    ______ ____
ROOT
ATOM      1  C   LIG    1      -24.817  83.051  37.271  0.00  0.00    +0.149 A 
ATOM      2  N   LIG    1      -23.875  83.370  38.165  0.00  0.00    -0.160 NA
ATOM      3  N   LIG    1      -22.788  82.626  37.829  0.00  0.00    -0.218 N 
ATOM      4  C   LIG    1      -23.092  81.724  36.807  0.00  0.00    +0.129 A 
ATOM      5  C   LIG    1      -24.376  82.014  36.429  0.00  0.00    +0.078 A 
ENDROOT
BRANCH   3   6
ATOM      6  C   LIG    1      -21.558  82.892  38.508  0.00  0.00    +0.067 A 
ATOM      7  C   LIG    1      -20.571  83.735  37.989  0.00  0.00    +0.028 A 
ATOM      8  C   LIG    1      -19.385  83.949  38.698  0.00  0.00    +0.002 A 
ATOM      9  C   LIG    1      -19.189  83.362  39.945  0.00  0.00    +0.000 A 
ATOM     10  C   LIG    1      -20.178  82.553  40.491  0.00  0.00    +0.002 A 
ATOM     11  C   LIG    1      -21.353  82.314  39.777  0.00  0.00    +0.028 A 
ENDBRANCH   3   6
BRANCH   4  12
ATOM     12  N   LIG    1      -22.338  80.686  36.271  0.00  0.00    -0.266 N 
ATOM     13  H   LIG    1      -22.641  79.747  36.490  0.00  0.00    +0.157 HD
ATOM     14  C   LIG    1      -21.229  80.853  35.371  0.00  0.00    +0.251 C 
ATOM     15  O   LIG    1      -20.786  81.962  35.092  0.00  0.00    -0.270 OA
BRANCH  14  16
ATOM     16  C   LIG    1      -20.561  79.613  34.896  0.00  0.00    +0.056 A 
ATOM     17  C   LIG    1      -19.374  79.135  35.447  0.00  0.00    +0.054 A 
ATOM     18 CL   LIG    1      -18.671  79.763  36.897  0.00  0.00    -0.083 Cl
ATOM     19  C   LIG    1      -18.714  78.069  34.844  0.00  0.00    +0.041 A 
ATOM     20  C   LIG    1      -19.270  77.408  33.739  0.00  0.00    +0.052 A 
ATOM     21 CL   LIG    1      -18.313  76.105  33.118  0.00  0.00    -0.083 Cl
ATOM     22  C   LIG    1      -20.534  77.777  33.226  0.00  0.00    +0.022 A 
ATOM     23  C   LIG    1      -21.139  78.920  33.810  0.00  0.00    +0.026 A 
BRANCH  22  24
ATOM     24  C   LIG    1      -21.243  77.025  32.157  0.00  0.00    +0.107 A 
ATOM     25  C   LIG    1      -21.136  77.353  30.801  0.00  0.00    +0.149 A 
ATOM     26  F   LIG    1      -20.362  78.368  30.388  0.00  0.00    -0.203 F 
ATOM     27  C   LIG    1      -21.853  76.636  29.848  0.00  0.00    +0.042 A 
ATOM     28  C   LIG    1      -22.691  75.612  30.264  0.00  0.00    +0.023 A 
ATOM     29  C   LIG    1      -22.753  75.336  31.619  0.00  0.00    +0.111 A 
ATOM     30  N   LIG    1      -22.033  75.997  32.558  0.00  0.00    -0.252 NA
ENDBRANCH  22  24
ENDBRANCH  14  16
ENDBRANCH   4  12
BRANCH   1  32
ATOM     31  N   LIG    1      -26.459  84.384  36.137  0.00  0.00    -0.247 NA
ATOM     32  C   LIG    1      -26.115  83.701  37.159  0.00  0.00    +0.236 C 
BRANCH  32  33
ATOM     33  O   LIG    1      -26.872  83.464  38.246  0.00  0.00    -0.491 OA
ATOM     34  H   LIG    1      -27.760  83.849  38.138  0.00  0.00    +0.294 HD
ENDBRANCH  32  33
BRANCH  31  35
ATOM     35  C   LIG    1      -27.766  85.008  35.929  0.00  0.00    +0.173 C 
BRANCH  35  36
ATOM     36  C   LIG    1      -27.772  86.229  35.004  0.00  0.00    +0.179 C 
BRANCH  36  37
ATOM     37  O   LIG    1      -26.604  87.029  35.203  0.00  0.00    -0.393 OA
ATOM     38  H   LIG    1      -26.868  87.955  35.036  0.00  0.00    +0.209 HD
ENDBRANCH  36  37
ENDBRANCH  35  36
ENDBRANCH  31  35
ENDBRANCH   1  32
TORSDOF 9
ENDMDL
MODEL 7
REMARK VINA RESULT:      -5.9      4.205      7.823
REMARK  Name = pdb/CHEMBL3976264.pdb
REMARK                            x       y       z     vdW  Elec       q    Type
REMARK                         _______ _______ _______ _____ _____    ______ ____
ROOT
ATOM      1  C   LIG    1      -37.601  70.293  24.203  0.00  0.00    +0.149 A 
ATOM      2  N   LIG    1      -38.593  71.158  23.969  0.00  0.00    -0.160 NA
ATOM      3  N   LIG    1      -38.265  72.283  24.657  0.00  0.00    -0.218 N 
ATOM      4  C   LIG    1      -37.132  72.077  25.448  0.00  0.00    +0.129 A 
ATOM      5  C   LIG    1      -36.689  70.819  25.137  0.00  0.00    +0.078 A 
ENDROOT
BRANCH   3   6
ATOM      6  C   LIG    1      -39.060  73.453  24.449  0.00  0.00    +0.067 A 
ATOM      7  C   LIG    1      -38.597  74.744  24.717  0.00  0.00    +0.028 A 
ATOM      8  C   LIG    1      -39.426  75.848  24.499  0.00  0.00    +0.002 A 
ATOM      9  C   LIG    1      -40.705  75.681  23.974  0.00  0.00    +0.000 A 
ATOM     10  C   LIG    1      -41.165  74.407  23.667  0.00  0.00    +0.002 A 
ATOM     11  C   LIG    1      -40.353  73.298  23.907  0.00  0.00    +0.028 A 
ENDBRANCH   3   6
BRANCH   4  12
ATOM     12  N   LIG    1      -36.548  72.892  26.411  0.00  0.00    -0.266 N 
ATOM     13  H   LIG    1      -35.605  73.206  26.226  0.00  0.00    +0.157 HD
ATOM     14  C   LIG    1      -37.213  73.381  27.588  0.00  0.00    +0.251 C 
ATOM     15  O   LIG    1      -38.342  73.012  27.893  0.00  0.00    -0.270 OA
BRANCH  14  16
ATOM     16  C   LIG    1      -36.418  74.257  28.490  0.00  0.00    +0.056 A 
ATOM     17  C   LIG    1      -36.421  74.116  29.876  0.00  0.00    +0.054 A 
ATOM     18 CL   LIG    1      -37.130  72.771  30.700  0.00  0.00    -0.083 Cl
ATOM     19  C   LIG    1      -35.793  75.073  30.667  0.00  0.00    +0.041 A 
ATOM     20  C   LIG    1      -35.079  76.133  30.088  0.00  0.00    +0.052 A 
ATOM     21 CL   LIG    1      -34.363  77.227  31.224  0.00  0.00    -0.083 Cl
ATOM     22  C   LIG    1      -34.942  76.243  28.687  0.00  0.00    +0.022 A 
ATOM     23  C   LIG    1      -35.664  75.300  27.910  0.00  0.00    +0.026 A 
BRANCH  22  24
ATOM     24  C   LIG    1      -34.079  77.251  28.018  0.00  0.00    +0.107 A 
ATOM     25  C   LIG    1      -34.326  78.627  28.089  0.00  0.00    +0.149 A 
ATOM     26  F   LIG    1      -35.361  79.114  28.789  0.00  0.00    -0.203 F 
ATOM     27  C   LIG    1      -33.504  79.522  27.412  0.00  0.00    +0.042 A 
ATOM     28  C   LIG    1      -32.456  79.030  26.647  0.00  0.00    +0.023 A 
ATOM     29  C   LIG    1      -32.263  77.660  26.618  0.00  0.00    +0.111 A 
ATOM     30  N   LIG    1      -33.029  76.775  27.303  0.00  0.00    -0.252 NA
ENDBRANCH  22  24
ENDBRANCH  14  16
ENDBRANCH   4  12
BRANCH   1  32
ATOM     31  N   LIG    1      -36.329  68.519  23.205  0.00  0.00    -0.247 NA
ATOM     32  C   LIG    1      -37.459  68.993  23.563  0.00  0.00    +0.236 C 
BRANCH  32  33
ATOM     33  O   LIG    1      -38.652  68.385  23.431  0.00  0.00    -0.491 OA
ATOM     34  H   LIG    1      -39.364  68.937  23.801  0.00  0.00    +0.294 HD
ENDBRANCH  32  33
BRANCH  31  35
ATOM     35  C   LIG    1      -36.106  67.197  22.618  0.00  0.00    +0.173 C 
BRANCH  35  36
ATOM     36  C   LIG    1      -34.697  66.626  22.803  0.00  0.00    +0.179 C 
BRANCH  36  37
ATOM     37  O   LIG    1      -33.842  67.009  21.724  0.00  0.00    -0.393 OA
ATOM     38  H   LIG    1      -34.425  67.302  20.996  0.00  0.00    +0.209 HD
ENDBRANCH  36  37
ENDBRANCH  35  36
ENDBRANCH  31  35
ENDBRANCH   1  32
TORSDOF 9
ENDMDL
MODEL 8
REMARK VINA RESULT:      -5.9     16.717     18.189
REMARK  Name = pdb/CHEMBL3976264.pdb
REMARK                            x       y       z     vdW  Elec       q    Type
REMARK                         _______ _______ _______ _____ _____    ______ ____
ROOT
ATOM      1  C   LIG    1      -22.939  81.781  15.593  0.00  0.00    +0.149 A 
ATOM      2  N   LIG    1      -22.213  80.702  15.904  0.00  0.00    -0.160 NA
ATOM      3  N   LIG    1      -22.728  79.690  15.157  0.00  0.00    -0.218 N 
ATOM      4  C   LIG    1      -23.880  80.099  14.480  0.00  0.00    +0.129 A 
ATOM      5  C   LIG    1      -23.999  81.440  14.732  0.00  0.00    +0.078 A 
ENDROOT
BRANCH   3   6
ATOM      6  C   LIG    1      -22.031  78.441  15.147  0.00  0.00    +0.067 A 
ATOM      7  C   LIG    1      -20.638  78.350  15.076  0.00  0.00    +0.028 A 
ATOM      8  C   LIG    1      -20.015  77.098  15.063  0.00  0.00    +0.002 A 
ATOM      9  C   LIG    1      -20.768  75.931  15.162  0.00  0.00    +0.000 A 
ATOM     10  C   LIG    1      -22.151  76.008  15.273  0.00  0.00    +0.002 A 
ATOM     11  C   LIG    1      -22.781  77.253  15.260  0.00  0.00    +0.028 A 
ENDBRANCH   3   6
BRANCH   4  12
ATOM     12  N   LIG    1      -24.797  79.362  13.741  0.00  0.00    -0.266 N 
ATOM     13  H   LIG    1      -24.683  79.373  12.737  0.00  0.00    +0.157 HD
ATOM     14  C   LIG    1      -25.827  78.528  14.301  0.00  0.00    +0.251 C 
ATOM     15  O   LIG    1      -26.045  78.495  15.507  0.00  0.00    -0.270 OA
BRANCH  14  16
ATOM     16  C   LIG    1      -26.700  77.805  13.338  0.00  0.00    +0.056 A 
ATOM     17  C   LIG    1      -26.542  76.453  13.042  0.00  0.00    +0.054 A 
ATOM     18 CL   LIG    1      -25.499  75.395  13.927  0.00  0.00    -0.083 Cl
ATOM     19  C   LIG    1      -27.278  75.884  12.008  0.00  0.00    +0.041 A 
ATOM     20  C   LIG    1      -28.245  76.628  11.315  0.00  0.00    +0.052 A 
ATOM     21 CL   LIG    1      -29.065  75.758  10.062  0.00  0.00    -0.083 Cl
ATOM     22  C   LIG    1      -28.528  77.966  11.668  0.00  0.00    +0.022 A 
ATOM     23  C   LIG    1      -27.702  78.540  12.667  0.00  0.00    +0.026 A 
BRANCH  22  24
ATOM     24  C   LIG    1      -29.638  78.759  11.075  0.00  0.00    +0.107 A 
ATOM     25  C   LIG    1      -29.579  79.299   9.786  0.00  0.00    +0.149 A 
ATOM     26  F   LIG    1      -28.508  79.113   9.001  0.00  0.00    -0.203 F 
ATOM     27  C   LIG    1      -30.633  80.064   9.298  0.00  0.00    +0.042 A 
ATOM     28  C   LIG    1      -31.729  80.303  10.116  0.00  0.00    +0.023 A 
ATOM     29  C   LIG    1      -31.728  79.740  11.380  0.00  0.00    +0.111 A 
ATOM     30  N   LIG    1      -30.728  78.959  11.858  0.00  0.00    -0.252 NA
ENDBRANCH  22  24
ENDBRANCH  14  16
ENDBRANCH   4  12
BRANCH   1  32
ATOM     31  N   LIG    1      -22.717  84.151  15.284  0.00  0.00    -0.247 NA
ATOM     32  C   LIG    1      -22.662  83.134  16.054  0.00  0.00    +0.236 C 
BRANCH  32  33
ATOM     33  O   LIG    1      -22.370  83.148  17.367  0.00  0.00    -0.491 OA
ATOM     34  H   LIG    1      -23.156  82.925  17.898  0.00  0.00    +0.294 HD
ENDBRANCH  32  33
BRANCH  31  35
ATOM     35  C   LIG    1      -22.516  85.541  15.693  0.00  0.00    +0.173 C 
BRANCH  35  36
ATOM     36  C   LIG    1      -21.661  86.388  14.745  0.00  0.00    +0.179 C 
BRANCH  36  37
ATOM     37  O   LIG    1      -20.772  87.236  15.475  0.00  0.00    -0.393 OA
ATOM     38  H   LIG    1      -21.330  87.823  16.021  0.00  0.00    +0.209 HD
ENDBRANCH  36  37
ENDBRANCH  35  36
ENDBRANCH  31  35
ENDBRANCH   1  32
TORSDOF 9
ENDMDL
MODEL 9
REMARK VINA RESULT:      -5.8     11.043     13.892
REMARK  Name = pdb/CHEMBL3976264.pdb
REMARK                            x       y       z     vdW  Elec       q    Type
REMARK                         _______ _______ _______ _____ _____    ______ ____
ROOT
ATOM      1  C   LIG    1      -23.812  78.920  34.276  0.00  0.00    +0.149 A 
ATOM      2  N   LIG    1      -22.771  78.810  33.443  0.00  0.00    -0.160 NA
ATOM      3  N   LIG    1      -23.000  77.682  32.722  0.00  0.00    -0.218 N 
ATOM      4  C   LIG    1      -24.118  76.995  33.202  0.00  0.00    +0.129 A 
ATOM      5  C   LIG    1      -24.655  77.798  34.172  0.00  0.00    +0.078 A 
ENDROOT
BRANCH   3   6
ATOM      6  C   LIG    1      -22.134  77.404  31.618  0.00  0.00    +0.067 A 
ATOM      7  C   LIG    1      -22.600  76.930  30.389  0.00  0.00    +0.028 A 
ATOM      8  C   LIG    1      -21.701  76.670  29.349  0.00  0.00    +0.002 A 
ATOM      9  C   LIG    1      -20.341  76.920  29.510  0.00  0.00    +0.000 A 
ATOM     10  C   LIG    1      -19.869  77.429  30.713  0.00  0.00    +0.002 A 
ATOM     11  C   LIG    1      -20.757  77.665  31.764  0.00  0.00    +0.028 A 
ENDBRANCH   3   6
BRANCH   4  12
ATOM     12  N   LIG    1      -24.614  75.740  32.868  0.00  0.00    -0.266 N 
ATOM     13  H   LIG    1      -24.322  74.968  33.452  0.00  0.00    +0.157 HD
ATOM     14  C   LIG    1      -25.565  75.482  31.820  0.00  0.00    +0.251 C 
ATOM     15  O   LIG    1      -25.933  76.364  31.051  0.00  0.00    -0.270 OA
BRANCH  14  16
ATOM     16  C   LIG    1      -25.984  74.068  31.630  0.00  0.00    +0.056 A 
ATOM     17  C   LIG    1      -27.253  73.604  31.967  0.00  0.00    +0.054 A 
ATOM     18 CL   LIG    1      -28.567  74.641  32.400  0.00  0.00    -0.083 Cl
ATOM     19  C   LIG    1      -27.521  72.239  31.925  0.00  0.00    +0.041 A 
ATOM     20  C   LIG    1      -26.560  71.328  31.463  0.00  0.00    +0.052 A 
ATOM     21 CL   LIG    1      -27.066  69.672  31.480  0.00  0.00    -0.083 Cl
ATOM     22  C   LIG    1      -25.304  71.768  30.991  0.00  0.00    +0.022 A 
ATOM     23  C   LIG    1      -25.032  73.154  31.127  0.00  0.00    +0.026 A 
BRANCH  22  24
ATOM     24  C   LIG    1      -24.302  70.874  30.353  0.00  0.00    +0.107 A 
ATOM     25  C   LIG    1      -23.149  70.435  31.013  0.00  0.00    +0.149 A 
ATOM     26  F   LIG    1      -22.892  70.791  32.280  0.00  0.00    -0.203 F 
ATOM     27  C   LIG    1      -22.227  69.629  30.352  0.00  0.00    +0.042 A 
ATOM     28  C   LIG    1      -22.457  69.289  29.026  0.00  0.00    +0.023 A 
ATOM     29  C   LIG    1      -23.616  69.754  28.430  0.00  0.00    +0.111 A 
ATOM     30  N   LIG    1      -24.544  70.507  29.069  0.00  0.00    -0.252 NA
ENDBRANCH  22  24
ENDBRANCH  14  16
ENDBRANCH   4  12
BRANCH   1  32
ATOM     31  N   LIG    1      -23.192  80.961  35.377  0.00  0.00    -0.247 NA
ATOM     32  C   LIG    1      -24.063  80.054  35.154  0.00  0.00    +0.236 C 
BRANCH  32  33
ATOM     33  O   LIG    1      -25.309  80.010  35.659  0.00  0.00    -0.491 OA
ATOM     34  H   LIG    1      -25.695  80.903  35.705  0.00  0.00    +0.294 HD
ENDBRANCH  32  33
BRANCH  31  35
ATOM     35  C   LIG    1      -23.398  82.158  36.193  0.00  0.00    +0.173 C 
BRANCH  35  36
ATOM     36  C   LIG    1      -23.256  81.954  37.705  0.00  0.00    +0.179 C 
BRANCH  36  37
ATOM     37  O   LIG    1      -24.479  81.483  38.276  0.00  0.00    -0.393 OA
ATOM     38  H   LIG    1      -25.122  82.216  38.203  0.00  0.00    +0.209 HD
ENDBRANCH  36  37
ENDBRANCH  35  36
ENDBRANCH  31  35
ENDBRANCH   1  32
TORSDOF 9
ENDMDL
