MODEL 1
REMARK VINA RESULT:      -6.5      0.000      0.000
REMARK  Name = pdb/CHEMBL3889654.pdb
REMARK                            x       y       z     vdW  Elec       q    Type
REMARK                         _______ _______ _______ _____ _____    ______ ____
ROOT
ATOM      1  C   LIG    1      -31.668  93.983  23.120  0.00  0.00    +0.099 A 
ATOM      2  C   LIG    1      -32.082  93.557  21.874  0.00  0.00    +0.179 A 
ATOM      3  N   LIG    1      -33.178  92.838  21.458  0.00  0.00    -0.211 NA
ATOM      4  C   LIG    1      -33.353  92.672  20.161  0.00  0.00    +0.126 A 
ATOM      5  C   LIG    1      -32.355  93.200  19.154  0.00  0.00    +0.063 A 
ATOM      6  C   LIG    1      -31.295  93.868  19.621  0.00  0.00    +0.118 A 
ATOM      7  N   LIG    1      -31.139  94.063  20.982  0.00  0.00    -0.220 N 
ATOM      8  N   LIG    1      -30.144  94.738  21.606  0.00  0.00    -0.171 NA
ATOM      9  C   LIG    1      -30.480  94.696  22.897  0.00  0.00    +0.160 A 
ENDROOT
BRANCH   1  14
ATOM     10  C   LIG    1      -34.357  93.344  27.985  0.00  0.00    +0.133 C 
ATOM     11  C   LIG    1      -33.917  93.681  26.571  0.00  0.00    +0.140 C 
ATOM     12  N   LIG    1      -33.066  92.577  26.160  0.00  0.00    -0.283 N 
ATOM     13  C   LIG    1      -32.262  92.570  25.040  0.00  0.00    +0.307 C 
ATOM     14  N   LIG    1      -32.364  93.715  24.279  0.00  0.00    -0.265 N 
ATOM     15  H   LIG    1      -32.986  94.459  24.555  0.00  0.00    +0.157 HD
ATOM     16  O   LIG    1      -31.525  91.612  24.777  0.00  0.00    -0.252 OA
ATOM     17  C   LIG    1      -33.151  91.476  27.107  0.00  0.00    +0.112 C 
ATOM     18  C   LIG    1      -34.351  91.820  27.984  0.00  0.00    +0.052 C 
BRANCH  10  19
ATOM     19  O   LIG    1      -35.641  93.872  28.256  0.00  0.00    -0.390 OA
ATOM     20  H   LIG    1      -36.159  93.174  28.689  0.00  0.00    +0.210 HD
ENDBRANCH  10  19
ENDBRANCH   1  14
BRANCH   4  21
ATOM     21  N   LIG    1      -34.483  91.995  19.709  0.00  0.00    -0.308 N 
ATOM     22  C   LIG    1      -34.985  92.088  18.323  0.00  0.00    +0.108 C 
ATOM     23  C   LIG    1      -36.513  92.038  18.487  0.00  0.00    +0.029 C 
ATOM     24  C   LIG    1      -36.715  91.186  19.729  0.00  0.00    +0.021 C 
ATOM     25  C   LIG    1      -35.575  91.650  20.629  0.00  0.00    +0.107 C 
BRANCH  22  26
ATOM     26  C   LIG    1      -34.427  90.988  17.436  0.00  0.00    +0.011 A 
ATOM     27  C   LIG    1      -34.407  91.155  16.041  0.00  0.00    +0.129 A 
ATOM     28  F   LIG    1      -34.870  92.291  15.500  0.00  0.00    -0.205 F 
ATOM     29  C   LIG    1      -33.887  90.178  15.187  0.00  0.00    +0.041 A 
ATOM     30  C   LIG    1      -33.360  89.004  15.720  0.00  0.00    +0.041 A 
ATOM     31  C   LIG    1      -33.363  88.828  17.099  0.00  0.00    +0.124 A 
ATOM     32  F   LIG    1      -32.835  87.714  17.621  0.00  0.00    -0.205 F 
ATOM     33  C   LIG    1      -33.893  89.796  17.951  0.00  0.00    +0.046 A 
ENDBRANCH  22  26
ENDBRANCH   4  21
TORSDOF 4
ENDMDL
MODEL 2
REMARK VINA RESULT:      -6.5     20.227     22.637
REMARK  Name = pdb/CHEMBL3889654.pdb
REMARK                            x       y       z     vdW  Elec       q    Type
REMARK                         _______ _______ _______ _____ _____    ______ ____
ROOT
ATOM      1  C   LIG    1      -22.298  77.023  30.602  0.00  0.00    +0.099 A 
ATOM      2  C   LIG    1      -21.335  77.426  31.505  0.00  0.00    +0.179 A 
ATOM      3  N   LIG    1      -21.398  77.768  32.836  0.00  0.00    -0.211 NA
ATOM      4  C   LIG    1      -20.266  78.019  33.465  0.00  0.00    +0.126 A 
ATOM      5  C   LIG    1      -18.938  77.993  32.743  0.00  0.00    +0.063 A 
ATOM      6  C   LIG    1      -18.943  77.681  31.442  0.00  0.00    +0.118 A 
ATOM      7  N   LIG    1      -20.134  77.389  30.802  0.00  0.00    -0.220 N 
ATOM      8  N   LIG    1      -20.302  77.029  29.507  0.00  0.00    -0.171 NA
ATOM      9  C   LIG    1      -21.612  76.796  29.400  0.00  0.00    +0.160 A 
ENDROOT
BRANCH   1  14
ATOM     10  C   LIG    1      -27.660  76.905  32.196  0.00  0.00    +0.133 C 
ATOM     11  C   LIG    1      -26.322  77.155  31.521  0.00  0.00    +0.140 C 
ATOM     12  N   LIG    1      -25.589  75.907  31.649  0.00  0.00    -0.283 N 
ATOM     13  C   LIG    1      -24.245  75.746  31.387  0.00  0.00    +0.307 C 
ATOM     14  N   LIG    1      -23.630  76.892  30.928  0.00  0.00    -0.265 N 
ATOM     15  H   LIG    1      -24.159  77.743  30.808  0.00  0.00    +0.157 HD
ATOM     16  O   LIG    1      -23.674  74.663  31.564  0.00  0.00    -0.252 OA
ATOM     17  C   LIG    1      -26.458  74.840  32.121  0.00  0.00    +0.112 C 
ATOM     18  C   LIG    1      -27.867  75.409  31.987  0.00  0.00    +0.052 C 
BRANCH  10  19
ATOM     19  O   LIG    1      -28.683  77.674  31.593  0.00  0.00    -0.390 OA
ATOM     20  H   LIG    1      -29.074  78.234  32.285  0.00  0.00    +0.210 HD
ENDBRANCH  10  19
ENDBRANCH   1  14
BRANCH   4  21
ATOM     21  N   LIG    1      -20.296  78.313  34.826  0.00  0.00    -0.308 N 
ATOM     22  C   LIG    1      -20.194  79.686  35.362  0.00  0.00    +0.108 C 
ATOM     23  C   LIG    1      -19.385  79.511  36.658  0.00  0.00    +0.029 C 
ATOM     24  C   LIG    1      -19.759  78.116  37.130  0.00  0.00    +0.021 C 
ATOM     25  C   LIG    1      -19.831  77.338  35.821  0.00  0.00    +0.107 C 
BRANCH  22  26
ATOM     26  C   LIG    1      -21.559  80.322  35.572  0.00  0.00    +0.011 A 
ATOM     27  C   LIG    1      -21.654  81.683  35.905  0.00  0.00    +0.129 A 
ATOM     28  F   LIG    1      -20.539  82.419  36.023  0.00  0.00    -0.205 F 
ATOM     29  C   LIG    1      -22.887  82.315  36.090  0.00  0.00    +0.041 A 
ATOM     30  C   LIG    1      -24.065  81.588  35.933  0.00  0.00    +0.041 A 
ATOM     31  C   LIG    1      -23.989  80.243  35.594  0.00  0.00    +0.124 A 
ATOM     32  F   LIG    1      -25.117  79.545  35.416  0.00  0.00    -0.205 F 
ATOM     33  C   LIG    1      -22.759  79.609  35.421  0.00  0.00    +0.046 A 
ENDBRANCH  22  26
ENDBRANCH   4  21
TORSDOF 4
ENDMDL
MODEL 3
REMARK VINA RESULT:      -6.3     14.835     16.992
REMARK  Name = pdb/CHEMBL3889654.pdb
REMARK                            x       y       z     vdW  Elec       q    Type
REMARK                         _______ _______ _______ _____ _____    ______ ____
ROOT
ATOM      1  C   LIG    1      -24.572  84.498  11.540  0.00  0.00    +0.099 A 
ATOM      2  C   LIG    1      -24.915  83.172  11.712  0.00  0.00    +0.179 A 
ATOM      3  N   LIG    1      -24.594  82.250  12.682  0.00  0.00    -0.211 NA
ATOM      4  C   LIG    1      -25.171  81.065  12.624  0.00  0.00    +0.126 A 
ATOM      5  C   LIG    1      -26.111  80.697  11.499  0.00  0.00    +0.063 A 
ATOM      6  C   LIG    1      -26.363  81.626  10.570  0.00  0.00    +0.118 A 
ATOM      7  N   LIG    1      -25.778  82.876  10.659  0.00  0.00    -0.220 N 
ATOM      8  N   LIG    1      -25.953  83.926   9.822  0.00  0.00    -0.171 NA
ATOM      9  C   LIG    1      -25.232  84.906  10.371  0.00  0.00    +0.160 A 
ENDROOT
BRANCH   1  14
ATOM     10  C   LIG    1      -21.630  87.569  15.175  0.00  0.00    +0.133 C 
ATOM     11  C   LIG    1      -22.523  86.561  14.472  0.00  0.00    +0.140 C 
ATOM     12  N   LIG    1      -21.909  86.345  13.173  0.00  0.00    -0.283 N 
ATOM     13  C   LIG    1      -22.501  85.686  12.116  0.00  0.00    +0.307 C 
ATOM     14  N   LIG    1      -23.751  85.184  12.408  0.00  0.00    -0.265 N 
ATOM     15  H   LIG    1      -24.151  85.309  13.326  0.00  0.00    +0.157 HD
ATOM     16  O   LIG    1      -21.937  85.580  11.020  0.00  0.00    -0.252 OA
ATOM     17  C   LIG    1      -20.584  86.942  13.120  0.00  0.00    +0.112 C 
ATOM     18  C   LIG    1      -20.260  87.282  14.571  0.00  0.00    +0.052 C 
BRANCH  10  19
ATOM     19  O   LIG    1      -21.647  87.371  16.576  0.00  0.00    -0.390 OA
ATOM     20  H   LIG    1      -21.872  86.440  16.737  0.00  0.00    +0.210 HD
ENDBRANCH  10  19
ENDBRANCH   1  14
BRANCH   4  21
ATOM     21  N   LIG    1      -24.906  80.132  13.624  0.00  0.00    -0.308 N 
ATOM     22  C   LIG    1      -23.619  79.419  13.747  0.00  0.00    +0.108 C 
ATOM     23  C   LIG    1      -24.026  78.019  14.237  0.00  0.00    +0.029 C 
ATOM     24  C   LIG    1      -25.283  78.274  15.052  0.00  0.00    +0.021 C 
ATOM     25  C   LIG    1      -25.988  79.348  14.231  0.00  0.00    +0.107 C 
BRANCH  22  26
ATOM     26  C   LIG    1      -22.652  80.136  14.676  0.00  0.00    +0.011 A 
ATOM     27  C   LIG    1      -21.268  80.034  14.459  0.00  0.00    +0.129 A 
ATOM     28  F   LIG    1      -20.805  79.314  13.427  0.00  0.00    -0.205 F 
ATOM     29  C   LIG    1      -20.342  80.691  15.276  0.00  0.00    +0.041 A 
ATOM     30  C   LIG    1      -20.791  81.481  16.332  0.00  0.00    +0.041 A 
ATOM     31  C   LIG    1      -22.157  81.600  16.553  0.00  0.00    +0.124 A 
ATOM     32  F   LIG    1      -22.597  82.378  17.549  0.00  0.00    -0.205 F 
ATOM     33  C   LIG    1      -23.081  80.935  15.747  0.00  0.00    +0.046 A 
ENDBRANCH  22  26
ENDBRANCH   4  21
TORSDOF 4
ENDMDL
MODEL 4
REMARK VINA RESULT:      -6.3     17.623     19.458
REMARK  Name = pdb/CHEMBL3889654.pdb
REMARK                            x       y       z     vdW  Elec       q    Type
REMARK                         _______ _______ _______ _____ _____    ______ ____
ROOT
ATOM      1  C   LIG    1      -34.497  73.102  28.074  0.00  0.00    +0.099 A 
ATOM      2  C   LIG    1      -35.660  72.541  27.588  0.00  0.00    +0.179 A 
ATOM      3  N   LIG    1      -36.667  73.038  26.794  0.00  0.00    -0.211 NA
ATOM      4  C   LIG    1      -37.619  72.209  26.409  0.00  0.00    +0.126 A 
ATOM      5  C   LIG    1      -37.645  70.769  26.868  0.00  0.00    +0.063 A 
ATOM      6  C   LIG    1      -36.654  70.350  27.662  0.00  0.00    +0.118 A 
ATOM      7  N   LIG    1      -35.645  71.221  28.032  0.00  0.00    -0.220 N 
ATOM      8  N   LIG    1      -34.564  70.945  28.801  0.00  0.00    -0.171 NA
ATOM      9  C   LIG    1      -33.869  72.084  28.808  0.00  0.00    +0.160 A 
ENDROOT
BRANCH   1  14
ATOM     10  C   LIG    1      -32.519  78.210  26.937  0.00  0.00    +0.133 C 
ATOM     11  C   LIG    1      -33.095  76.805  26.902  0.00  0.00    +0.140 C 
ATOM     12  N   LIG    1      -33.862  76.675  28.129  0.00  0.00    -0.283 N 
ATOM     13  C   LIG    1      -34.366  75.492  28.627  0.00  0.00    +0.307 C 
ATOM     14  N   LIG    1      -34.122  74.402  27.818  0.00  0.00    -0.265 N 
ATOM     15  H   LIG    1      -33.620  74.513  26.950  0.00  0.00    +0.157 HD
ATOM     16  O   LIG    1      -34.970  75.447  29.706  0.00  0.00    -0.252 OA
ATOM     17  C   LIG    1      -34.010  77.963  28.789  0.00  0.00    +0.112 C 
ATOM     18  C   LIG    1      -33.558  78.979  27.745  0.00  0.00    +0.052 C 
BRANCH  10  19
ATOM     19  O   LIG    1      -32.370  78.730  25.629  0.00  0.00    -0.390 OA
ATOM     20  H   LIG    1      -33.090  78.368  25.087  0.00  0.00    +0.210 HD
ENDBRANCH  10  19
ENDBRANCH   1  14
BRANCH   4  21
ATOM     21  N   LIG    1      -38.620  72.673  25.559  0.00  0.00    -0.308 N 
ATOM     22  C   LIG    1      -39.700  73.580  25.998  0.00  0.00    +0.108 C 
ATOM     23  C   LIG    1      -40.921  73.106  25.192  0.00  0.00    +0.029 C 
ATOM     24  C   LIG    1      -40.318  72.573  23.903  0.00  0.00    +0.021 C 
ATOM     25  C   LIG    1      -39.052  71.884  24.399  0.00  0.00    +0.107 C 
BRANCH  22  26
ATOM     26  C   LIG    1      -39.348  75.042  25.774  0.00  0.00    +0.011 A 
ATOM     27  C   LIG    1      -39.789  76.016  26.684  0.00  0.00    +0.129 A 
ATOM     28  F   LIG    1      -40.509  75.651  27.754  0.00  0.00    -0.205 F 
ATOM     29  C   LIG    1      -39.474  77.370  26.528  0.00  0.00    +0.041 A 
ATOM     30  C   LIG    1      -38.692  77.777  25.450  0.00  0.00    +0.041 A 
ATOM     31  C   LIG    1      -38.239  76.823  24.547  0.00  0.00    +0.124 A 
ATOM     32  F   LIG    1      -37.465  77.204  23.522  0.00  0.00    -0.205 F 
ATOM     33  C   LIG    1      -38.563  75.475  24.693  0.00  0.00    +0.046 A 
ENDBRANCH  22  26
ENDBRANCH   4  21
TORSDOF 4
ENDMDL
MODEL 5
REMARK VINA RESULT:      -6.2     17.503     20.879
REMARK  Name = pdb/CHEMBL3889654.pdb
REMARK                            x       y       z     vdW  Elec       q    Type
REMARK                         _______ _______ _______ _____ _____    ______ ____
ROOT
ATOM      1  C   LIG    1      -31.573  74.136  29.810  0.00  0.00    +0.099 A 
ATOM      2  C   LIG    1      -30.625  74.079  30.811  0.00  0.00    +0.179 A 
ATOM      3  N   LIG    1      -29.819  75.038  31.380  0.00  0.00    -0.211 NA
ATOM      4  C   LIG    1      -29.071  74.687  32.408  0.00  0.00    +0.126 A 
ATOM      5  C   LIG    1      -29.044  73.264  32.918  0.00  0.00    +0.063 A 
ATOM      6  C   LIG    1      -29.828  72.369  32.306  0.00  0.00    +0.118 A 
ATOM      7  N   LIG    1      -30.632  72.757  31.250  0.00  0.00    -0.220 N 
ATOM      8  N   LIG    1      -31.498  71.984  30.550  0.00  0.00    -0.171 NA
ATOM      9  C   LIG    1      -32.072  72.830  29.693  0.00  0.00    +0.160 A 
ENDROOT
BRANCH   1  14
ATOM     10  C   LIG    1      -32.390  78.920  27.028  0.00  0.00    +0.133 C 
ATOM     11  C   LIG    1      -32.148  77.486  27.465  0.00  0.00    +0.140 C 
ATOM     12  N   LIG    1      -32.886  77.334  28.707  0.00  0.00    -0.283 N 
ATOM     13  C   LIG    1      -32.767  76.270  29.576  0.00  0.00    +0.307 C 
ATOM     14  N   LIG    1      -31.894  75.296  29.140  0.00  0.00    -0.265 N 
ATOM     15  H   LIG    1      -31.415  75.396  28.257  0.00  0.00    +0.157 HD
ATOM     16  O   LIG    1      -33.393  76.229  30.642  0.00  0.00    -0.252 OA
ATOM     17  C   LIG    1      -33.761  78.474  28.934  0.00  0.00    +0.112 C 
ATOM     18  C   LIG    1      -33.770  79.219  27.603  0.00  0.00    +0.052 C 
BRANCH  10  19
ATOM     19  O   LIG    1      -32.364  79.032  25.617  0.00  0.00    -0.390 OA
ATOM     20  H   LIG    1      -32.913  78.316  25.258  0.00  0.00    +0.210 HD
ENDBRANCH  10  19
ENDBRANCH   1  14
BRANCH   4  21
ATOM     21  N   LIG    1      -28.287  75.651  33.038  0.00  0.00    -0.308 N 
ATOM     22  C   LIG    1      -26.882  75.424  33.432  0.00  0.00    +0.108 C 
ATOM     23  C   LIG    1      -26.746  76.202  34.752  0.00  0.00    +0.029 C 
ATOM     24  C   LIG    1      -27.726  77.353  34.595  0.00  0.00    +0.021 C 
ATOM     25  C   LIG    1      -28.897  76.686  33.883  0.00  0.00    +0.107 C 
BRANCH  22  26
ATOM     26  C   LIG    1      -25.905  75.868  32.355  0.00  0.00    +0.011 A 
ATOM     27  C   LIG    1      -24.909  74.986  31.907  0.00  0.00    +0.129 A 
ATOM     28  F   LIG    1      -24.831  73.751  32.423  0.00  0.00    -0.205 F 
ATOM     29  C   LIG    1      -24.000  75.344  30.906  0.00  0.00    +0.041 A 
ATOM     30  C   LIG    1      -24.080  76.605  30.320  0.00  0.00    +0.041 A 
ATOM     31  C   LIG    1      -25.068  77.486  30.746  0.00  0.00    +0.124 A 
ATOM     32  F   LIG    1      -25.168  78.690  30.169  0.00  0.00    -0.205 F 
ATOM     33  C   LIG    1      -25.966  77.135  31.753  0.00  0.00    +0.046 A 
ENDBRANCH  22  26
ENDBRANCH   4  21
TORSDOF 4
ENDMDL
MODEL 6
REMARK VINA RESULT:      -6.2     18.222     19.981
REMARK  Name = pdb/CHEMBL3889654.pdb
REMARK                            x       y       z     vdW  Elec       q    Type
REMARK                         _______ _______ _______ _____ _____    ______ ____
ROOT
ATOM      1  C   LIG    1      -34.990  73.428  28.083  0.00  0.00    +0.099 A 
ATOM      2  C   LIG    1      -36.267  73.061  27.707  0.00  0.00    +0.179 A 
ATOM      3  N   LIG    1      -37.264  73.730  27.036  0.00  0.00    -0.211 NA
ATOM      4  C   LIG    1      -38.361  73.063  26.733  0.00  0.00    +0.126 A 
ATOM      5  C   LIG    1      -38.554  71.624  27.156  0.00  0.00    +0.063 A 
ATOM      6  C   LIG    1      -37.561  71.035  27.830  0.00  0.00    +0.118 A 
ATOM      7  N   LIG    1      -36.403  71.735  28.114  0.00  0.00    -0.220 N 
ATOM      8  N   LIG    1      -35.303  71.275  28.758  0.00  0.00    -0.171 NA
ATOM      9  C   LIG    1      -34.449  72.301  28.721  0.00  0.00    +0.160 A 
ENDROOT
BRANCH   1  14
ATOM     10  C   LIG    1      -32.400  78.239  26.882  0.00  0.00    +0.133 C 
ATOM     11  C   LIG    1      -33.173  76.931  26.868  0.00  0.00    +0.140 C 
ATOM     12  N   LIG    1      -33.846  76.871  28.154  0.00  0.00    -0.283 N 
ATOM     13  C   LIG    1      -34.472  75.756  28.670  0.00  0.00    +0.307 C 
ATOM     14  N   LIG    1      -34.455  74.670  27.821  0.00  0.00    -0.265 N 
ATOM     15  H   LIG    1      -34.016  74.736  26.915  0.00  0.00    +0.157 HD
ATOM     16  O   LIG    1      -34.986  75.762  29.796  0.00  0.00    -0.252 OA
ATOM     17  C   LIG    1      -33.753  78.145  28.850  0.00  0.00    +0.112 C 
ATOM     18  C   LIG    1      -33.247  79.121  27.792  0.00  0.00    +0.052 C 
BRANCH  10  19
ATOM     19  O   LIG    1      -32.286  78.774  25.577  0.00  0.00    -0.390 OA
ATOM     20  H   LIG    1      -32.438  78.048  24.949  0.00  0.00    +0.210 HD
ENDBRANCH  10  19
ENDBRANCH   1  14
BRANCH   4  21
ATOM     21  N   LIG    1      -39.363  73.700  26.005  0.00  0.00    -0.308 N 
ATOM     22  C   LIG    1      -39.365  73.787  24.530  0.00  0.00    +0.108 C 
ATOM     23  C   LIG    1      -39.962  75.176  24.250  0.00  0.00    +0.029 C 
ATOM     24  C   LIG    1      -40.907  75.405  25.417  0.00  0.00    +0.021 C 
ATOM     25  C   LIG    1      -40.129  74.811  26.586  0.00  0.00    +0.107 C 
BRANCH  22  26
ATOM     26  C   LIG    1      -40.139  72.646  23.890  0.00  0.00    +0.011 A 
ATOM     27  C   LIG    1      -39.502  71.419  23.644  0.00  0.00    +0.129 A 
ATOM     28  F   LIG    1      -38.216  71.255  23.987  0.00  0.00    -0.205 F 
ATOM     29  C   LIG    1      -40.179  70.336  23.074  0.00  0.00    +0.041 A 
ATOM     30  C   LIG    1      -41.526  70.460  22.745  0.00  0.00    +0.041 A 
ATOM     31  C   LIG    1      -42.173  71.665  22.991  0.00  0.00    +0.124 A 
ATOM     32  F   LIG    1      -43.475  71.783  22.701  0.00  0.00    -0.205 F 
ATOM     33  C   LIG    1      -41.497  72.749  23.548  0.00  0.00    +0.046 A 
ENDBRANCH  22  26
ENDBRANCH   4  21
TORSDOF 4
ENDMDL
MODEL 7
REMARK VINA RESULT:      -6.1     16.234     18.352
REMARK  Name = pdb/CHEMBL3889654.pdb
REMARK                            x       y       z     vdW  Elec       q    Type
REMARK                         _______ _______ _______ _____ _____    ______ ____
ROOT
ATOM      1  C   LIG    1      -28.250  77.237  12.907  0.00  0.00    +0.099 A 
ATOM      2  C   LIG    1      -26.968  77.744  12.968  0.00  0.00    +0.179 A 
ATOM      3  N   LIG    1      -26.417  78.927  12.532  0.00  0.00    -0.211 NA
ATOM      4  C   LIG    1      -25.156  79.170  12.832  0.00  0.00    +0.126 A 
ATOM      5  C   LIG    1      -24.312  78.162  13.580  0.00  0.00    +0.063 A 
ATOM      6  C   LIG    1      -24.895  77.018  13.954  0.00  0.00    +0.118 A 
ATOM      7  N   LIG    1      -26.227  76.789  13.661  0.00  0.00    -0.220 N 
ATOM      8  N   LIG    1      -26.966  75.702  13.993  0.00  0.00    -0.171 NA
ATOM      9  C   LIG    1      -28.190  75.989  13.546  0.00  0.00    +0.160 A 
ENDROOT
BRANCH   1  14
ATOM     10  C   LIG    1      -32.783  79.863  10.944  0.00  0.00    +0.133 C 
ATOM     11  C   LIG    1      -31.499  79.450  11.642  0.00  0.00    +0.140 C 
ATOM     12  N   LIG    1      -30.840  78.538  10.723  0.00  0.00    -0.283 N 
ATOM     13  C   LIG    1      -29.760  77.739  11.036  0.00  0.00    +0.307 C 
ATOM     14  N   LIG    1      -29.301  77.911  12.324  0.00  0.00    -0.265 N 
ATOM     15  H   LIG    1      -29.745  78.575  12.941  0.00  0.00    +0.157 HD
ATOM     16  O   LIG    1      -29.278  76.949  10.215  0.00  0.00    -0.252 OA
ATOM     17  C   LIG    1      -31.488  78.554   9.420  0.00  0.00    +0.112 C 
ATOM     18  C   LIG    1      -32.410  79.769   9.469  0.00  0.00    +0.052 C 
BRANCH  10  19
ATOM     19  O   LIG    1      -33.163  81.175  11.315  0.00  0.00    -0.390 OA
ATOM     20  H   LIG    1      -34.124  81.245  11.198  0.00  0.00    +0.210 HD
ENDBRANCH  10  19
ENDBRANCH   1  14
BRANCH   4  21
ATOM     21  N   LIG    1      -24.589  80.384  12.451  0.00  0.00    -0.308 N 
ATOM     22  C   LIG    1      -24.699  81.618  13.256  0.00  0.00    +0.108 C 
ATOM     23  C   LIG    1      -24.813  82.730  12.200  0.00  0.00    +0.029 C 
ATOM     24  C   LIG    1      -24.019  82.191  11.021  0.00  0.00    +0.021 C 
ATOM     25  C   LIG    1      -24.385  80.711  11.035  0.00  0.00    +0.107 C 
BRANCH  22  26
ATOM     26  C   LIG    1      -23.523  81.791  14.204  0.00  0.00    +0.011 A 
ATOM     27  C   LIG    1      -23.534  81.156  15.457  0.00  0.00    +0.129 A 
ATOM     28  F   LIG    1      -24.578  80.391  15.806  0.00  0.00    -0.205 F 
ATOM     29  C   LIG    1      -22.467  81.272  16.354  0.00  0.00    +0.041 A 
ATOM     30  C   LIG    1      -21.350  82.026  16.004  0.00  0.00    +0.041 A 
ATOM     31  C   LIG    1      -21.319  82.652  14.763  0.00  0.00    +0.124 A 
ATOM     32  F   LIG    1      -20.238  83.357  14.409  0.00  0.00    -0.205 F 
ATOM     33  C   LIG    1      -22.388  82.548  13.873  0.00  0.00    +0.046 A 
ENDBRANCH  22  26
ENDBRANCH   4  21
TORSDOF 4
ENDMDL
MODEL 8
REMARK VINA RESULT:      -6.1     22.559     25.019
REMARK  Name = pdb/CHEMBL3889654.pdb
REMARK                            x       y       z     vdW  Elec       q    Type
REMARK                         _______ _______ _______ _____ _____    ______ ____
ROOT
ATOM      1  C   LIG    1      -33.704  65.516  19.235  0.00  0.00    +0.099 A 
ATOM      2  C   LIG    1      -32.673  66.087  18.517  0.00  0.00    +0.179 A 
ATOM      3  N   LIG    1      -32.404  67.386  18.154  0.00  0.00    -0.211 NA
ATOM      4  C   LIG    1      -31.263  67.634  17.540  0.00  0.00    +0.126 A 
ATOM      5  C   LIG    1      -30.297  66.525  17.188  0.00  0.00    +0.063 A 
ATOM      6  C   LIG    1      -30.626  65.278  17.542  0.00  0.00    +0.118 A 
ATOM      7  N   LIG    1      -31.811  65.035  18.213  0.00  0.00    -0.220 N 
ATOM      8  N   LIG    1      -32.270  63.843  18.663  0.00  0.00    -0.171 NA
ATOM      9  C   LIG    1      -33.407  64.146  19.292  0.00  0.00    +0.160 A 
ENDROOT
BRANCH   1  14
ATOM     10  C   LIG    1      -37.935  68.753  20.944  0.00  0.00    +0.133 C 
ATOM     11  C   LIG    1      -37.035  67.713  20.300  0.00  0.00    +0.140 C 
ATOM     12  N   LIG    1      -36.002  67.438  21.284  0.00  0.00    -0.283 N 
ATOM     13  C   LIG    1      -34.843  66.731  21.041  0.00  0.00    +0.307 C 
ATOM     14  N   LIG    1      -34.753  66.242  19.755  0.00  0.00    -0.265 N 
ATOM     15  H   LIG    1      -35.495  66.409  19.091  0.00  0.00    +0.157 HD
ATOM     16  O   LIG    1      -33.982  66.575  21.916  0.00  0.00    -0.252 OA
ATOM     17  C   LIG    1      -36.337  68.032  22.569  0.00  0.00    +0.112 C 
ATOM     18  C   LIG    1      -37.800  68.439  22.430  0.00  0.00    +0.052 C 
BRANCH  10  19
ATOM     19  O   LIG    1      -39.269  68.620  20.490  0.00  0.00    -0.390 OA
ATOM     20  H   LIG    1      -39.494  69.430  20.004  0.00  0.00    +0.210 HD
ENDBRANCH  10  19
ENDBRANCH   1  14
BRANCH   4  21
ATOM     21  N   LIG    1      -30.940  68.949  17.211  0.00  0.00    -0.308 N 
ATOM     22  C   LIG    1      -30.287  69.883  18.150  0.00  0.00    +0.108 C 
ATOM     23  C   LIG    1      -30.928  71.241  17.815  0.00  0.00    +0.029 C 
ATOM     24  C   LIG    1      -31.246  71.133  16.333  0.00  0.00    +0.021 C 
ATOM     25  C   LIG    1      -31.715  69.688  16.207  0.00  0.00    +0.107 C 
BRANCH  22  26
ATOM     26  C   LIG    1      -28.773  69.870  18.013  0.00  0.00    +0.011 A 
ATOM     27  C   LIG    1      -27.968  70.249  19.099  0.00  0.00    +0.129 A 
ATOM     28  F   LIG    1      -28.539  70.610  20.257  0.00  0.00    -0.205 F 
ATOM     29  C   LIG    1      -26.572  70.235  19.025  0.00  0.00    +0.041 A 
ATOM     30  C   LIG    1      -25.947  69.824  17.850  0.00  0.00    +0.041 A 
ATOM     31  C   LIG    1      -26.730  69.436  16.769  0.00  0.00    +0.124 A 
ATOM     32  F   LIG    1      -26.137  69.016  15.645  0.00  0.00    -0.205 F 
ATOM     33  C   LIG    1      -28.123  69.462  16.838  0.00  0.00    +0.046 A 
ENDBRANCH  22  26
ENDBRANCH   4  21
TORSDOF 4
ENDMDL
MODEL 9
REMARK VINA RESULT:      -6.0     18.374     20.112
REMARK  Name = pdb/CHEMBL3889654.pdb
REMARK                            x       y       z     vdW  Elec       q    Type
REMARK                         _______ _______ _______ _____ _____    ______ ____
ROOT
ATOM      1  C   LIG    1      -37.842  76.490  25.351  0.00  0.00    +0.099 A 
ATOM      2  C   LIG    1      -38.402  75.280  24.995  0.00  0.00    +0.179 A 
ATOM      3  N   LIG    1      -38.049  73.979  25.269  0.00  0.00    -0.211 NA
ATOM      4  C   LIG    1      -38.858  73.019  24.862  0.00  0.00    +0.126 A 
ATOM      5  C   LIG    1      -40.108  73.323  24.067  0.00  0.00    +0.063 A 
ATOM      6  C   LIG    1      -40.384  74.605  23.807  0.00  0.00    +0.118 A 
ATOM      7  N   LIG    1      -39.545  75.604  24.267  0.00  0.00    -0.220 N 
ATOM      8  N   LIG    1      -39.700  76.942  24.114  0.00  0.00    -0.171 NA
ATOM      9  C   LIG    1      -38.674  77.468  24.786  0.00  0.00    +0.160 A 
ENDROOT
BRANCH   1  14
ATOM     10  C   LIG    1      -33.026  76.561  28.197  0.00  0.00    +0.133 C 
ATOM     11  C   LIG    1      -34.161  76.746  27.205  0.00  0.00    +0.140 C 
ATOM     12  N   LIG    1      -35.375  76.723  28.003  0.00  0.00    -0.283 N 
ATOM     13  C   LIG    1      -36.654  76.625  27.497  0.00  0.00    +0.307 C 
ATOM     14  N   LIG    1      -36.703  76.597  26.120  0.00  0.00    -0.265 N 
ATOM     15  H   LIG    1      -35.855  76.651  25.576  0.00  0.00    +0.157 HD
ATOM     16  O   LIG    1      -37.642  76.563  28.240  0.00  0.00    -0.252 OA
ATOM     17  C   LIG    1      -35.065  76.792  29.423  0.00  0.00    +0.112 C 
ATOM     18  C   LIG    1      -33.590  77.177  29.472  0.00  0.00    +0.052 C 
BRANCH  10  19
ATOM     19  O   LIG    1      -31.855  77.222  27.758  0.00  0.00    -0.390 OA
ATOM     20  H   LIG    1      -32.104  77.793  27.013  0.00  0.00    +0.210 HD
ENDBRANCH  10  19
ENDBRANCH   1  14
BRANCH   4  21
ATOM     21  N   LIG    1      -38.553  71.697  25.174  0.00  0.00    -0.308 N 
ATOM     22  C   LIG    1      -39.453  70.564  24.874  0.00  0.00    +0.108 C 
ATOM     23  C   LIG    1      -39.253  69.616  26.068  0.00  0.00    +0.029 C 
ATOM     24  C   LIG    1      -37.813  69.862  26.486  0.00  0.00    +0.021 C 
ATOM     25  C   LIG    1      -37.676  71.370  26.306  0.00  0.00    +0.107 C 
BRANCH  22  26
ATOM     26  C   LIG    1      -39.146  69.929  23.528  0.00  0.00    +0.011 A 
ATOM     27  C   LIG    1      -40.159  69.805  22.564  0.00  0.00    +0.129 A 
ATOM     28  F   LIG    1      -41.392  70.259  22.831  0.00  0.00    -0.205 F 
ATOM     29  C   LIG    1      -39.919  69.243  21.306  0.00  0.00    +0.041 A 
ATOM     30  C   LIG    1      -38.639  68.800  20.982  0.00  0.00    +0.041 A 
ATOM     31  C   LIG    1      -37.623  68.925  21.921  0.00  0.00    +0.124 A 
ATOM     32  F   LIG    1      -36.385  68.524  21.607  0.00  0.00    -0.205 F 
ATOM     33  C   LIG    1      -37.864  69.472  23.180  0.00  0.00    +0.046 A 
ENDBRANCH  22  26
ENDBRANCH   4  21
TORSDOF 4
ENDMDL
