MODEL 1
REMARK VINA RESULT:      -6.0      0.000      0.000
REMARK  Name = pdb/CHEMBL3675929.pdb
REMARK                            x       y       z     vdW  Elec       q    Type
REMARK                         _______ _______ _______ _____ _____    ______ ____
ROOT
ATOM      1  C   LIG    1      -23.232  79.459  34.734  0.00  0.00    +0.126 A 
ATOM      2  N   LIG    1      -23.407  78.855  33.579  0.00  0.00    -0.212 NA
ATOM      3  C   LIG    1      -24.613  78.244  33.345  0.00  0.00    +0.170 A 
ATOM      4  C   LIG    1      -25.093  77.544  32.252  0.00  0.00    +0.100 A 
ATOM      5  C   LIG    1      -26.385  77.136  32.640  0.00  0.00    +0.150 A 
ATOM      6  N   LIG    1      -26.719  77.544  33.866  0.00  0.00    -0.173 NA
ATOM      7  N   LIG    1      -25.639  78.242  34.289  0.00  0.00    -0.221 N 
ATOM      8  C   LIG    1      -25.487  78.919  35.485  0.00  0.00    +0.118 A 
ATOM      9  C   LIG    1      -24.344  79.559  35.754  0.00  0.00    +0.063 A 
ENDROOT
BRANCH   1  11
ATOM     10  C   LIG    1      -20.891  79.271  35.629  0.00  0.00    +0.107 C 
ATOM     11  N   LIG    1      -21.999  80.036  35.017  0.00  0.00    -0.308 N 
ATOM     12  C   LIG    1      -21.845  81.460  35.305  0.00  0.00    +0.107 C 
ATOM     13  C   LIG    1      -21.016  81.482  36.576  0.00  0.00    +0.021 C 
ATOM     14  C   LIG    1      -20.041  80.342  36.345  0.00  0.00    +0.029 C 
BRANCH  10  18
ATOM     15  F   LIG    1      -17.399  78.939  32.191  0.00  0.00    -0.204 F 
ATOM     16  C   LIG    1      -18.347  78.358  32.936  0.00  0.00    +0.142 A 
ATOM     17  C   LIG    1      -19.103  79.115  33.825  0.00  0.00    +0.046 A 
ATOM     18  C   LIG    1      -20.080  78.490  34.614  0.00  0.00    -0.006 A 
ATOM     19  C   LIG    1      -20.239  77.114  34.430  0.00  0.00    +0.116 A 
ATOM     20  N   LIG    1      -19.524  76.357  33.559  0.00  0.00    -0.260 NA
ATOM     21  C   LIG    1      -18.583  77.000  32.837  0.00  0.00    +0.149 A 
ENDBRANCH  10  18
ENDBRANCH   1  11
BRANCH   4  22
ATOM     22  C   LIG    1      -24.429  77.278  30.990  0.00  0.00    +0.249 C 
ATOM     23  N   LIG    1      -23.050  77.336  31.052  0.00  0.00    -0.308 N 
ATOM     24  H   LIG    1      -22.641  77.563  31.956  0.00  0.00    +0.149 HD
ATOM     25  O   LIG    1      -25.056  77.029  29.970  0.00  0.00    -0.270 OA
BRANCH  23  26
ATOM     26  C   LIG    1      -22.202  77.110  29.931  0.00  0.00    +0.073 C 
ATOM     27  C   LIG    1      -21.054  76.145  30.031  0.00  0.00    +0.024 C 
ATOM     28  C   LIG    1      -20.786  77.617  29.933  0.00  0.00    +0.024 C 
ENDBRANCH  23  26
ENDBRANCH   4  22
TORSDOF 4
ENDMDL
MODEL 2
REMARK VINA RESULT:      -5.7      2.528      5.206
REMARK  Name = pdb/CHEMBL3675929.pdb
REMARK                            x       y       z     vdW  Elec       q    Type
REMARK                         _______ _______ _______ _____ _____    ______ ____
ROOT
ATOM      1  C   LIG    1      -20.231  78.795  33.794  0.00  0.00    +0.126 A 
ATOM      2  N   LIG    1      -20.736  78.327  32.674  0.00  0.00    -0.212 NA
ATOM      3  C   LIG    1      -19.882  77.741  31.774  0.00  0.00    +0.170 A 
ATOM      4  C   LIG    1      -20.103  77.165  30.536  0.00  0.00    +0.100 A 
ATOM      5  C   LIG    1      -18.820  76.780  30.097  0.00  0.00    +0.150 A 
ATOM      6  N   LIG    1      -17.856  77.067  30.974  0.00  0.00    -0.173 NA
ATOM      7  N   LIG    1      -18.512  77.637  32.012  0.00  0.00    -0.221 N 
ATOM      8  C   LIG    1      -17.977  78.076  33.210  0.00  0.00    +0.118 A 
ATOM      9  C   LIG    1      -18.768  78.628  34.136  0.00  0.00    +0.063 A 
ENDROOT
BRANCH   1  11
ATOM     10  C   LIG    1      -22.475  79.769  34.374  0.00  0.00    +0.107 C 
ATOM     11  N   LIG    1      -21.068  79.443  34.696  0.00  0.00    -0.308 N 
ATOM     12  C   LIG    1      -20.564  80.353  35.722  0.00  0.00    +0.107 C 
ATOM     13  C   LIG    1      -21.440  81.584  35.571  0.00  0.00    +0.021 C 
ATOM     14  C   LIG    1      -22.800  80.979  35.275  0.00  0.00    +0.029 C 
BRANCH  10  18
ATOM     15  F   LIG    1      -26.828  77.546  33.897  0.00  0.00    -0.204 F 
ATOM     16  C   LIG    1      -25.570  77.539  34.355  0.00  0.00    +0.142 A 
ATOM     17  C   LIG    1      -24.743  78.639  34.152  0.00  0.00    +0.046 A 
ATOM     18  C   LIG    1      -23.421  78.610  34.619  0.00  0.00    -0.006 A 
ATOM     19  C   LIG    1      -23.026  77.451  35.291  0.00  0.00    +0.116 A 
ATOM     20  N   LIG    1      -23.819  76.372  35.514  0.00  0.00    -0.260 NA
ATOM     21  C   LIG    1      -25.076  76.439  35.028  0.00  0.00    +0.149 A 
ENDBRANCH  10  18
ENDBRANCH   1  11
BRANCH   4  22
ATOM     22  C   LIG    1      -21.360  76.993  29.833  0.00  0.00    +0.249 C 
ATOM     23  N   LIG    1      -22.448  77.556  30.473  0.00  0.00    -0.308 N 
ATOM     24  H   LIG    1      -22.268  78.019  31.362  0.00  0.00    +0.149 HD
ATOM     25  O   LIG    1      -21.430  76.395  28.769  0.00  0.00    -0.270 OA
BRANCH  23  26
ATOM     26  C   LIG    1      -23.776  77.502  29.962  0.00  0.00    +0.073 C 
ATOM     27  C   LIG    1      -24.872  78.298  30.614  0.00  0.00    +0.024 C 
ATOM     28  C   LIG    1      -24.861  76.802  30.733  0.00  0.00    +0.024 C 
ENDBRANCH  23  26
ENDBRANCH   4  22
TORSDOF 4
ENDMDL
MODEL 3
REMARK VINA RESULT:      -5.5      2.817      4.463
REMARK  Name = pdb/CHEMBL3675929.pdb
REMARK                            x       y       z     vdW  Elec       q    Type
REMARK                         _______ _______ _______ _____ _____    ______ ____
ROOT
ATOM      1  C   LIG    1      -23.946  79.002  35.008  0.00  0.00    +0.126 A 
ATOM      2  N   LIG    1      -24.006  78.573  33.766  0.00  0.00    -0.212 NA
ATOM      3  C   LIG    1      -25.143  77.919  33.363  0.00  0.00    +0.170 A 
ATOM      4  C   LIG    1      -25.503  77.363  32.148  0.00  0.00    +0.100 A 
ATOM      5  C   LIG    1      -26.776  76.806  32.384  0.00  0.00    +0.150 A 
ATOM      6  N   LIG    1      -27.210  76.994  33.632  0.00  0.00    -0.173 NA
ATOM      7  N   LIG    1      -26.216  77.695  34.225  0.00  0.00    -0.221 N 
ATOM      8  C   LIG    1      -26.186  78.189  35.517  0.00  0.00    +0.118 A 
ATOM      9  C   LIG    1      -25.116  78.861  35.954  0.00  0.00    +0.063 A 
ENDROOT
BRANCH   1  11
ATOM     10  C   LIG    1      -22.615  81.087  35.454  0.00  0.00    +0.107 C 
ATOM     11  N   LIG    1      -22.782  79.617  35.455  0.00  0.00    -0.308 N 
ATOM     12  C   LIG    1      -21.476  78.965  35.402  0.00  0.00    +0.107 C 
ATOM     13  C   LIG    1      -20.580  80.006  34.756  0.00  0.00    +0.021 C 
ATOM     14  C   LIG    1      -21.088  81.296  35.372  0.00  0.00    +0.029 C 
BRANCH  10  18
ATOM     15  F   LIG    1      -25.931  83.978  37.639  0.00  0.00    -0.204 F 
ATOM     16  C   LIG    1      -24.867  83.170  37.723  0.00  0.00    +0.142 A 
ATOM     17  C   LIG    1      -24.316  82.613  36.574  0.00  0.00    +0.046 A 
ATOM     18  C   LIG    1      -23.213  81.752  36.678  0.00  0.00    -0.006 A 
ATOM     19  C   LIG    1      -22.724  81.526  37.967  0.00  0.00    +0.116 A 
ATOM     20  N   LIG    1      -23.235  82.069  39.101  0.00  0.00    -0.260 NA
ATOM     21  C   LIG    1      -24.307  82.874  38.951  0.00  0.00    +0.149 A 
ENDBRANCH  10  18
ENDBRANCH   1  11
BRANCH   4  22
ATOM     22  C   LIG    1      -24.752  77.344  30.908  0.00  0.00    +0.249 C 
ATOM     23  N   LIG    1      -23.395  77.553  31.064  0.00  0.00    -0.308 N 
ATOM     24  H   LIG    1      -23.061  77.704  32.014  0.00  0.00    +0.149 HD
ATOM     25  O   LIG    1      -25.294  77.162  29.826  0.00  0.00    -0.270 OA
BRANCH  23  26
ATOM     26  C   LIG    1      -22.472  77.577  29.980  0.00  0.00    +0.073 C 
ATOM     27  C   LIG    1      -21.848  76.301  29.487  0.00  0.00    +0.024 C 
ATOM     28  C   LIG    1      -21.011  77.310  30.217  0.00  0.00    +0.024 C 
ENDBRANCH  23  26
ENDBRANCH   4  22
TORSDOF 4
ENDMDL
MODEL 4
REMARK VINA RESULT:      -5.4      1.935      4.859
REMARK  Name = pdb/CHEMBL3675929.pdb
REMARK                            x       y       z     vdW  Elec       q    Type
REMARK                         _______ _______ _______ _____ _____    ______ ____
ROOT
ATOM      1  C   LIG    1      -21.247  77.096  31.363  0.00  0.00    +0.126 A 
ATOM      2  N   LIG    1      -22.231  77.337  32.202  0.00  0.00    -0.212 NA
ATOM      3  C   LIG    1      -23.511  77.363  31.708  0.00  0.00    +0.170 A 
ATOM      4  C   LIG    1      -24.731  77.582  32.323  0.00  0.00    +0.100 A 
ATOM      5  C   LIG    1      -25.667  77.519  31.271  0.00  0.00    +0.150 A 
ATOM      6  N   LIG    1      -25.110  77.270  30.085  0.00  0.00    -0.173 NA
ATOM      7  N   LIG    1      -23.789  77.153  30.357  0.00  0.00    -0.221 N 
ATOM      8  C   LIG    1      -22.769  76.846  29.475  0.00  0.00    +0.118 A 
ATOM      9  C   LIG    1      -21.505  76.776  29.908  0.00  0.00    +0.063 A 
ENDROOT
BRANCH   1  11
ATOM     10  C   LIG    1      -19.316  78.346  32.376  0.00  0.00    +0.107 C 
ATOM     11  N   LIG    1      -19.938  77.120  31.830  0.00  0.00    -0.308 N 
ATOM     12  C   LIG    1      -18.907  76.216  31.326  0.00  0.00    +0.107 C 
ATOM     13  C   LIG    1      -17.745  77.139  31.007  0.00  0.00    +0.021 C 
ATOM     14  C   LIG    1      -17.804  78.138  32.148  0.00  0.00    +0.029 C 
BRANCH  10  18
ATOM     15  F   LIG    1      -20.960  81.131  36.072  0.00  0.00    -0.204 F 
ATOM     16  C   LIG    1      -20.468  79.966  35.632  0.00  0.00    +0.142 A 
ATOM     17  C   LIG    1      -20.137  79.806  34.291  0.00  0.00    +0.046 A 
ATOM     18  C   LIG    1      -19.642  78.574  33.839  0.00  0.00    -0.006 A 
ATOM     19  C   LIG    1      -19.497  77.574  34.803  0.00  0.00    +0.116 A 
ATOM     20  N   LIG    1      -19.799  77.710  36.119  0.00  0.00    -0.260 NA
ATOM     21  C   LIG    1      -20.291  78.907  36.501  0.00  0.00    +0.149 A 
ENDBRANCH  10  18
ENDBRANCH   1  11
BRANCH   4  22
ATOM     22  C   LIG    1      -25.001  77.827  33.727  0.00  0.00    +0.249 C 
ATOM     23  N   LIG    1      -24.194  78.792  34.299  0.00  0.00    -0.308 N 
ATOM     24  H   LIG    1      -23.497  79.223  33.695  0.00  0.00    +0.149 HD
ATOM     25  O   LIG    1      -25.871  77.218  34.334  0.00  0.00    -0.270 OA
BRANCH  23  26
ATOM     26  C   LIG    1      -24.286  79.186  35.664  0.00  0.00    +0.073 C 
ATOM     27  C   LIG    1      -25.503  79.915  36.161  0.00  0.00    +0.024 C 
ATOM     28  C   LIG    1      -24.195  80.638  36.045  0.00  0.00    +0.024 C 
ENDBRANCH  23  26
ENDBRANCH   4  22
TORSDOF 4
ENDMDL
MODEL 5
REMARK VINA RESULT:      -5.4     17.840     20.601
REMARK  Name = pdb/CHEMBL3675929.pdb
REMARK                            x       y       z     vdW  Elec       q    Type
REMARK                         _______ _______ _______ _____ _____    ______ ____
ROOT
ATOM      1  C   LIG    1      -20.382  82.006  14.619  0.00  0.00    +0.126 A 
ATOM      2  N   LIG    1      -21.583  82.106  14.093  0.00  0.00    -0.212 NA
ATOM      3  C   LIG    1      -22.593  81.355  14.641  0.00  0.00    +0.170 A 
ATOM      4  C   LIG    1      -23.935  81.244  14.321  0.00  0.00    +0.100 A 
ATOM      5  C   LIG    1      -24.430  80.283  15.226  0.00  0.00    +0.150 A 
ATOM      6  N   LIG    1      -23.501  79.823  16.065  0.00  0.00    -0.173 NA
ATOM      7  N   LIG    1      -22.379  80.497  15.719  0.00  0.00    -0.221 N 
ATOM      8  C   LIG    1      -21.133  80.424  16.315  0.00  0.00    +0.118 A 
ATOM      9  C   LIG    1      -20.119  81.157  15.842  0.00  0.00    +0.063 A 
ENDROOT
BRANCH   1  11
ATOM     10  C   LIG    1      -19.537  83.684  12.949  0.00  0.00    +0.107 C 
ATOM     11  N   LIG    1      -19.331  82.714  14.047  0.00  0.00    -0.308 N 
ATOM     12  C   LIG    1      -17.964  82.201  14.013  0.00  0.00    +0.107 C 
ATOM     13  C   LIG    1      -17.548  82.383  12.564  0.00  0.00    +0.021 C 
ATOM     14  C   LIG    1      -18.183  83.715  12.210  0.00  0.00    +0.029 C 
BRANCH  10  18
ATOM     15  F   LIG    1      -22.896  86.921  14.485  0.00  0.00    -0.204 F 
ATOM     16  C   LIG    1      -21.622  86.622  14.205  0.00  0.00    +0.142 A 
ATOM     17  C   LIG    1      -21.288  85.365  13.711  0.00  0.00    +0.046 A 
ATOM     18  C   LIG    1      -19.946  85.057  13.442  0.00  0.00    -0.006 A 
ATOM     19  C   LIG    1      -19.018  86.074  13.679  0.00  0.00    +0.116 A 
ATOM     20  N   LIG    1      -19.321  87.312  14.146  0.00  0.00    -0.260 NA
ATOM     21  C   LIG    1      -20.622  87.553  14.409  0.00  0.00    +0.149 A 
ENDBRANCH  10  18
ENDBRANCH   1  11
BRANCH   4  22
ATOM     22  C   LIG    1      -24.676  81.944  13.289  0.00  0.00    +0.249 C 
ATOM     23  N   LIG    1      -24.030  83.056  12.783  0.00  0.00    -0.308 N 
ATOM     24  H   LIG    1      -23.119  83.277  13.180  0.00  0.00    +0.149 HD
ATOM     25  O   LIG    1      -25.779  81.568  12.917  0.00  0.00    -0.270 OA
BRANCH  23  26
ATOM     26  C   LIG    1      -24.578  83.890  11.767  0.00  0.00    +0.073 C 
ATOM     27  C   LIG    1      -23.672  84.655  10.844  0.00  0.00    +0.024 C 
ATOM     28  C   LIG    1      -24.478  85.387  11.875  0.00  0.00    +0.024 C 
ENDBRANCH  23  26
ENDBRANCH   4  22
TORSDOF 4
ENDMDL
MODEL 6
REMARK VINA RESULT:      -5.3      2.103      4.862
REMARK  Name = pdb/CHEMBL3675929.pdb
REMARK                            x       y       z     vdW  Elec       q    Type
REMARK                         _______ _______ _______ _____ _____    ______ ____
ROOT
ATOM      1  C   LIG    1      -20.868  77.756  32.817  0.00  0.00    +0.126 A 
ATOM      2  N   LIG    1      -22.181  77.683  32.825  0.00  0.00    -0.212 NA
ATOM      3  C   LIG    1      -22.828  77.540  31.624  0.00  0.00    +0.170 A 
ATOM      4  C   LIG    1      -24.171  77.433  31.309  0.00  0.00    +0.100 A 
ATOM      5  C   LIG    1      -24.193  77.349  29.902  0.00  0.00    +0.150 A 
ATOM      6  N   LIG    1      -22.977  77.384  29.354  0.00  0.00    -0.173 NA
ATOM      7  N   LIG    1      -22.139  77.479  30.413  0.00  0.00    -0.221 N 
ATOM      8  C   LIG    1      -20.756  77.502  30.396  0.00  0.00    +0.118 A 
ATOM      9  C   LIG    1      -20.072  77.608  31.540  0.00  0.00    +0.063 A 
ENDROOT
BRANCH   1  11
ATOM     10  C   LIG    1      -19.958  79.308  34.573  0.00  0.00    +0.107 C 
ATOM     11  N   LIG    1      -20.193  77.958  34.016  0.00  0.00    -0.308 N 
ATOM     12  C   LIG    1      -19.186  77.026  34.518  0.00  0.00    +0.107 C 
ATOM     13  C   LIG    1      -18.012  77.921  34.870  0.00  0.00    +0.021 C 
ATOM     14  C   LIG    1      -18.700  79.142  35.452  0.00  0.00    +0.029 C 
BRANCH  10  18
ATOM     15  F   LIG    1      -23.089  82.872  35.844  0.00  0.00    -0.204 F 
ATOM     16  C   LIG    1      -22.669  81.606  35.960  0.00  0.00    +0.142 A 
ATOM     17  C   LIG    1      -21.555  81.169  35.252  0.00  0.00    +0.046 A 
ATOM     18  C   LIG    1      -21.137  79.834  35.366  0.00  0.00    -0.006 A 
ATOM     19  C   LIG    1      -21.884  79.024  36.225  0.00  0.00    +0.116 A 
ATOM     20  N   LIG    1      -22.964  79.431  36.938  0.00  0.00    -0.260 NA
ATOM     21  C   LIG    1      -23.339  80.717  36.778  0.00  0.00    +0.149 A 
ENDBRANCH  10  18
ENDBRANCH   1  11
BRANCH   4  22
ATOM     22  C   LIG    1      -25.309  77.416  32.209  0.00  0.00    +0.249 C 
ATOM     23  N   LIG    1      -24.981  77.191  33.532  0.00  0.00    -0.308 N 
ATOM     24  H   LIG    1      -23.995  77.054  33.743  0.00  0.00    +0.149 HD
ATOM     25  O   LIG    1      -26.452  77.584  31.808  0.00  0.00    -0.270 OA
BRANCH  23  26
ATOM     26  C   LIG    1      -25.943  77.132  34.581  0.00  0.00    +0.073 C 
ATOM     27  C   LIG    1      -26.136  78.306  35.500  0.00  0.00    +0.024 C 
ATOM     28  C   LIG    1      -25.499  77.050  36.016  0.00  0.00    +0.024 C 
ENDBRANCH  23  26
ENDBRANCH   4  22
TORSDOF 4
ENDMDL
MODEL 7
REMARK VINA RESULT:      -5.2     17.210     21.173
REMARK  Name = pdb/CHEMBL3675929.pdb
REMARK                            x       y       z     vdW  Elec       q    Type
REMARK                         _______ _______ _______ _____ _____    ______ ____
ROOT
ATOM      1  C   LIG    1      -38.596  68.845  22.037  0.00  0.00    +0.126 A 
ATOM      2  N   LIG    1      -37.632  68.612  22.901  0.00  0.00    -0.212 NA
ATOM      3  C   LIG    1      -36.497  67.987  22.451  0.00  0.00    +0.170 A 
ATOM      4  C   LIG    1      -35.333  67.614  23.100  0.00  0.00    +0.100 A 
ATOM      5  C   LIG    1      -34.566  66.979  22.101  0.00  0.00    +0.150 A 
ATOM      6  N   LIG    1      -35.169  66.955  20.911  0.00  0.00    -0.173 NA
ATOM      7  N   LIG    1      -36.344  67.592  21.122  0.00  0.00    -0.221 N 
ATOM      8  C   LIG    1      -37.328  67.880  20.192  0.00  0.00    +0.118 A 
ATOM      9  C   LIG    1      -38.442  68.516  20.569  0.00  0.00    +0.063 A 
ENDROOT
BRANCH   1  11
ATOM     10  C   LIG    1      -39.972  69.849  23.885  0.00  0.00    +0.107 C 
ATOM     11  N   LIG    1      -39.778  69.426  22.481  0.00  0.00    -0.308 N 
ATOM     12  C   LIG    1      -41.071  69.157  21.856  0.00  0.00    +0.107 C 
ATOM     13  C   LIG    1      -41.974  68.821  23.028  0.00  0.00    +0.021 C 
ATOM     14  C   LIG    1      -41.501  69.797  24.090  0.00  0.00    +0.029 C 
BRANCH  10  18
ATOM     15  F   LIG    1      -40.269  74.751  23.865  0.00  0.00    -0.204 F 
ATOM     16  C   LIG    1      -39.591  73.635  24.159  0.00  0.00    +0.142 A 
ATOM     17  C   LIG    1      -40.119  72.389  23.840  0.00  0.00    +0.046 A 
ATOM     18  C   LIG    1      -39.408  71.226  24.172  0.00  0.00    -0.006 A 
ATOM     19  C   LIG    1      -38.175  71.413  24.802  0.00  0.00    +0.116 A 
ATOM     20  N   LIG    1      -37.632  72.618  25.109  0.00  0.00    -0.260 NA
ATOM     21  C   LIG    1      -38.363  73.706  24.789  0.00  0.00    +0.149 A 
ENDBRANCH  10  18
ENDBRANCH   1  11
BRANCH   4  22
ATOM     22  C   LIG    1      -34.972  67.816  24.490  0.00  0.00    +0.249 C 
ATOM     23  N   LIG    1      -34.963  69.139  24.886  0.00  0.00    -0.308 N 
ATOM     24  H   LIG    1      -35.198  69.832  24.178  0.00  0.00    +0.149 HD
ATOM     25  O   LIG    1      -34.698  66.880  25.229  0.00  0.00    -0.270 OA
BRANCH  23  26
ATOM     26  C   LIG    1      -34.634  69.563  26.205  0.00  0.00    +0.073 C 
ATOM     27  C   LIG    1      -35.719  69.967  27.164  0.00  0.00    +0.024 C 
ATOM     28  C   LIG    1      -34.793  71.005  26.604  0.00  0.00    +0.024 C 
ENDBRANCH  23  26
ENDBRANCH   4  22
TORSDOF 4
ENDMDL
MODEL 8
REMARK VINA RESULT:      -5.2      2.072      4.952
REMARK  Name = pdb/CHEMBL3675929.pdb
REMARK                            x       y       z     vdW  Elec       q    Type
REMARK                         _______ _______ _______ _____ _____    ______ ____
ROOT
ATOM      1  C   LIG    1      -23.705  77.809  32.621  0.00  0.00    +0.126 A 
ATOM      2  N   LIG    1      -22.399  77.735  32.479  0.00  0.00    -0.212 NA
ATOM      3  C   LIG    1      -21.903  77.369  31.253  0.00  0.00    +0.170 A 
ATOM      4  C   LIG    1      -20.607  77.208  30.796  0.00  0.00    +0.100 A 
ATOM      5  C   LIG    1      -20.759  76.785  29.460  0.00  0.00    +0.150 A 
ATOM      6  N   LIG    1      -22.034  76.693  29.079  0.00  0.00    -0.173 NA
ATOM      7  N   LIG    1      -22.735  77.073  30.174  0.00  0.00    -0.221 N 
ATOM      8  C   LIG    1      -24.107  77.200  30.296  0.00  0.00    +0.118 A 
ATOM      9  C   LIG    1      -24.645  77.582  31.459  0.00  0.00    +0.063 A 
ENDROOT
BRANCH   1  11
ATOM     10  C   LIG    1      -23.426  78.060  35.107  0.00  0.00    +0.107 C 
ATOM     11  N   LIG    1      -24.233  78.122  33.868  0.00  0.00    -0.308 N 
ATOM     12  C   LIG    1      -25.650  77.962  34.186  0.00  0.00    +0.107 C 
ATOM     13  C   LIG    1      -25.641  77.200  35.498  0.00  0.00    +0.021 C 
ATOM     14  C   LIG    1      -24.463  77.823  36.225  0.00  0.00    +0.029 C 
BRANCH  10  18
ATOM     15  F   LIG    1      -19.263  80.366  36.320  0.00  0.00    -0.204 F 
ATOM     16  C   LIG    1      -20.544  80.418  35.936  0.00  0.00    +0.142 A 
ATOM     17  C   LIG    1      -21.275  79.247  35.769  0.00  0.00    +0.046 A 
ATOM     18  C   LIG    1      -22.611  79.315  35.346  0.00  0.00    -0.006 A 
ATOM     19  C   LIG    1      -23.129  80.595  35.135  0.00  0.00    +0.116 A 
ATOM     20  N   LIG    1      -22.441  81.752  35.304  0.00  0.00    -0.260 NA
ATOM     21  C   LIG    1      -21.154  81.634  35.692  0.00  0.00    +0.149 A 
ENDBRANCH  10  18
ENDBRANCH   1  11
BRANCH   4  22
ATOM     22  C   LIG    1      -19.365  77.416  31.517  0.00  0.00    +0.249 C 
ATOM     23  N   LIG    1      -19.524  77.616  32.874  0.00  0.00    -0.308 N 
ATOM     24  H   LIG    1      -20.478  77.606  33.230  0.00  0.00    +0.149 HD
ATOM     25  O   LIG    1      -18.281  77.415  30.950  0.00  0.00    -0.270 OA
BRANCH  23  26
ATOM     26  C   LIG    1      -18.440  77.842  33.769  0.00  0.00    +0.073 C 
ATOM     27  C   LIG    1      -17.447  76.749  34.048  0.00  0.00    +0.024 C 
ATOM     28  C   LIG    1      -18.411  77.173  35.116  0.00  0.00    +0.024 C 
ENDBRANCH  23  26
ENDBRANCH   4  22
TORSDOF 4
ENDMDL
MODEL 9
REMARK VINA RESULT:      -5.2     19.007     22.013
REMARK  Name = pdb/CHEMBL3675929.pdb
REMARK                            x       y       z     vdW  Elec       q    Type
REMARK                         _______ _______ _______ _____ _____    ______ ____
ROOT
ATOM      1  C   LIG    1      -20.327  86.035  13.546  0.00  0.00    +0.126 A 
ATOM      2  N   LIG    1      -20.242  84.761  13.860  0.00  0.00    -0.212 NA
ATOM      3  C   LIG    1      -19.044  84.123  13.657  0.00  0.00    +0.170 A 
ATOM      4  C   LIG    1      -18.646  82.818  13.885  0.00  0.00    +0.100 A 
ATOM      5  C   LIG    1      -17.311  82.777  13.434  0.00  0.00    +0.150 A 
ATOM      6  N   LIG    1      -16.877  83.950  12.970  0.00  0.00    -0.173 NA
ATOM      7  N   LIG    1      -17.934  84.781  13.127  0.00  0.00    -0.221 N 
ATOM      8  C   LIG    1      -17.995  86.133  12.843  0.00  0.00    +0.118 A 
ATOM      9  C   LIG    1      -19.128  86.812  13.051  0.00  0.00    +0.063 A 
ENDROOT
BRANCH   1  11
ATOM     10  C   LIG    1      -22.137  87.506  12.608  0.00  0.00    +0.107 C 
ATOM     11  N   LIG    1      -21.546  86.688  13.690  0.00  0.00    -0.308 N 
ATOM     12  C   LIG    1      -22.052  87.131  14.987  0.00  0.00    +0.107 C 
ATOM     13  C   LIG    1      -22.451  88.575  14.742  0.00  0.00    +0.021 C 
ATOM     14  C   LIG    1      -23.041  88.516  13.345  0.00  0.00    +0.029 C 
BRANCH  10  18
ATOM     15  F   LIG    1      -25.830  84.515  11.368  0.00  0.00    -0.204 F 
ATOM     16  C   LIG    1      -24.747  85.221  11.020  0.00  0.00    +0.142 A 
ATOM     17  C   LIG    1      -24.033  85.930  11.981  0.00  0.00    +0.046 A 
ATOM     18  C   LIG    1      -22.912  86.682  11.599  0.00  0.00    -0.006 A 
ATOM     19  C   LIG    1      -22.575  86.647  10.244  0.00  0.00    +0.116 A 
ATOM     20  N   LIG    1      -23.246  85.952   9.291  0.00  0.00    -0.260 NA
ATOM     21  C   LIG    1      -24.329  85.260   9.704  0.00  0.00    +0.149 A 
ENDBRANCH  10  18
ENDBRANCH   1  11
BRANCH   4  22
ATOM     22  C   LIG    1      -19.416  81.727  14.451  0.00  0.00    +0.249 C 
ATOM     23  N   LIG    1      -20.243  82.098  15.494  0.00  0.00    -0.308 N 
ATOM     24  H   LIG    1      -20.227  83.079  15.764  0.00  0.00    +0.149 HD
ATOM     25  O   LIG    1      -19.323  80.583  14.028  0.00  0.00    -0.270 OA
BRANCH  23  26
ATOM     26  C   LIG    1      -21.083  81.186  16.194  0.00  0.00    +0.073 C 
ATOM     27  C   LIG    1      -22.416  80.792  15.623  0.00  0.00    +0.024 C 
ATOM     28  C   LIG    1      -22.354  81.666  16.841  0.00  0.00    +0.024 C 
ENDBRANCH  23  26
ENDBRANCH   4  22
TORSDOF 4
ENDMDL
