MODEL 1
REMARK VINA RESULT:      -6.0      0.000      0.000
REMARK  Name = pdb/CHEMBL3976517.pdb
REMARK                            x       y       z     vdW  Elec       q    Type
REMARK                         _______ _______ _______ _____ _____    ______ ____
ROOT
ATOM      1  C   LIG    1      -20.526  76.848  30.655  0.00  0.00    +0.027 A 
ATOM      2  C   LIG    1      -20.721  77.811  31.653  0.00  0.00    +0.060 A 
ATOM      3  C   LIG    1      -19.600  78.340  32.288  0.00  0.00    +0.157 A 
ATOM      4  N   LIG    1      -18.342  77.955  31.979  0.00  0.00    -0.236 NA
ATOM      5  C   LIG    1      -18.185  77.043  30.996  0.00  0.00    +0.114 A 
ATOM      6  C   LIG    1      -19.236  76.476  30.306  0.00  0.00    +0.031 A 
ENDROOT
BRANCH   1   7
ATOM      7  C   LIG    1      -21.720  76.337  29.934  0.00  0.00    +0.195 C 
ATOM      8  O   LIG    1      -21.727  76.442  28.707  0.00  0.00    -0.287 OA
BRANCH   7  16
ATOM      9  N   LIG    1      -24.067  74.189  31.763  0.00  0.00    -0.343 N 
ATOM     10  C   LIG    1      -24.865  75.304  31.596  0.00  0.00    +0.053 A 
ATOM     11  C   LIG    1      -26.182  75.583  31.980  0.00  0.00    +0.046 A 
ATOM     12  C   LIG    1      -26.664  76.834  31.629  0.00  0.00    +0.113 A 
ATOM     13  N   LIG    1      -25.964  77.771  30.959  0.00  0.00    -0.263 NA
ATOM     14  C   LIG    1      -24.686  77.494  30.601  0.00  0.00    +0.121 A 
ATOM     15  C   LIG    1      -24.101  76.258  30.905  0.00  0.00    +0.029 A 
ATOM     16  C   LIG    1      -22.817  75.674  30.643  0.00  0.00    +0.049 A 
ATOM     17  C   LIG    1      -22.825  74.430  31.219  0.00  0.00    +0.099 A 
BRANCH   9  19
ATOM     18  C   LIG    1      -24.063  71.717  31.573  0.00  0.00    +0.030 C 
ATOM     19  C   LIG    1      -24.476  72.935  32.402  0.00  0.00    +0.081 C 
ATOM     20  C   LIG    1      -23.958  72.823  33.836  0.00  0.00    +0.030 C 
ENDBRANCH   9  19
ENDBRANCH   7  16
ENDBRANCH   1   7
BRANCH   3  21
ATOM     21  N   LIG    1      -19.765  79.336  33.257  0.00  0.00    -0.197 NA
ATOM     22  C   LIG    1      -19.822  79.079  34.525  0.00  0.00    +0.193 C 
BRANCH  22  23
ATOM     23  O   LIG    1      -19.743  77.845  35.064  0.00  0.00    -0.495 OA
ATOM     24  H   LIG    1      -18.870  77.468  34.833  0.00  0.00    +0.293 HD
ENDBRANCH  22  23
BRANCH  22  25
ATOM     25  C   LIG    1      -19.982  80.143  35.576  0.00  0.00    +0.130 C 
BRANCH  25  26
ATOM     26  C   LIG    1      -21.411  80.586  35.775  0.00  0.00    -0.035 A 
ATOM     27  C   LIG    1      -22.478  79.944  35.124  0.00  0.00    +0.050 A 
ATOM     28  C   LIG    1      -23.804  80.344  35.331  0.00  0.00    +0.130 A 
ATOM     29  C   LIG    1      -24.071  81.345  36.263  0.00  0.00    +0.046 A 
ATOM     30  C   LIG    1      -23.018  82.007  36.898  0.00  0.00    +0.004 A 
ATOM     31  C   LIG    1      -21.697  81.636  36.652  0.00  0.00    +0.004 A 
BRANCH  28  32
ATOM     32  O   LIG    1      -24.721  79.672  34.580  0.00  0.00    -0.406 OA
BRANCH  32  33
ATOM     33  C   LIG    1      -25.038  78.325  34.904  0.00  0.00    +0.575 C 
ATOM     34  F   LIG    1      -24.359  77.490  34.087  0.00  0.00    -0.133 F 
ATOM     35  F   LIG    1      -26.363  78.132  34.694  0.00  0.00    -0.133 F 
ATOM     36  F   LIG    1      -24.781  77.995  36.188  0.00  0.00    -0.133 F 
ENDBRANCH  32  33
ENDBRANCH  28  32
ENDBRANCH  25  26
ENDBRANCH  22  25
ENDBRANCH   3  21
TORSDOF 9
ENDMDL
MODEL 2
REMARK VINA RESULT:      -5.7      2.591      7.189
REMARK  Name = pdb/CHEMBL3976517.pdb
REMARK                            x       y       z     vdW  Elec       q    Type
REMARK                         _______ _______ _______ _____ _____    ______ ____
ROOT
ATOM      1  C   LIG    1      -25.861  76.985  33.748  0.00  0.00    +0.027 A 
ATOM      2  C   LIG    1      -24.653  76.711  33.094  0.00  0.00    +0.060 A 
ATOM      3  C   LIG    1      -24.677  76.520  31.715  0.00  0.00    +0.157 A 
ATOM      4  N   LIG    1      -25.818  76.586  30.994  0.00  0.00    -0.236 NA
ATOM      5  C   LIG    1      -26.963  76.876  31.649  0.00  0.00    +0.114 A 
ATOM      6  C   LIG    1      -27.030  77.092  33.009  0.00  0.00    +0.031 A 
ENDROOT
BRANCH   1   7
ATOM      7  C   LIG    1      -25.820  77.254  35.209  0.00  0.00    +0.195 C 
ATOM      8  O   LIG    1      -26.594  76.617  35.923  0.00  0.00    -0.287 OA
BRANCH   7  16
ATOM      9  N   LIG    1      -23.799  80.049  36.461  0.00  0.00    -0.343 N 
ATOM     10  C   LIG    1      -22.992  78.997  36.849  0.00  0.00    +0.053 A 
ATOM     11  C   LIG    1      -21.761  78.952  37.514  0.00  0.00    +0.046 A 
ATOM     12  C   LIG    1      -21.237  77.688  37.733  0.00  0.00    +0.113 A 
ATOM     13  N   LIG    1      -21.821  76.534  37.355  0.00  0.00    -0.263 NA
ATOM     14  C   LIG    1      -23.017  76.589  36.722  0.00  0.00    +0.121 A 
ATOM     15  C   LIG    1      -23.636  77.816  36.448  0.00  0.00    +0.029 A 
ATOM     16  C   LIG    1      -24.853  78.190  35.787  0.00  0.00    +0.049 A 
ATOM     17  C   LIG    1      -24.932  79.557  35.854  0.00  0.00    +0.099 A 
BRANCH   9  19
ATOM     18  C   LIG    1      -22.578  82.002  35.541  0.00  0.00    +0.030 C 
ATOM     19  C   LIG    1      -23.493  81.471  36.646  0.00  0.00    +0.081 C 
ATOM     20  C   LIG    1      -24.758  82.321  36.766  0.00  0.00    +0.030 C 
ENDBRANCH   9  19
ENDBRANCH   7  16
ENDBRANCH   1   7
BRANCH   3  21
ATOM     21  N   LIG    1      -23.478  76.290  31.032  0.00  0.00    -0.197 NA
ATOM     22  C   LIG    1      -23.059  77.055  30.074  0.00  0.00    +0.193 C 
BRANCH  22  23
ATOM     23  O   LIG    1      -23.714  78.140  29.613  0.00  0.00    -0.495 OA
ATOM     24  H   LIG    1      -24.060  78.636  30.382  0.00  0.00    +0.293 HD
ENDBRANCH  22  23
BRANCH  22  25
ATOM     25  C   LIG    1      -21.763  76.827  29.344  0.00  0.00    +0.130 C 
BRANCH  25  26
ATOM     26  C   LIG    1      -20.539  77.128  30.176  0.00  0.00    -0.035 A 
ATOM     27  C   LIG    1      -20.566  78.085  31.204  0.00  0.00    +0.050 A 
ATOM     28  C   LIG    1      -19.435  78.344  31.988  0.00  0.00    +0.130 A 
ATOM     29  C   LIG    1      -18.288  77.577  31.794  0.00  0.00    +0.046 A 
ATOM     30  C   LIG    1      -18.241  76.639  30.760  0.00  0.00    +0.004 A 
ATOM     31  C   LIG    1      -19.356  76.419  29.952  0.00  0.00    +0.004 A 
BRANCH  28  32
ATOM     32  O   LIG    1      -19.594  79.345  32.899  0.00  0.00    -0.406 OA
BRANCH  32  33
ATOM     33  C   LIG    1      -20.337  79.098  34.085  0.00  0.00    +0.575 C 
ATOM     34  F   LIG    1      -21.651  79.305  33.849  0.00  0.00    -0.133 F 
ATOM     35  F   LIG    1      -19.937  79.980  35.034  0.00  0.00    -0.133 F 
ATOM     36  F   LIG    1      -20.167  77.857  34.591  0.00  0.00    -0.133 F 
ENDBRANCH  32  33
ENDBRANCH  28  32
ENDBRANCH  25  26
ENDBRANCH  22  25
ENDBRANCH   3  21
TORSDOF 9
ENDMDL
MODEL 3
REMARK VINA RESULT:      -5.7     10.822     14.738
REMARK  Name = pdb/CHEMBL3976517.pdb
REMARK                            x       y       z     vdW  Elec       q    Type
REMARK                         _______ _______ _______ _____ _____    ______ ____
ROOT
ATOM      1  C   LIG    1      -31.009  86.368  32.213  0.00  0.00    +0.027 A 
ATOM      2  C   LIG    1      -31.598  85.635  31.175  0.00  0.00    +0.060 A 
ATOM      3  C   LIG    1      -32.530  84.654  31.505  0.00  0.00    +0.157 A 
ATOM      4  N   LIG    1      -32.878  84.386  32.783  0.00  0.00    -0.236 NA
ATOM      5  C   LIG    1      -32.311  85.126  33.760  0.00  0.00    +0.114 A 
ATOM      6  C   LIG    1      -31.390  86.125  33.524  0.00  0.00    +0.031 A 
ENDROOT
BRANCH   1   7
ATOM      7  C   LIG    1      -30.067  87.459  31.851  0.00  0.00    +0.195 C 
ATOM      8  O   LIG    1      -29.709  87.529  30.676  0.00  0.00    -0.287 OA
BRANCH   7  16
ATOM      9  N   LIG    1      -29.430  90.314  34.066  0.00  0.00    -0.343 N 
ATOM     10  C   LIG    1      -28.475  89.440  34.546  0.00  0.00    +0.053 A 
ATOM     11  C   LIG    1      -27.520  89.556  35.563  0.00  0.00    +0.046 A 
ATOM     12  C   LIG    1      -26.710  88.449  35.764  0.00  0.00    +0.113 A 
ATOM     13  N   LIG    1      -26.783  87.301  35.062  0.00  0.00    -0.263 NA
ATOM     14  C   LIG    1      -27.719  87.196  34.087  0.00  0.00    +0.121 A 
ATOM     15  C   LIG    1      -28.588  88.257  33.799  0.00  0.00    +0.029 A 
ATOM     16  C   LIG    1      -29.633  88.452  32.836  0.00  0.00    +0.049 A 
ATOM     17  C   LIG    1      -30.146  89.704  33.061  0.00  0.00    +0.099 A 
BRANCH   9  19
ATOM     18  C   LIG    1      -28.887  92.702  33.672  0.00  0.00    +0.030 C 
ATOM     19  C   LIG    1      -29.641  91.687  34.534  0.00  0.00    +0.081 C 
ATOM     20  C   LIG    1      -31.124  92.042  34.627  0.00  0.00    +0.030 C 
ENDBRANCH   9  19
ENDBRANCH   7  16
ENDBRANCH   1   7
BRANCH   3  21
ATOM     21  N   LIG    1      -33.165  83.939  30.485  0.00  0.00    -0.197 NA
ATOM     22  C   LIG    1      -34.454  83.882  30.366  0.00  0.00    +0.193 C 
BRANCH  22  23
ATOM     23  O   LIG    1      -35.331  84.481  31.198  0.00  0.00    -0.495 OA
ATOM     24  H   LIG    1      -35.639  85.306  30.772  0.00  0.00    +0.293 HD
ENDBRANCH  22  23
BRANCH  22  25
ATOM     25  C   LIG    1      -35.148  83.130  29.263  0.00  0.00    +0.130 C 
BRANCH  25  26
ATOM     26  C   LIG    1      -34.931  81.637  29.319  0.00  0.00    -0.035 A 
ATOM     27  C   LIG    1      -34.482  80.917  28.200  0.00  0.00    +0.050 A 
ATOM     28  C   LIG    1      -34.259  79.536  28.264  0.00  0.00    +0.130 A 
ATOM     29  C   LIG    1      -34.410  78.882  29.485  0.00  0.00    +0.046 A 
ATOM     30  C   LIG    1      -34.880  79.582  30.599  0.00  0.00    +0.004 A 
ATOM     31  C   LIG    1      -35.144  80.949  30.516  0.00  0.00    +0.004 A 
BRANCH  28  32
ATOM     32  O   LIG    1      -33.890  78.967  27.081  0.00  0.00    -0.406 OA
BRANCH  32  33
ATOM     33  C   LIG    1      -32.560  78.494  26.919  0.00  0.00    +0.575 C 
ATOM     34  F   LIG    1      -32.174  78.658  25.634  0.00  0.00    -0.133 F 
ATOM     35  F   LIG    1      -32.538  77.167  27.197  0.00  0.00    -0.133 F 
ATOM     36  F   LIG    1      -31.662  79.092  27.731  0.00  0.00    -0.133 F 
ENDBRANCH  32  33
ENDBRANCH  28  32
ENDBRANCH  25  26
ENDBRANCH  22  25
ENDBRANCH   3  21
TORSDOF 9
ENDMDL
MODEL 4
REMARK VINA RESULT:      -5.6      2.531      6.782
REMARK  Name = pdb/CHEMBL3976517.pdb
REMARK                            x       y       z     vdW  Elec       q    Type
REMARK                         _______ _______ _______ _____ _____    ______ ____
ROOT
ATOM      1  C   LIG    1      -25.356  77.461  33.387  0.00  0.00    +0.027 A 
ATOM      2  C   LIG    1      -24.098  77.226  32.818  0.00  0.00    +0.060 A 
ATOM      3  C   LIG    1      -24.040  76.547  31.603  0.00  0.00    +0.157 A 
ATOM      4  N   LIG    1      -25.147  76.109  30.965  0.00  0.00    -0.236 NA
ATOM      5  C   LIG    1      -26.346  76.372  31.526  0.00  0.00    +0.114 A 
ATOM      6  C   LIG    1      -26.499  77.048  32.718  0.00  0.00    +0.031 A 
ENDROOT
BRANCH   1   7
ATOM      7  C   LIG    1      -25.418  78.245  34.648  0.00  0.00    +0.195 C 
ATOM      8  O   LIG    1      -26.499  78.750  34.948  0.00  0.00    -0.287 OA
BRANCH   7  16
ATOM      9  N   LIG    1      -22.508  77.895  36.857  0.00  0.00    -0.343 N 
ATOM     10  C   LIG    1      -22.603  79.272  36.827  0.00  0.00    +0.053 A 
ATOM     11  C   LIG    1      -21.850  80.280  37.441  0.00  0.00    +0.046 A 
ATOM     12  C   LIG    1      -22.252  81.581  37.180  0.00  0.00    +0.113 A 
ATOM     13  N   LIG    1      -23.291  81.925  36.395  0.00  0.00    -0.263 NA
ATOM     14  C   LIG    1      -24.006  80.942  35.797  0.00  0.00    +0.121 A 
ATOM     15  C   LIG    1      -23.688  79.592  35.995  0.00  0.00    +0.029 A 
ATOM     16  C   LIG    1      -24.258  78.358  35.536  0.00  0.00    +0.049 A 
ATOM     17  C   LIG    1      -23.484  77.351  36.052  0.00  0.00    +0.099 A 
BRANCH   9  19
ATOM     18  C   LIG    1      -22.057  76.809  39.040  0.00  0.00    +0.030 C 
ATOM     19  C   LIG    1      -21.535  77.124  37.636  0.00  0.00    +0.081 C 
ATOM     20  C   LIG    1      -21.099  75.849  36.915  0.00  0.00    +0.030 C 
ENDBRANCH   9  19
ENDBRANCH   7  16
ENDBRANCH   1   7
BRANCH   3  21
ATOM     21  N   LIG    1      -22.799  76.340  30.992  0.00  0.00    -0.197 NA
ATOM     22  C   LIG    1      -22.461  76.911  29.880  0.00  0.00    +0.193 C 
BRANCH  22  23
ATOM     23  O   LIG    1      -23.248  77.751  29.176  0.00  0.00    -0.495 OA
ATOM     24  H   LIG    1      -22.783  78.609  29.098  0.00  0.00    +0.293 HD
ENDBRANCH  22  23
BRANCH  22  25
ATOM     25  C   LIG    1      -21.123  76.708  29.222  0.00  0.00    +0.130 C 
BRANCH  25  26
ATOM     26  C   LIG    1      -19.954  77.065  30.107  0.00  0.00    -0.035 A 
ATOM     27  C   LIG    1      -20.074  78.011  31.138  0.00  0.00    +0.050 A 
ATOM     28  C   LIG    1      -18.992  78.322  31.972  0.00  0.00    +0.130 A 
ATOM     29  C   LIG    1      -17.799  77.616  31.823  0.00  0.00    +0.046 A 
ATOM     30  C   LIG    1      -17.660  76.690  30.787  0.00  0.00    +0.004 A 
ATOM     31  C   LIG    1      -18.727  76.419  29.931  0.00  0.00    +0.004 A 
BRANCH  28  32
ATOM     32  O   LIG    1      -19.242  79.306  32.880  0.00  0.00    -0.406 OA
BRANCH  32  33
ATOM     33  C   LIG    1      -20.108  79.043  33.976  0.00  0.00    +0.575 C 
ATOM     34  F   LIG    1      -19.769  79.829  35.021  0.00  0.00    -0.133 F 
ATOM     35  F   LIG    1      -19.943  77.751  34.353  0.00  0.00    -0.133 F 
ATOM     36  F   LIG    1      -21.417  79.217  33.695  0.00  0.00    -0.133 F 
ENDBRANCH  32  33
ENDBRANCH  28  32
ENDBRANCH  25  26
ENDBRANCH  22  25
ENDBRANCH   3  21
TORSDOF 9
ENDMDL
MODEL 5
REMARK VINA RESULT:      -5.5      3.037      3.564
REMARK  Name = pdb/CHEMBL3976517.pdb
REMARK                            x       y       z     vdW  Elec       q    Type
REMARK                         _______ _______ _______ _____ _____    ______ ____
ROOT
ATOM      1  C   LIG    1      -21.458  76.691  30.660  0.00  0.00    +0.027 A 
ATOM      2  C   LIG    1      -21.383  77.087  32.002  0.00  0.00    +0.060 A 
ATOM      3  C   LIG    1      -20.124  77.278  32.564  0.00  0.00    +0.157 A 
ATOM      4  N   LIG    1      -18.982  77.092  31.866  0.00  0.00    -0.236 NA
ATOM      5  C   LIG    1      -19.087  76.734  30.568  0.00  0.00    +0.114 A 
ATOM      6  C   LIG    1      -20.291  76.535  29.926  0.00  0.00    +0.031 A 
ENDROOT
BRANCH   1   7
ATOM      7  C   LIG    1      -22.804  76.554  30.046  0.00  0.00    +0.195 C 
ATOM      8  O   LIG    1      -23.013  77.170  29.000  0.00  0.00    -0.287 OA
BRANCH   7  16
ATOM      9  N   LIG    1      -24.937  73.880  31.373  0.00  0.00    -0.343 N 
ATOM     10  C   LIG    1      -25.775  74.959  31.580  0.00  0.00    +0.053 A 
ATOM     11  C   LIG    1      -27.062  75.059  32.120  0.00  0.00    +0.046 A 
ATOM     12  C   LIG    1      -27.603  76.335  32.164  0.00  0.00    +0.113 A 
ATOM     13  N   LIG    1      -26.984  77.451  31.731  0.00  0.00    -0.263 NA
ATOM     14  C   LIG    1      -25.734  77.343  31.220  0.00  0.00    +0.121 A 
ATOM     15  C   LIG    1      -25.094  76.100  31.126  0.00  0.00    +0.029 A 
ATOM     16  C   LIG    1      -23.822  75.672  30.621  0.00  0.00    +0.049 A 
ATOM     17  C   LIG    1      -23.751  74.319  30.828  0.00  0.00    +0.099 A 
BRANCH   9  19
ATOM     18  C   LIG    1      -24.837  71.550  30.529  0.00  0.00    +0.030 C 
ATOM     19  C   LIG    1      -25.261  72.481  31.668  0.00  0.00    +0.081 C 
ATOM     20  C   LIG    1      -24.670  72.021  33.000  0.00  0.00    +0.030 C 
ENDBRANCH   9  19
ENDBRANCH   7  16
ENDBRANCH   1   7
BRANCH   3  21
ATOM     21  N   LIG    1      -20.022  77.717  33.889  0.00  0.00    -0.197 NA
ATOM     22  C   LIG    1      -19.524  78.868  34.210  0.00  0.00    +0.193 C 
BRANCH  22  23
ATOM     23  O   LIG    1      -19.036  79.768  33.331  0.00  0.00    -0.495 OA
ATOM     24  H   LIG    1      -18.826  79.297  32.499  0.00  0.00    +0.293 HD
ENDBRANCH  22  23
BRANCH  22  25
ATOM     25  C   LIG    1      -19.425  79.357  35.629  0.00  0.00    +0.130 C 
BRANCH  25  26
ATOM     26  C   LIG    1      -20.469  80.388  35.987  0.00  0.00    -0.035 A 
ATOM     27  C   LIG    1      -20.277  81.291  37.046  0.00  0.00    +0.050 A 
ATOM     28  C   LIG    1      -21.238  82.261  37.359  0.00  0.00    +0.130 A 
ATOM     29  C   LIG    1      -22.368  82.379  36.551  0.00  0.00    +0.046 A 
ATOM     30  C   LIG    1      -22.581  81.472  35.511  0.00  0.00    +0.004 A 
ATOM     31  C   LIG    1      -21.642  80.479  35.234  0.00  0.00    +0.004 A 
BRANCH  28  32
ATOM     32  O   LIG    1      -20.942  83.019  38.452  0.00  0.00    -0.406 OA
BRANCH  32  33
ATOM     33  C   LIG    1      -19.990  84.068  38.337  0.00  0.00    +0.575 C 
ATOM     34  F   LIG    1      -19.913  84.472  37.049  0.00  0.00    -0.133 F 
ATOM     35  F   LIG    1      -18.775  83.586  38.698  0.00  0.00    -0.133 F 
ATOM     36  F   LIG    1      -20.251  85.135  39.122  0.00  0.00    -0.133 F 
ENDBRANCH  32  33
ENDBRANCH  28  32
ENDBRANCH  25  26
ENDBRANCH  22  25
ENDBRANCH   3  21
TORSDOF 9
ENDMDL
MODEL 6
REMARK VINA RESULT:      -5.4      2.119      6.581
REMARK  Name = pdb/CHEMBL3976517.pdb
REMARK                            x       y       z     vdW  Elec       q    Type
REMARK                         _______ _______ _______ _____ _____    ______ ____
ROOT
ATOM      1  C   LIG    1      -18.255  78.726  34.363  0.00  0.00    +0.027 A 
ATOM      2  C   LIG    1      -19.375  78.549  33.541  0.00  0.00    +0.060 A 
ATOM      3  C   LIG    1      -19.167  78.165  32.218  0.00  0.00    +0.157 A 
ATOM      4  N   LIG    1      -17.933  77.964  31.706  0.00  0.00    -0.236 NA
ATOM      5  C   LIG    1      -16.875  78.119  32.531  0.00  0.00    +0.114 A 
ATOM      6  C   LIG    1      -16.987  78.484  33.856  0.00  0.00    +0.031 A 
ENDROOT
BRANCH   1   7
ATOM      7  C   LIG    1      -18.484  79.070  35.791  0.00  0.00    +0.195 C 
ATOM      8  O   LIG    1      -17.518  79.000  36.551  0.00  0.00    -0.287 OA
BRANCH   7  16
ATOM      9  N   LIG    1      -21.514  80.820  36.898  0.00  0.00    -0.343 N 
ATOM     10  C   LIG    1      -21.941  79.515  37.045  0.00  0.00    +0.053 A 
ATOM     11  C   LIG    1      -23.151  78.967  37.487  0.00  0.00    +0.046 A 
ATOM     12  C   LIG    1      -23.217  77.582  37.507  0.00  0.00    +0.113 A 
ATOM     13  N   LIG    1      -22.219  76.756  37.138  0.00  0.00    -0.263 NA
ATOM     14  C   LIG    1      -21.056  77.298  36.702  0.00  0.00    +0.121 A 
ATOM     15  C   LIG    1      -20.881  78.687  36.644  0.00  0.00    +0.029 A 
ATOM     16  C   LIG    1      -19.789  79.536  36.266  0.00  0.00    +0.049 A 
ATOM     17  C   LIG    1      -20.231  80.827  36.396  0.00  0.00    +0.099 A 
BRANCH   9  19
ATOM     18  C   LIG    1      -21.386  83.178  37.655  0.00  0.00    +0.030 C 
ATOM     19  C   LIG    1      -22.290  82.015  37.238  0.00  0.00    +0.081 C 
ATOM     20  C   LIG    1      -23.232  82.432  36.108  0.00  0.00    +0.030 C 
ENDBRANCH   9  19
ENDBRANCH   7  16
ENDBRANCH   1   7
BRANCH   3  21
ATOM     21  N   LIG    1      -20.270  77.938  31.388  0.00  0.00    -0.197 NA
ATOM     22  C   LIG    1      -20.463  76.816  30.769  0.00  0.00    +0.193 C 
BRANCH  22  23
ATOM     23  O   LIG    1      -19.638  75.750  30.833  0.00  0.00    -0.495 OA
ATOM     24  H   LIG    1      -20.096  74.987  30.426  0.00  0.00    +0.293 HD
ENDBRANCH  22  23
BRANCH  22  25
ATOM     25  C   LIG    1      -21.654  76.555  29.888  0.00  0.00    +0.130 C 
BRANCH  25  26
ATOM     26  C   LIG    1      -22.937  76.338  30.653  0.00  0.00    -0.035 A 
ATOM     27  C   LIG    1      -23.556  77.382  31.362  0.00  0.00    +0.050 A 
ATOM     28  C   LIG    1      -24.758  77.181  32.051  0.00  0.00    +0.130 A 
ATOM     29  C   LIG    1      -25.391  75.943  31.962  0.00  0.00    +0.046 A 
ATOM     30  C   LIG    1      -24.774  74.891  31.281  0.00  0.00    +0.004 A 
ATOM     31  C   LIG    1      -23.553  75.084  30.636  0.00  0.00    +0.004 A 
BRANCH  28  32
ATOM     32  O   LIG    1      -25.200  78.268  32.745  0.00  0.00    -0.406 OA
BRANCH  32  33
ATOM     33  C   LIG    1      -24.590  78.600  33.985  0.00  0.00    +0.575 C 
ATOM     34  F   LIG    1      -23.688  79.589  33.794  0.00  0.00    -0.133 F 
ATOM     35  F   LIG    1      -23.927  77.510  34.444  0.00  0.00    -0.133 F 
ATOM     36  F   LIG    1      -25.463  78.975  34.944  0.00  0.00    -0.133 F 
ENDBRANCH  32  33
ENDBRANCH  28  32
ENDBRANCH  25  26
ENDBRANCH  22  25
ENDBRANCH   3  21
TORSDOF 9
ENDMDL
MODEL 7
REMARK VINA RESULT:      -5.3     12.258     16.458
REMARK  Name = pdb/CHEMBL3976517.pdb
REMARK                            x       y       z     vdW  Elec       q    Type
REMARK                         _______ _______ _______ _____ _____    ______ ____
ROOT
ATOM      1  C   LIG    1      -36.039  81.511  28.794  0.00  0.00    +0.027 A 
ATOM      2  C   LIG    1      -37.141  80.760  28.367  0.00  0.00    +0.060 A 
ATOM      3  C   LIG    1      -38.081  81.376  27.544  0.00  0.00    +0.157 A 
ATOM      4  N   LIG    1      -37.966  82.663  27.150  0.00  0.00    -0.236 NA
ATOM      5  C   LIG    1      -36.880  83.354  27.558  0.00  0.00    +0.114 A 
ATOM      6  C   LIG    1      -35.895  82.821  28.363  0.00  0.00    +0.031 A 
ENDROOT
BRANCH   1   7
ATOM      7  C   LIG    1      -35.005  80.830  29.616  0.00  0.00    +0.195 C 
ATOM      8  O   LIG    1      -34.518  81.465  30.551  0.00  0.00    -0.287 OA
BRANCH   7  16
ATOM      9  N   LIG    1      -34.383  77.214  29.525  0.00  0.00    -0.343 N 
ATOM     10  C   LIG    1      -33.695  77.590  28.388  0.00  0.00    +0.053 A 
ATOM     11  C   LIG    1      -32.957  76.857  27.451  0.00  0.00    +0.046 A 
ATOM     12  C   LIG    1      -32.390  77.589  26.420  0.00  0.00    +0.113 A 
ATOM     13  N   LIG    1      -32.501  78.923  26.268  0.00  0.00    -0.263 NA
ATOM     14  C   LIG    1      -33.226  79.621  27.175  0.00  0.00    +0.121 A 
ATOM     15  C   LIG    1      -33.840  78.980  28.259  0.00  0.00    +0.029 A 
ATOM     16  C   LIG    1      -34.626  79.436  29.369  0.00  0.00    +0.049 A 
ATOM     17  C   LIG    1      -34.970  78.324  30.092  0.00  0.00    +0.099 A 
BRANCH   9  19
ATOM     18  C   LIG    1      -33.537  75.662  31.264  0.00  0.00    +0.030 C 
ATOM     19  C   LIG    1      -34.465  75.853  30.062  0.00  0.00    +0.081 C 
ATOM     20  C   LIG    1      -35.899  75.455  30.409  0.00  0.00    +0.030 C 
ENDBRANCH   9  19
ENDBRANCH   7  16
ENDBRANCH   1   7
BRANCH   3  21
ATOM     21  N   LIG    1      -39.167  80.635  27.068  0.00  0.00    -0.197 NA
ATOM     22  C   LIG    1      -39.529  80.641  25.824  0.00  0.00    +0.193 C 
BRANCH  22  23
ATOM     23  O   LIG    1      -38.928  81.356  24.851  0.00  0.00    -0.495 OA
ATOM     24  H   LIG    1      -39.604  81.589  24.183  0.00  0.00    +0.293 HD
ENDBRANCH  22  23
BRANCH  22  25
ATOM     25  C   LIG    1      -40.685  79.835  25.297  0.00  0.00    +0.130 C 
BRANCH  25  26
ATOM     26  C   LIG    1      -40.330  78.401  24.985  0.00  0.00    -0.035 A 
ATOM     27  C   LIG    1      -39.561  77.625  25.867  0.00  0.00    +0.050 A 
ATOM     28  C   LIG    1      -39.254  76.288  25.584  0.00  0.00    +0.130 A 
ATOM     29  C   LIG    1      -39.793  75.698  24.442  0.00  0.00    +0.046 A 
ATOM     30  C   LIG    1      -40.540  76.466  23.545  0.00  0.00    +0.004 A 
ATOM     31  C   LIG    1      -40.802  77.809  23.810  0.00  0.00    +0.004 A 
BRANCH  28  32
ATOM     32  O   LIG    1      -38.444  75.687  26.500  0.00  0.00    -0.406 OA
BRANCH  32  33
ATOM     33  C   LIG    1      -37.074  76.056  26.570  0.00  0.00    +0.575 C 
ATOM     34  F   LIG    1      -36.603  76.291  25.325  0.00  0.00    -0.133 F 
ATOM     35  F   LIG    1      -36.375  75.018  27.092  0.00  0.00    -0.133 F 
ATOM     36  F   LIG    1      -36.835  77.135  27.346  0.00  0.00    -0.133 F 
ENDBRANCH  32  33
ENDBRANCH  28  32
ENDBRANCH  25  26
ENDBRANCH  22  25
ENDBRANCH   3  21
TORSDOF 9
ENDMDL
MODEL 8
REMARK VINA RESULT:      -5.3     15.486     18.254
REMARK  Name = pdb/CHEMBL3976517.pdb
REMARK                            x       y       z     vdW  Elec       q    Type
REMARK                         _______ _______ _______ _____ _____    ______ ____
ROOT
ATOM      1  C   LIG    1      -20.710  80.426  15.950  0.00  0.00    +0.027 A 
ATOM      2  C   LIG    1      -20.759  79.026  15.943  0.00  0.00    +0.060 A 
ATOM      3  C   LIG    1      -19.556  78.324  15.910  0.00  0.00    +0.157 A 
ATOM      4  N   LIG    1      -18.356  78.943  15.880  0.00  0.00    -0.236 NA
ATOM      5  C   LIG    1      -18.341  80.293  15.912  0.00  0.00    +0.114 A 
ATOM      6  C   LIG    1      -19.480  81.068  15.959  0.00  0.00    +0.031 A 
ENDROOT
BRANCH   1   7
ATOM      7  C   LIG    1      -21.992  81.169  16.054  0.00  0.00    +0.195 C 
ATOM      8  O   LIG    1      -22.130  81.927  17.015  0.00  0.00    -0.287 OA
BRANCH   7  16
ATOM      9  N   LIG    1      -24.277  81.374  13.190  0.00  0.00    -0.343 N 
ATOM     10  C   LIG    1      -24.870  80.333  13.877  0.00  0.00    +0.053 A 
ATOM     11  C   LIG    1      -26.006  79.559  13.613  0.00  0.00    +0.046 A 
ATOM     12  C   LIG    1      -26.307  78.585  14.552  0.00  0.00    +0.113 A 
ATOM     13  N   LIG    1      -25.596  78.345  15.671  0.00  0.00    -0.263 NA
ATOM     14  C   LIG    1      -24.492  79.093  15.911  0.00  0.00    +0.121 A 
ATOM     15  C   LIG    1      -24.098  80.107  15.028  0.00  0.00    +0.029 A 
ATOM     16  C   LIG    1      -23.026  81.060  15.022  0.00  0.00    +0.049 A 
ATOM     17  C   LIG    1      -23.149  81.784  13.865  0.00  0.00    +0.099 A 
BRANCH   9  19
ATOM     18  C   LIG    1      -24.564  83.484  11.918  0.00  0.00    +0.030 C 
ATOM     19  C   LIG    1      -24.775  81.968  11.946  0.00  0.00    +0.081 C 
ATOM     20  C   LIG    1      -24.167  81.308  10.709  0.00  0.00    +0.030 C 
ENDBRANCH   9  19
ENDBRANCH   7  16
ENDBRANCH   1   7
BRANCH   3  21
ATOM     21  N   LIG    1      -19.576  76.926  15.947  0.00  0.00    -0.197 NA
ATOM     22  C   LIG    1      -18.821  76.193  15.193  0.00  0.00    +0.193 C 
BRANCH  22  23
ATOM     23  O   LIG    1      -17.945  76.671  14.284  0.00  0.00    -0.495 OA
ATOM     24  H   LIG    1      -18.443  76.897  13.472  0.00  0.00    +0.293 HD
ENDBRANCH  22  23
BRANCH  22  25
ATOM     25  C   LIG    1      -18.821  74.689  15.237  0.00  0.00    +0.130 C 
BRANCH  25  26
ATOM     26  C   LIG    1      -19.110  74.124  16.606  0.00  0.00    -0.035 A 
ATOM     27  C   LIG    1      -20.200  73.268  16.834  0.00  0.00    +0.050 A 
ATOM     28  C   LIG    1      -20.450  72.728  18.102  0.00  0.00    +0.130 A 
ATOM     29  C   LIG    1      -19.550  72.983  19.135  0.00  0.00    +0.046 A 
ATOM     30  C   LIG    1      -18.475  73.851  18.927  0.00  0.00    +0.004 A 
ATOM     31  C   LIG    1      -18.259  74.423  17.674  0.00  0.00    +0.004 A 
BRANCH  28  32
ATOM     32  O   LIG    1      -21.581  71.972  18.182  0.00  0.00    -0.406 OA
BRANCH  32  33
ATOM     33  C   LIG    1      -22.710  72.476  18.882  0.00  0.00    +0.575 C 
ATOM     34  F   LIG    1      -23.819  71.806  18.496  0.00  0.00    -0.133 F 
ATOM     35  F   LIG    1      -22.873  73.781  18.553  0.00  0.00    -0.133 F 
ATOM     36  F   LIG    1      -22.598  72.410  20.226  0.00  0.00    -0.133 F 
ENDBRANCH  32  33
ENDBRANCH  28  32
ENDBRANCH  25  26
ENDBRANCH  22  25
ENDBRANCH   3  21
TORSDOF 9
ENDMDL
MODEL 9
REMARK VINA RESULT:      -5.3     18.798     21.298
REMARK  Name = pdb/CHEMBL3976517.pdb
REMARK                            x       y       z     vdW  Elec       q    Type
REMARK                         _______ _______ _______ _____ _____    ______ ____
ROOT
ATOM      1  C   LIG    1      -18.994  83.747  12.332  0.00  0.00    +0.027 A 
ATOM      2  C   LIG    1      -19.769  82.726  12.896  0.00  0.00    +0.060 A 
ATOM      3  C   LIG    1      -19.174  81.888  13.836  0.00  0.00    +0.157 A 
ATOM      4  N   LIG    1      -17.884  82.024  14.215  0.00  0.00    -0.236 NA
ATOM      5  C   LIG    1      -17.170  83.033  13.672  0.00  0.00    +0.114 A 
ATOM      6  C   LIG    1      -17.680  83.917  12.745  0.00  0.00    +0.031 A 
ENDROOT
BRANCH   1   7
ATOM      7  C   LIG    1      -19.652  84.680  11.381  0.00  0.00    +0.195 C 
ATOM      8  O   LIG    1      -19.157  84.785  10.259  0.00  0.00    -0.287 OA
BRANCH   7  16
ATOM      9  N   LIG    1      -22.956  86.238  11.733  0.00  0.00    -0.343 N 
ATOM     10  C   LIG    1      -22.362  86.706  12.889  0.00  0.00    +0.053 A 
ATOM     11  C   LIG    1      -22.828  87.535  13.916  0.00  0.00    +0.046 A 
ATOM     12  C   LIG    1      -21.928  87.800  14.936  0.00  0.00    +0.113 A 
ATOM     13  N   LIG    1      -20.669  87.324  14.998  0.00  0.00    -0.263 NA
ATOM     14  C   LIG    1      -20.232  86.514  14.004  0.00  0.00    +0.121 A 
ATOM     15  C   LIG    1      -21.059  86.184  12.923  0.00  0.00    +0.029 A 
ATOM     16  C   LIG    1      -20.879  85.397  11.737  0.00  0.00    +0.049 A 
ATOM     17  C   LIG    1      -22.071  85.423  11.062  0.00  0.00    +0.099 A 
BRANCH   9  19
ATOM     18  C   LIG    1      -24.364  87.949  10.619  0.00  0.00    +0.030 C 
ATOM     19  C   LIG    1      -24.309  86.567  11.276  0.00  0.00    +0.081 C 
ATOM     20  C   LIG    1      -24.880  85.497  10.347  0.00  0.00    +0.030 C 
ENDBRANCH   9  19
ENDBRANCH   7  16
ENDBRANCH   1   7
BRANCH   3  21
ATOM     21  N   LIG    1      -19.939  80.888  14.447  0.00  0.00    -0.197 NA
ATOM     22  C   LIG    1      -20.515  81.050  15.596  0.00  0.00    +0.193 C 
BRANCH  22  23
ATOM     23  O   LIG    1      -20.445  82.173  16.341  0.00  0.00    -0.495 OA
ATOM     24  H   LIG    1      -21.094  82.095  17.069  0.00  0.00    +0.293 HD
ENDBRANCH  22  23
BRANCH  22  25
ATOM     25  C   LIG    1      -21.354  79.989  16.254  0.00  0.00    +0.130 C 
BRANCH  25  26
ATOM     26  C   LIG    1      -22.690  79.774  15.586  0.00  0.00    -0.035 A 
ATOM     27  C   LIG    1      -23.404  80.837  15.009  0.00  0.00    +0.050 A 
ATOM     28  C   LIG    1      -24.633  80.628  14.370  0.00  0.00    +0.130 A 
ATOM     29  C   LIG    1      -25.112  79.326  14.236  0.00  0.00    +0.046 A 
ATOM     30  C   LIG    1      -24.424  78.264  14.826  0.00  0.00    +0.004 A 
ATOM     31  C   LIG    1      -23.225  78.485  15.502  0.00  0.00    +0.004 A 
BRANCH  28  32
ATOM     32  O   LIG    1      -25.237  81.764  13.920  0.00  0.00    -0.406 OA
BRANCH  32  33
ATOM     33  C   LIG    1      -24.862  82.301  12.659  0.00  0.00    +0.575 C 
ATOM     34  F   LIG    1      -23.980  83.309  12.839  0.00  0.00    -0.133 F 
ATOM     35  F   LIG    1      -25.968  82.813  12.064  0.00  0.00    -0.133 F 
ATOM     36  F   LIG    1      -24.331  81.394  11.811  0.00  0.00    -0.133 F 
ENDBRANCH  32  33
ENDBRANCH  28  32
ENDBRANCH  25  26
ENDBRANCH  22  25
ENDBRANCH   3  21
TORSDOF 9
ENDMDL
