MODEL 1
REMARK VINA RESULT:      -6.6      0.000      0.000
REMARK  Name = pdb/CHEMBL3942203.pdb
REMARK                            x       y       z     vdW  Elec       q    Type
REMARK                         _______ _______ _______ _____ _____    ______ ____
ROOT
ATOM      1  C   UNK A  0      -36.510  76.863  26.761  0.00  0.00    +0.149 A 
ATOM      2  N   UNK A  0      -37.542  77.598  26.334  0.00  0.00    -0.160 NA
ATOM      3  N   UNK A  0      -38.362  76.737  25.684  0.00  0.00    -0.218 N 
ATOM      4  C   UNK A  0      -37.761  75.478  25.524  0.00  0.00    +0.129 A 
ATOM      5  C   UNK A  0      -36.584  75.555  26.240  0.00  0.00    +0.078 A 
ENDROOT
BRANCH   3   6
ATOM      6  C   UNK A  0      -39.629  77.224  25.250  0.00  0.00    +0.067 A 
ATOM      7  C   UNK A  0      -40.072  77.093  23.931  0.00  0.00    +0.028 A 
ATOM      8  C   UNK A  0      -41.345  77.563  23.576  0.00  0.00    +0.002 A 
ATOM      9  C   UNK A  0      -42.174  78.162  24.526  0.00  0.00    +0.000 A 
ATOM     10  C   UNK A  0      -41.746  78.275  25.844  0.00  0.00    +0.002 A 
ATOM     11  C   UNK A  0      -40.488  77.794  26.208  0.00  0.00    +0.028 A 
ENDBRANCH   3   6
BRANCH   4  12
ATOM     12  N   UNK A  0      -38.181  74.384  24.747  0.00  0.00    -0.266 N 
ATOM     13  H   UNK A  0      -37.644  74.171  23.910  0.00  0.00    +0.157 HD
ATOM     14  C   UNK A  0      -39.296  73.537  25.098  0.00  0.00    +0.251 C 
ATOM     15  O   UNK A  0      -39.949  73.741  26.124  0.00  0.00    -0.270 OA
BRANCH  14  16
ATOM     16  C   UNK A  0      -39.655  72.385  24.246  0.00  0.00    +0.056 A 
ATOM     17  C   UNK A  0      -40.867  72.279  23.565  0.00  0.00    +0.054 A 
ATOM     18 CL   UNK A  0      -42.100  73.478  23.623  0.00  0.00    -0.083 Cl
ATOM     19  C   UNK A  0      -41.131  71.136  22.815  0.00  0.00    +0.041 A 
ATOM     20  C   UNK A  0      -40.210  70.077  22.737  0.00  0.00    +0.052 A 
ATOM     21 CL   UNK A  0      -40.668  68.822  21.637  0.00  0.00    -0.083 Cl
ATOM     22  C   UNK A  0      -38.997  70.110  23.453  0.00  0.00    +0.022 A 
ATOM     23  C   UNK A  0      -38.747  71.300  24.187  0.00  0.00    +0.026 A 
BRANCH  22  24
ATOM     24  C   UNK A  0      -37.972  69.024  23.472  0.00  0.00    +0.107 A 
ATOM     25  C   UNK A  0      -37.096  68.727  22.424  0.00  0.00    +0.149 A 
ATOM     26  F   UNK A  0      -37.157  69.355  21.243  0.00  0.00    -0.203 F 
ATOM     27  C   UNK A  0      -36.152  67.713  22.560  0.00  0.00    +0.042 A 
ATOM     28  C   UNK A  0      -36.133  66.955  23.720  0.00  0.00    +0.023 A 
ATOM     29  C   UNK A  0      -37.064  67.253  24.699  0.00  0.00    +0.111 A 
ATOM     30  N   UNK A  0      -37.968  68.264  24.608  0.00  0.00    -0.252 NA
ENDBRANCH  22  24
ENDBRANCH  14  16
ENDBRANCH   4  12
BRANCH   1  32
ATOM     31  N   ALA A  1      -34.302  77.668  27.083  0.00  0.00    -0.244 NA
ATOM     32  C   UNK A  0      -35.447  77.403  27.602  0.00  0.00    +0.236 C 
BRANCH  31  34
ATOM     33  CB  ALA A  1      -32.335  76.937  28.286  0.00  0.00    +0.035 C 
ATOM     34  CA  ALA A  1      -33.176  78.156  27.891  0.00  0.00    +0.131 C 
BRANCH  34  35
ATOM     35  C   ALA A  1      -32.298  79.120  27.082  0.00  0.00    +0.182 C 
BRANCH  35  36
ATOM     36  O   ALA A  1      -32.327  78.785  25.694  0.00  0.00    -0.393 OA
ATOM     37  H   ALA A  1      -32.254  77.811  25.644  0.00  0.00    +0.209 HD
ENDBRANCH  35  36
ENDBRANCH  34  35
ENDBRANCH  31  34
BRANCH  32  38
ATOM     38  O   UNK A  0      -35.798  77.623  28.884  0.00  0.00    -0.491 OA
ATOM     39  H   UNK A  0      -36.709  77.966  28.941  0.00  0.00    +0.294 HD
ENDBRANCH  32  38
ENDBRANCH   1  32
TORSDOF 9
ENDMDL
MODEL 2
REMARK VINA RESULT:      -6.4     18.712     23.282
REMARK  Name = pdb/CHEMBL3942203.pdb
REMARK                            x       y       z     vdW  Elec       q    Type
REMARK                         _______ _______ _______ _____ _____    ______ ____
ROOT
ATOM      1  C   UNK A  0      -24.283  79.005  14.371  0.00  0.00    +0.149 A 
ATOM      2  N   UNK A  0      -23.331  78.161  14.783  0.00  0.00    -0.160 NA
ATOM      3  N   UNK A  0      -22.174  78.865  14.743  0.00  0.00    -0.218 N 
ATOM      4  C   UNK A  0      -22.352  80.109  14.118  0.00  0.00    +0.129 A 
ATOM      5  C   UNK A  0      -23.712  80.207  13.905  0.00  0.00    +0.078 A 
ENDROOT
BRANCH   3   6
ATOM      6  C   UNK A  0      -21.004  78.253  15.279  0.00  0.00    +0.067 A 
ATOM      7  C   UNK A  0      -20.074  78.957  16.048  0.00  0.00    +0.028 A 
ATOM      8  C   UNK A  0      -18.960  78.287  16.577  0.00  0.00    +0.002 A 
ATOM      9  C   UNK A  0      -18.771  76.924  16.341  0.00  0.00    +0.000 A 
ATOM     10  C   UNK A  0      -19.705  76.214  15.595  0.00  0.00    +0.002 A 
ATOM     11  C   UNK A  0      -20.824  76.870  15.081  0.00  0.00    +0.028 A 
ENDBRANCH   3   6
BRANCH   4  12
ATOM     12  N   UNK A  0      -21.385  81.041  13.701  0.00  0.00    -0.266 N 
ATOM     13  H   UNK A  0      -21.053  80.975  12.743  0.00  0.00    +0.157 HD
ATOM     14  C   UNK A  0      -20.881  82.098  14.545  0.00  0.00    +0.251 C 
ATOM     15  O   UNK A  0      -21.285  82.235  15.702  0.00  0.00    -0.270 OA
BRANCH  14  16
ATOM     16  C   UNK A  0      -19.888  83.061  14.023  0.00  0.00    +0.056 A 
ATOM     17  C   UNK A  0      -18.526  82.786  13.926  0.00  0.00    +0.054 A 
ATOM     18 CL   UNK A  0      -17.820  81.288  14.396  0.00  0.00    -0.083 Cl
ATOM     19  C   UNK A  0      -17.662  83.771  13.455  0.00  0.00    +0.041 A 
ATOM     20  C   UNK A  0      -18.128  85.045  13.087  0.00  0.00    +0.052 A 
ATOM     21 CL   UNK A  0      -16.918  86.068  12.392  0.00  0.00    -0.083 Cl
ATOM     22  C   UNK A  0      -19.488  85.393  13.221  0.00  0.00    +0.022 A 
ATOM     23  C   UNK A  0      -20.345  84.357  13.680  0.00  0.00    +0.026 A 
BRANCH  22  24
ATOM     24  C   UNK A  0      -20.077  86.725  12.900  0.00  0.00    +0.107 A 
ATOM     25  C   UNK A  0      -20.290  87.755  13.822  0.00  0.00    +0.149 A 
ATOM     26  F   UNK A  0      -20.054  87.599  15.131  0.00  0.00    -0.203 F 
ATOM     27  C   UNK A  0      -20.816  88.975  13.408  0.00  0.00    +0.042 A 
ATOM     28  C   UNK A  0      -21.189  89.138  12.083  0.00  0.00    +0.023 A 
ATOM     29  C   UNK A  0      -21.013  88.065  11.227  0.00  0.00    +0.111 A 
ATOM     30  N   UNK A  0      -20.464  86.878  11.597  0.00  0.00    -0.252 NA
ENDBRANCH  22  24
ENDBRANCH  14  16
ENDBRANCH   4  12
BRANCH   1  32
ATOM     31  N   ALA A  1      -26.272  78.339  13.264  0.00  0.00    -0.244 NA
ATOM     32  C   UNK A  0      -25.701  78.660  14.369  0.00  0.00    +0.236 C 
BRANCH  31  34
ATOM     33  CB  ALA A  1      -28.181  78.412  11.779  0.00  0.00    +0.035 C 
ATOM     34  CA  ALA A  1      -27.709  78.041  13.190  0.00  0.00    +0.131 C 
BRANCH  34  35
ATOM     35  C   ALA A  1      -27.973  76.547  13.422  0.00  0.00    +0.182 C 
BRANCH  35  36
ATOM     36  O   ALA A  1      -27.934  76.238  14.815  0.00  0.00    -0.393 OA
ATOM     37  H   ALA A  1      -27.109  76.634  15.163  0.00  0.00    +0.209 HD
ENDBRANCH  35  36
ENDBRANCH  34  35
ENDBRANCH  31  34
BRANCH  32  38
ATOM     38  O   UNK A  0      -26.286  78.668  15.582  0.00  0.00    -0.491 OA
ATOM     39  H   UNK A  0      -25.800  79.248  16.198  0.00  0.00    +0.294 HD
ENDBRANCH  32  38
ENDBRANCH   1  32
TORSDOF 9
ENDMDL
MODEL 3
REMARK VINA RESULT:      -6.3      4.119      7.565
REMARK  Name = pdb/CHEMBL3942203.pdb
REMARK                            x       y       z     vdW  Elec       q    Type
REMARK                         _______ _______ _______ _____ _____    ______ ____
ROOT
ATOM      1  C   UNK A  0      -31.786  74.123  29.718  0.00  0.00    +0.149 A 
ATOM      2  N   UNK A  0      -31.683  75.407  29.357  0.00  0.00    -0.160 NA
ATOM      3  N   UNK A  0      -32.787  75.670  28.617  0.00  0.00    -0.218 N 
ATOM      4  C   UNK A  0      -33.509  74.499  28.337  0.00  0.00    +0.129 A 
ATOM      5  C   UNK A  0      -32.878  73.512  29.068  0.00  0.00    +0.078 A 
ENDROOT
BRANCH   3   6
ATOM      6  C   UNK A  0      -33.017  77.020  28.222  0.00  0.00    +0.067 A 
ATOM      7  C   UNK A  0      -33.883  77.868  28.918  0.00  0.00    +0.028 A 
ATOM      8  C   UNK A  0      -34.039  79.197  28.498  0.00  0.00    +0.002 A 
ATOM      9  C   UNK A  0      -33.339  79.682  27.391  0.00  0.00    +0.000 A 
ATOM     10  C   UNK A  0      -32.459  78.848  26.710  0.00  0.00    +0.002 A 
ATOM     11  C   UNK A  0      -32.287  77.530  27.132  0.00  0.00    +0.028 A 
ENDBRANCH   3   6
BRANCH   4  12
ATOM     12  N   UNK A  0      -34.583  74.306  27.451  0.00  0.00    -0.266 N 
ATOM     13  H   UNK A  0      -34.361  74.009  26.504  0.00  0.00    +0.157 HD
ATOM     14  C   UNK A  0      -35.967  74.466  27.828  0.00  0.00    +0.251 C 
ATOM     15  O   UNK A  0      -36.279  74.789  28.977  0.00  0.00    -0.270 OA
BRANCH  14  16
ATOM     16  C   UNK A  0      -37.042  74.212  26.847  0.00  0.00    +0.056 A 
ATOM     17  C   UNK A  0      -37.348  72.948  26.349  0.00  0.00    +0.054 A 
ATOM     18 CL   UNK A  0      -36.518  71.514  26.814  0.00  0.00    -0.083 Cl
ATOM     19  C   UNK A  0      -38.357  72.813  25.399  0.00  0.00    +0.041 A 
ATOM     20  C   UNK A  0      -39.068  73.926  24.916  0.00  0.00    +0.052 A 
ATOM     21 CL   UNK A  0      -40.374  73.525  23.854  0.00  0.00    -0.083 Cl
ATOM     22  C   UNK A  0      -38.758  75.232  25.345  0.00  0.00    +0.022 A 
ATOM     23  C   UNK A  0      -37.742  75.331  26.333  0.00  0.00    +0.026 A 
BRANCH  22  24
ATOM     24  C   UNK A  0      -39.421  76.481  24.867  0.00  0.00    +0.107 A 
ATOM     25  C   UNK A  0      -38.871  77.385  23.953  0.00  0.00    +0.149 A 
ATOM     26  F   UNK A  0      -37.626  77.248  23.477  0.00  0.00    -0.203 F 
ATOM     27  C   UNK A  0      -39.591  78.504  23.547  0.00  0.00    +0.042 A 
ATOM     28  C   UNK A  0      -40.834  78.751  24.108  0.00  0.00    +0.023 A 
ATOM     29  C   UNK A  0      -41.303  77.856  25.052  0.00  0.00    +0.111 A 
ATOM     30  N   UNK A  0      -40.638  76.734  25.435  0.00  0.00    -0.252 NA
ENDBRANCH  22  24
ENDBRANCH  14  16
ENDBRANCH   4  12
BRANCH   1  32
ATOM     31  N   ALA A  1      -30.738  72.194  30.615  0.00  0.00    -0.244 NA
ATOM     32  C   UNK A  0      -30.839  73.475  30.618  0.00  0.00    +0.236 C 
BRANCH  31  34
ATOM     33  CB  ALA A  1      -30.449  70.094  31.781  0.00  0.00    +0.035 C 
ATOM     34  CA  ALA A  1      -29.846  71.482  31.540  0.00  0.00    +0.131 C 
BRANCH  34  35
ATOM     35  C   ALA A  1      -28.447  71.313  30.933  0.00  0.00    +0.182 C 
BRANCH  35  36
ATOM     36  O   ALA A  1      -28.524  70.678  29.656  0.00  0.00    -0.393 OA
ATOM     37  H   ALA A  1      -27.602  70.542  29.359  0.00  0.00    +0.209 HD
ENDBRANCH  35  36
ENDBRANCH  34  35
ENDBRANCH  31  34
BRANCH  32  38
ATOM     38  O   UNK A  0      -30.099  74.319  31.362  0.00  0.00    -0.491 OA
ATOM     39  H   UNK A  0      -30.494  74.442  32.245  0.00  0.00    +0.294 HD
ENDBRANCH  32  38
ENDBRANCH   1  32
TORSDOF 9
ENDMDL
MODEL 4
REMARK VINA RESULT:      -6.3      8.455     12.273
REMARK  Name = pdb/CHEMBL3942203.pdb
REMARK                            x       y       z     vdW  Elec       q    Type
REMARK                         _______ _______ _______ _____ _____    ______ ____
ROOT
ATOM      1  C   UNK A  0      -31.392  87.048  30.457  0.00  0.00    +0.149 A 
ATOM      2  N   UNK A  0      -32.319  87.877  29.966  0.00  0.00    -0.160 NA
ATOM      3  N   UNK A  0      -33.347  87.087  29.571  0.00  0.00    -0.218 N 
ATOM      4  C   UNK A  0      -33.001  85.728  29.629  0.00  0.00    +0.129 A 
ATOM      5  C   UNK A  0      -31.756  85.705  30.224  0.00  0.00    +0.078 A 
ENDROOT
BRANCH   3   6
ATOM      6  C   UNK A  0      -34.548  87.722  29.143  0.00  0.00    +0.067 A 
ATOM      7  C   UNK A  0      -35.809  87.338  29.609  0.00  0.00    +0.028 A 
ATOM      8  C   UNK A  0      -36.950  88.028  29.175  0.00  0.00    +0.002 A 
ATOM      9  C   UNK A  0      -36.841  89.094  28.279  0.00  0.00    +0.000 A 
ATOM     10  C   UNK A  0      -35.587  89.494  27.830  0.00  0.00    +0.002 A 
ATOM     11  C   UNK A  0      -34.446  88.823  28.271  0.00  0.00    +0.028 A 
ENDBRANCH   3   6
BRANCH   4  12
ATOM     12  N   UNK A  0      -33.693  84.611  29.128  0.00  0.00    -0.266 N 
ATOM     13  H   UNK A  0      -33.526  84.352  28.160  0.00  0.00    +0.157 HD
ATOM     14  C   UNK A  0      -34.584  83.802  29.925  0.00  0.00    +0.251 C 
ATOM     15  O   UNK A  0      -34.785  84.061  31.114  0.00  0.00    -0.270 OA
BRANCH  14  16
ATOM     16  C   UNK A  0      -35.250  82.622  29.335  0.00  0.00    +0.056 A 
ATOM     17  C   UNK A  0      -36.634  82.467  29.278  0.00  0.00    +0.054 A 
ATOM     18 CL   UNK A  0      -37.748  83.631  29.882  0.00  0.00    -0.083 Cl
ATOM     19  C   UNK A  0      -37.169  81.302  28.734  0.00  0.00    +0.041 A 
ATOM     20  C   UNK A  0      -36.347  80.269  28.253  0.00  0.00    +0.052 A 
ATOM     21 CL   UNK A  0      -37.209  78.978  27.487  0.00  0.00    -0.083 Cl
ATOM     22  C   UNK A  0      -34.943  80.351  28.341  0.00  0.00    +0.022 A 
ATOM     23  C   UNK A  0      -34.430  81.563  28.876  0.00  0.00    +0.026 A 
BRANCH  22  24
ATOM     24  C   UNK A  0      -33.984  79.297  27.899  0.00  0.00    +0.107 A 
ATOM     25  C   UNK A  0      -33.746  78.093  28.569  0.00  0.00    +0.149 A 
ATOM     26  F   UNK A  0      -34.314  77.810  29.749  0.00  0.00    -0.203 F 
ATOM     27  C   UNK A  0      -32.853  77.161  28.050  0.00  0.00    +0.042 A 
ATOM     28  C   UNK A  0      -32.150  77.464  26.895  0.00  0.00    +0.023 A 
ATOM     29  C   UNK A  0      -32.379  78.695  26.307  0.00  0.00    +0.111 A 
ATOM     30  N   UNK A  0      -33.276  79.606  26.771  0.00  0.00    -0.252 NA
ENDBRANCH  22  24
ENDBRANCH  14  16
ENDBRANCH   4  12
BRANCH   1  32
ATOM     31  N   ALA A  1      -30.027  87.425  32.359  0.00  0.00    -0.244 NA
ATOM     32  C   UNK A  0      -30.162  87.517  31.085  0.00  0.00    +0.236 C 
BRANCH  31  34
ATOM     33  CB  ALA A  1      -29.201  89.306  33.637  0.00  0.00    +0.035 C 
ATOM     34  CA  ALA A  1      -28.837  87.936  33.053  0.00  0.00    +0.131 C 
BRANCH  34  35
ATOM     35  C   ALA A  1      -28.430  87.003  34.202  0.00  0.00    +0.182 C 
BRANCH  35  36
ATOM     36  O   ALA A  1      -27.032  87.116  34.472  0.00  0.00    -0.393 OA
ATOM     37  H   ALA A  1      -26.950  87.292  35.431  0.00  0.00    +0.209 HD
ENDBRANCH  35  36
ENDBRANCH  34  35
ENDBRANCH  31  34
BRANCH  32  38
ATOM     38  O   UNK A  0      -29.231  87.979  30.227  0.00  0.00    -0.491 OA
ATOM     39  H   UNK A  0      -29.464  87.753  29.308  0.00  0.00    +0.294 HD
ENDBRANCH  32  38
ENDBRANCH   1  32
TORSDOF 9
ENDMDL
MODEL 5
REMARK VINA RESULT:      -6.2     16.219     19.833
REMARK  Name = pdb/CHEMBL3942203.pdb
REMARK                            x       y       z     vdW  Elec       q    Type
REMARK                         _______ _______ _______ _____ _____    ______ ____
ROOT
ATOM      1  C   UNK A  0      -28.841  77.697  11.972  0.00  0.00    +0.149 A 
ATOM      2  N   UNK A  0      -28.396  76.447  12.136  0.00  0.00    -0.160 NA
ATOM      3  N   UNK A  0      -27.200  76.562  12.763  0.00  0.00    -0.218 N 
ATOM      4  C   UNK A  0      -26.783  77.900  12.830  0.00  0.00    +0.129 A 
ATOM      5  C   UNK A  0      -27.851  78.628  12.346  0.00  0.00    +0.078 A 
ENDROOT
BRANCH   3   6
ATOM      6  C   UNK A  0      -26.562  75.366  13.203  0.00  0.00    +0.067 A 
ATOM      7  C   UNK A  0      -25.266  75.019  12.811  0.00  0.00    +0.028 A 
ATOM      8  C   UNK A  0      -24.681  73.845  13.309  0.00  0.00    +0.002 A 
ATOM      9  C   UNK A  0      -25.381  73.018  14.189  0.00  0.00    +0.000 A 
ATOM     10  C   UNK A  0      -26.662  73.370  14.599  0.00  0.00    +0.002 A 
ATOM     11  C   UNK A  0      -27.243  74.545  14.122  0.00  0.00    +0.028 A 
ENDBRANCH   3   6
BRANCH   4  12
ATOM     12  N   UNK A  0      -25.536  78.426  13.213  0.00  0.00    -0.266 N 
ATOM     13  H   UNK A  0      -24.897  78.701  12.473  0.00  0.00    +0.157 HD
ATOM     14  C   UNK A  0      -25.143  78.628  14.587  0.00  0.00    +0.251 C 
ATOM     15  O   UNK A  0      -25.905  78.340  15.514  0.00  0.00    -0.270 OA
BRANCH  14  16
ATOM     16  C   UNK A  0      -23.827  79.216  14.909  0.00  0.00    +0.056 A 
ATOM     17  C   UNK A  0      -22.710  78.461  15.261  0.00  0.00    +0.054 A 
ATOM     18 CL   UNK A  0      -22.716  76.742  15.361  0.00  0.00    -0.083 Cl
ATOM     19  C   UNK A  0      -21.521  79.108  15.583  0.00  0.00    +0.041 A 
ATOM     20  C   UNK A  0      -21.420  80.510  15.577  0.00  0.00    +0.052 A 
ATOM     21 CL   UNK A  0      -19.821  81.106  15.862  0.00  0.00    -0.083 Cl
ATOM     22  C   UNK A  0      -22.535  81.321  15.285  0.00  0.00    +0.022 A 
ATOM     23  C   UNK A  0      -23.725  80.629  14.936  0.00  0.00    +0.026 A 
BRANCH  22  24
ATOM     24  C   UNK A  0      -22.547  82.814  15.292  0.00  0.00    +0.107 A 
ATOM     25  C   UNK A  0      -22.614  83.613  16.437  0.00  0.00    +0.149 A 
ATOM     26  F   UNK A  0      -22.764  83.093  17.661  0.00  0.00    -0.203 F 
ATOM     27  C   UNK A  0      -22.583  85.000  16.331  0.00  0.00    +0.042 A 
ATOM     28  C   UNK A  0      -22.552  85.585  15.075  0.00  0.00    +0.023 A 
ATOM     29  C   UNK A  0      -22.548  84.746  13.975  0.00  0.00    +0.111 A 
ATOM     30  N   UNK A  0      -22.536  83.389  14.052  0.00  0.00    -0.252 NA
ENDBRANCH  22  24
ENDBRANCH  14  16
ENDBRANCH   4  12
BRANCH   1  32
ATOM     31  N   ALA A  1      -30.620  77.296  10.455  0.00  0.00    -0.244 NA
ATOM     32  C   UNK A  0      -30.157  78.003  11.422  0.00  0.00    +0.236 C 
BRANCH  31  34
ATOM     33  CB  ALA A  1      -31.825  77.127   8.365  0.00  0.00    +0.035 C 
ATOM     34  CA  ALA A  1      -31.911  77.595   9.822  0.00  0.00    +0.131 C 
BRANCH  34  35
ATOM     35  C   ALA A  1      -33.052  76.839  10.516  0.00  0.00    +0.182 C 
BRANCH  35  36
ATOM     36  O   ALA A  1      -33.323  77.404  11.800  0.00  0.00    -0.393 OA
ATOM     37  H   ALA A  1      -32.598  78.035  11.982  0.00  0.00    +0.209 HD
ENDBRANCH  35  36
ENDBRANCH  34  35
ENDBRANCH  31  34
BRANCH  32  38
ATOM     38  O   UNK A  0      -30.805  79.012  12.038  0.00  0.00    -0.491 OA
ATOM     39  H   UNK A  0      -30.417  79.190  12.915  0.00  0.00    +0.294 HD
ENDBRANCH  32  38
ENDBRANCH   1  32
TORSDOF 9
ENDMDL
MODEL 6
REMARK VINA RESULT:      -6.1      4.219      8.892
REMARK  Name = pdb/CHEMBL3942203.pdb
REMARK                            x       y       z     vdW  Elec       q    Type
REMARK                         _______ _______ _______ _____ _____    ______ ____
ROOT
ATOM      1  C   UNK A  0      -40.943  73.095  23.512  0.00  0.00    +0.149 A 
ATOM      2  N   UNK A  0      -41.226  74.383  23.734  0.00  0.00    -0.160 NA
ATOM      3  N   UNK A  0      -40.102  74.919  24.268  0.00  0.00    -0.218 N 
ATOM      4  C   UNK A  0      -39.155  73.929  24.570  0.00  0.00    +0.129 A 
ATOM      5  C   UNK A  0      -39.687  72.762  24.060  0.00  0.00    +0.078 A 
ENDROOT
BRANCH   3   6
ATOM      6  C   UNK A  0      -40.067  76.330  24.465  0.00  0.00    +0.067 A 
ATOM      7  C   UNK A  0      -39.795  77.227  23.428  0.00  0.00    +0.028 A 
ATOM      8  C   UNK A  0      -39.811  78.606  23.682  0.00  0.00    +0.002 A 
ATOM      9  C   UNK A  0      -40.093  79.093  24.959  0.00  0.00    +0.000 A 
ATOM     10  C   UNK A  0      -40.386  78.206  25.989  0.00  0.00    +0.002 A 
ATOM     11  C   UNK A  0      -40.389  76.833  25.741  0.00  0.00    +0.028 A 
ENDBRANCH   3   6
BRANCH   4  12
ATOM     12  N   UNK A  0      -37.960  74.034  25.305  0.00  0.00    -0.266 N 
ATOM     13  H   UNK A  0      -37.091  74.082  24.781  0.00  0.00    +0.157 HD
ATOM     14  C   UNK A  0      -37.914  74.120  26.745  0.00  0.00    +0.251 C 
ATOM     15  O   UNK A  0      -38.950  74.103  27.415  0.00  0.00    -0.270 OA
BRANCH  14  16
ATOM     16  C   UNK A  0      -36.621  74.263  27.444  0.00  0.00    +0.056 A 
ATOM     17  C   UNK A  0      -36.126  73.326  28.349  0.00  0.00    +0.054 A 
ATOM     18 CL   UNK A  0      -36.955  71.877  28.769  0.00  0.00    -0.083 Cl
ATOM     19  C   UNK A  0      -34.912  73.566  28.987  0.00  0.00    +0.041 A 
ATOM     20  C   UNK A  0      -34.176  74.740  28.751  0.00  0.00    +0.052 A 
ATOM     21 CL   UNK A  0      -32.630  74.774  29.528  0.00  0.00    -0.083 Cl
ATOM     22  C   UNK A  0      -34.659  75.745  27.889  0.00  0.00    +0.022 A 
ATOM     23  C   UNK A  0      -35.887  75.457  27.236  0.00  0.00    +0.026 A 
BRANCH  22  24
ATOM     24  C   UNK A  0      -33.979  77.042  27.602  0.00  0.00    +0.107 A 
ATOM     25  C   UNK A  0      -34.376  78.286  28.100  0.00  0.00    +0.149 A 
ATOM     26  F   UNK A  0      -35.486  78.440  28.833  0.00  0.00    -0.203 F 
ATOM     27  C   UNK A  0      -33.647  79.432  27.797  0.00  0.00    +0.042 A 
ATOM     28  C   UNK A  0      -32.560  79.339  26.942  0.00  0.00    +0.023 A 
ATOM     29  C   UNK A  0      -32.249  78.092  26.430  0.00  0.00    +0.111 A 
ATOM     30  N   UNK A  0      -32.919  76.952  26.742  0.00  0.00    -0.252 NA
ENDBRANCH  22  24
ENDBRANCH  14  16
ENDBRANCH   4  12
BRANCH   1  32
ATOM     31  N   ALA A  1      -42.534  72.594  21.826  0.00  0.00    -0.244 NA
ATOM     32  C   UNK A  0      -41.867  72.185  22.844  0.00  0.00    +0.236 C 
BRANCH  31  34
ATOM     33  CB  ALA A  1      -44.676  72.647  20.702  0.00  0.00    +0.035 C 
ATOM     34  CA  ALA A  1      -43.522  71.743  21.150  0.00  0.00    +0.131 C 
BRANCH  34  35
ATOM     35  C   ALA A  1      -42.912  71.072  19.911  0.00  0.00    +0.182 C 
BRANCH  35  36
ATOM     36  O   ALA A  1      -42.052  69.997  20.291  0.00  0.00    -0.393 OA
ATOM     37  H   ALA A  1      -41.363  70.386  20.867  0.00  0.00    +0.209 HD
ENDBRANCH  35  36
ENDBRANCH  34  35
ENDBRANCH  31  34
BRANCH  32  38
ATOM     38  O   UNK A  0      -41.896  70.937  23.352  0.00  0.00    -0.491 OA
ATOM     39  H   UNK A  0      -42.793  70.560  23.295  0.00  0.00    +0.294 HD
ENDBRANCH  32  38
ENDBRANCH   1  32
TORSDOF 9
ENDMDL
MODEL 7
REMARK VINA RESULT:      -6.1     14.034     16.355
REMARK  Name = pdb/CHEMBL3942203.pdb
REMARK                            x       y       z     vdW  Elec       q    Type
REMARK                         _______ _______ _______ _____ _____    ______ ____
ROOT
ATOM      1  C   UNK A  0      -23.967  78.431  34.306  0.00  0.00    +0.149 A 
ATOM      2  N   UNK A  0      -22.929  78.414  33.462  0.00  0.00    -0.160 NA
ATOM      3  N   UNK A  0      -23.094  77.306  32.699  0.00  0.00    -0.218 N 
ATOM      4  C   UNK A  0      -24.138  76.501  33.183  0.00  0.00    +0.129 A 
ATOM      5  C   UNK A  0      -24.713  77.240  34.197  0.00  0.00    +0.078 A 
ENDROOT
BRANCH   3   6
ATOM      6  C   UNK A  0      -22.206  77.116  31.602  0.00  0.00    +0.067 A 
ATOM      7  C   UNK A  0      -22.642  76.667  30.352  0.00  0.00    +0.028 A 
ATOM      8  C   UNK A  0      -21.721  76.534  29.302  0.00  0.00    +0.002 A 
ATOM      9  C   UNK A  0      -20.373  76.844  29.493  0.00  0.00    +0.000 A 
ATOM     10  C   UNK A  0      -19.939  77.312  30.728  0.00  0.00    +0.002 A 
ATOM     11  C   UNK A  0      -20.851  77.462  31.772  0.00  0.00    +0.028 A 
ENDBRANCH   3   6
BRANCH   4  12
ATOM     12  N   UNK A  0      -24.500  75.195  32.810  0.00  0.00    -0.266 N 
ATOM     13  H   UNK A  0      -24.093  74.428  33.339  0.00  0.00    +0.157 HD
ATOM     14  C   UNK A  0      -25.440  74.897  31.756  0.00  0.00    +0.251 C 
ATOM     15  O   UNK A  0      -25.983  75.801  31.115  0.00  0.00    -0.270 OA
BRANCH  14  16
ATOM     16  C   UNK A  0      -25.794  73.497  31.445  0.00  0.00    +0.056 A 
ATOM     17  C   UNK A  0      -27.013  72.916  31.789  0.00  0.00    +0.054 A 
ATOM     18 CL   UNK A  0      -28.267  73.754  32.618  0.00  0.00    -0.083 Cl
ATOM     19  C   UNK A  0      -27.242  71.577  31.485  0.00  0.00    +0.041 A 
ATOM     20  C   UNK A  0      -26.267  70.789  30.850  0.00  0.00    +0.052 A 
ATOM     21 CL   UNK A  0      -26.805  69.198  30.432  0.00  0.00    -0.083 Cl
ATOM     22  C   UNK A  0      -24.997  71.312  30.533  0.00  0.00    +0.022 A 
ATOM     23  C   UNK A  0      -24.806  72.687  30.833  0.00  0.00    +0.026 A 
BRANCH  22  24
ATOM     24  C   UNK A  0      -23.880  70.552  29.898  0.00  0.00    +0.107 A 
ATOM     25  C   UNK A  0      -22.763  70.051  30.572  0.00  0.00    +0.149 A 
ATOM     26  F   UNK A  0      -22.548  70.290  31.872  0.00  0.00    -0.203 F 
ATOM     27  C   UNK A  0      -21.794  69.324  29.888  0.00  0.00    +0.042 A 
ATOM     28  C   UNK A  0      -21.913  69.157  28.517  0.00  0.00    +0.023 A 
ATOM     29  C   UNK A  0      -23.008  69.726  27.892  0.00  0.00    +0.111 A 
ATOM     30  N   UNK A  0      -23.989  70.405  28.543  0.00  0.00    -0.252 NA
ENDBRANCH  22  24
ENDBRANCH  14  16
ENDBRANCH   4  12
BRANCH   1  32
ATOM     31  N   ALA A  1      -23.230  80.238  35.654  0.00  0.00    -0.244 NA
ATOM     32  C   UNK A  0      -24.215  79.528  35.234  0.00  0.00    +0.236 C 
BRANCH  31  34
ATOM     33  CB  ALA A  1      -22.907  80.796  37.986  0.00  0.00    +0.035 C 
ATOM     34  CA  ALA A  1      -23.411  81.316  36.635  0.00  0.00    +0.131 C 
BRANCH  34  35
ATOM     35  C   ALA A  1      -22.592  82.555  36.247  0.00  0.00    +0.182 C 
BRANCH  35  36
ATOM     36  O   ALA A  1      -21.432  82.180  35.502  0.00  0.00    -0.393 OA
ATOM     37  H   ALA A  1      -20.866  82.976  35.454  0.00  0.00    +0.209 HD
ENDBRANCH  35  36
ENDBRANCH  34  35
ENDBRANCH  31  34
BRANCH  32  38
ATOM     38  O   UNK A  0      -25.512  79.728  35.538  0.00  0.00    -0.491 OA
ATOM     39  H   UNK A  0      -26.011  78.891  35.498  0.00  0.00    +0.294 HD
ENDBRANCH  32  38
ENDBRANCH   1  32
TORSDOF 9
ENDMDL
MODEL 8
REMARK VINA RESULT:      -6.1      3.144      4.761
REMARK  Name = pdb/CHEMBL3942203.pdb
REMARK                            x       y       z     vdW  Elec       q    Type
REMARK                         _______ _______ _______ _____ _____    ______ ____
ROOT
ATOM      1  C   UNK A  0      -37.290  79.880  27.525  0.00  0.00    +0.149 A 
ATOM      2  N   UNK A  0      -36.278  79.174  28.039  0.00  0.00    -0.160 NA
ATOM      3  N   UNK A  0      -36.424  77.916  27.557  0.00  0.00    -0.218 N 
ATOM      4  C   UNK A  0      -37.647  77.764  26.885  0.00  0.00    +0.129 A 
ATOM      5  C   UNK A  0      -38.188  79.033  26.843  0.00  0.00    +0.078 A 
ENDROOT
BRANCH   3   6
ATOM      6  C   UNK A  0      -35.387  76.977  27.824  0.00  0.00    +0.067 A 
ATOM      7  C   UNK A  0      -35.649  75.651  28.183  0.00  0.00    +0.028 A 
ATOM      8  C   UNK A  0      -34.582  74.767  28.398  0.00  0.00    +0.002 A 
ATOM      9  C   UNK A  0      -33.261  75.197  28.259  0.00  0.00    +0.000 A 
ATOM     10  C   UNK A  0      -32.996  76.508  27.880  0.00  0.00    +0.002 A 
ATOM     11  C   UNK A  0      -34.052  77.389  27.648  0.00  0.00    +0.028 A 
ENDBRANCH   3   6
BRANCH   4  12
ATOM     12  N   UNK A  0      -38.266  76.591  26.419  0.00  0.00    -0.266 N 
ATOM     13  H   UNK A  0      -39.002  76.189  26.994  0.00  0.00    +0.157 HD
ATOM     14  C   UNK A  0      -37.941  75.963  25.161  0.00  0.00    +0.251 C 
ATOM     15  O   UNK A  0      -37.080  76.439  24.417  0.00  0.00    -0.270 OA
BRANCH  14  16
ATOM     16  C   UNK A  0      -38.660  74.748  24.725  0.00  0.00    +0.056 A 
ATOM     17  C   UNK A  0      -39.926  74.769  24.143  0.00  0.00    +0.054 A 
ATOM     18 CL   UNK A  0      -40.816  76.213  23.853  0.00  0.00    -0.083 Cl
ATOM     19  C   UNK A  0      -40.539  73.568  23.798  0.00  0.00    +0.041 A 
ATOM     20  C   UNK A  0      -39.919  72.329  24.034  0.00  0.00    +0.052 A 
ATOM     21 CL   UNK A  0      -40.783  70.972  23.397  0.00  0.00    -0.083 Cl
ATOM     22  C   UNK A  0      -38.664  72.250  24.671  0.00  0.00    +0.022 A 
ATOM     23  C   UNK A  0      -38.055  73.494  24.987  0.00  0.00    +0.026 A 
BRANCH  22  24
ATOM     24  C   UNK A  0      -37.939  70.989  25.004  0.00  0.00    +0.107 A 
ATOM     25  C   UNK A  0      -37.445  70.074  24.070  0.00  0.00    +0.149 A 
ATOM     26  F   UNK A  0      -37.659  70.212  22.755  0.00  0.00    -0.203 F 
ATOM     27  C   UNK A  0      -36.751  68.943  24.489  0.00  0.00    +0.042 A 
ATOM     28  C   UNK A  0      -36.611  68.697  25.846  0.00  0.00    +0.023 A 
ATOM     29  C   UNK A  0      -37.174  69.604  26.726  0.00  0.00    +0.111 A 
ATOM     30  N   UNK A  0      -37.820  70.737  26.343  0.00  0.00    -0.252 NA
ENDBRANCH  22  24
ENDBRANCH  14  16
ENDBRANCH   4  12
BRANCH   1  32
ATOM     31  N   ALA A  1      -36.494  82.106  27.343  0.00  0.00    -0.244 NA
ATOM     32  C   UNK A  0      -37.434  81.318  27.722  0.00  0.00    +0.236 C 
BRANCH  31  34
ATOM     33  CB  ALA A  1      -35.617  83.878  28.737  0.00  0.00    +0.035 C 
ATOM     34  CA  ALA A  1      -36.556  83.557  27.569  0.00  0.00    +0.131 C 
BRANCH  34  35
ATOM     35  C   ALA A  1      -36.081  84.327  26.329  0.00  0.00    +0.182 C 
BRANCH  35  36
ATOM     36  O   ALA A  1      -34.984  85.180  26.654  0.00  0.00    -0.393 OA
ATOM     37  H   ALA A  1      -34.204  84.817  26.188  0.00  0.00    +0.209 HD
ENDBRANCH  35  36
ENDBRANCH  34  35
ENDBRANCH  31  34
BRANCH  32  38
ATOM     38  O   UNK A  0      -38.608  81.699  28.263  0.00  0.00    -0.491 OA
ATOM     39  H   UNK A  0      -39.273  80.990  28.185  0.00  0.00    +0.294 HD
ENDBRANCH  32  38
ENDBRANCH   1  32
TORSDOF 9
ENDMDL
MODEL 9
REMARK VINA RESULT:      -5.9      4.642      9.796
REMARK  Name = pdb/CHEMBL3942203.pdb
REMARK                            x       y       z     vdW  Elec       q    Type
REMARK                         _______ _______ _______ _____ _____    ______ ____
ROOT
ATOM      1  C   UNK A  0      -37.051  69.236  25.394  0.00  0.00    +0.149 A 
ATOM      2  N   UNK A  0      -37.919  70.252  25.333  0.00  0.00    -0.160 NA
ATOM      3  N   UNK A  0      -37.196  71.369  25.587  0.00  0.00    -0.218 N 
ATOM      4  C   UNK A  0      -35.893  71.053  26.005  0.00  0.00    +0.129 A 
ATOM      5  C   UNK A  0      -35.796  69.685  25.854  0.00  0.00    +0.078 A 
ENDROOT
BRANCH   3   6
ATOM      6  C   UNK A  0      -37.843  72.629  25.437  0.00  0.00    +0.067 A 
ATOM      7  C   UNK A  0      -37.442  73.768  26.140  0.00  0.00    +0.028 A 
ATOM      8  C   UNK A  0      -38.100  74.988  25.920  0.00  0.00    +0.002 A 
ATOM      9  C   UNK A  0      -39.152  75.075  25.007  0.00  0.00    +0.000 A 
ATOM     10  C   UNK A  0      -39.540  73.950  24.288  0.00  0.00    +0.002 A 
ATOM     11  C   UNK A  0      -38.880  72.738  24.490  0.00  0.00    +0.028 A 
ENDBRANCH   3   6
BRANCH   4  12
ATOM     12  N   UNK A  0      -34.905  71.893  26.548  0.00  0.00    -0.266 N 
ATOM     13  H   UNK A  0      -34.175  72.222  25.923  0.00  0.00    +0.157 HD
ATOM     14  C   UNK A  0      -34.902  72.336  27.922  0.00  0.00    +0.251 C 
ATOM     15  O   UNK A  0      -35.791  71.988  28.704  0.00  0.00    -0.270 OA
BRANCH  14  16
ATOM     16  C   UNK A  0      -33.846  73.246  28.411  0.00  0.00    +0.056 A 
ATOM     17  C   UNK A  0      -32.761  72.826  29.178  0.00  0.00    +0.054 A 
ATOM     18 CL   UNK A  0      -32.506  71.191  29.652  0.00  0.00    -0.083 Cl
ATOM     19  C   UNK A  0      -31.834  73.764  29.623  0.00  0.00    +0.041 A 
ATOM     20  C   UNK A  0      -31.973  75.132  29.331  0.00  0.00    +0.052 A 
ATOM     21 CL   UNK A  0      -30.640  76.106  29.851  0.00  0.00    -0.083 Cl
ATOM     22  C   UNK A  0      -33.082  75.617  28.609  0.00  0.00    +0.022 A 
ATOM     23  C   UNK A  0      -33.994  74.630  28.147  0.00  0.00    +0.026 A 
BRANCH  22  24
ATOM     24  C   UNK A  0      -33.345  77.049  28.281  0.00  0.00    +0.107 A 
ATOM     25  C   UNK A  0      -32.697  77.776  27.279  0.00  0.00    +0.149 A 
ATOM     26  F   UNK A  0      -31.693  77.260  26.559  0.00  0.00    -0.203 F 
ATOM     27  C   UNK A  0      -33.044  79.102  27.033  0.00  0.00    +0.042 A 
ATOM     28  C   UNK A  0      -33.993  79.714  27.835  0.00  0.00    +0.023 A 
ATOM     29  C   UNK A  0      -34.558  78.965  28.852  0.00  0.00    +0.111 A 
ATOM     30  N   UNK A  0      -34.266  77.658  29.086  0.00  0.00    -0.252 NA
ENDBRANCH  22  24
ENDBRANCH  14  16
ENDBRANCH   4  12
BRANCH   1  32
ATOM     31  N   ALA A  1      -36.853  67.269  24.084  0.00  0.00    -0.244 NA
ATOM     32  C   UNK A  0      -37.417  67.861  25.074  0.00  0.00    +0.236 C 
BRANCH  31  34
ATOM     33  CB  ALA A  1      -37.379  65.909  22.153  0.00  0.00    +0.035 C 
ATOM     34  CA  ALA A  1      -37.224  65.907  23.678  0.00  0.00    +0.131 C 
BRANCH  34  35
ATOM     35  C   ALA A  1      -36.129  64.902  24.061  0.00  0.00    +0.182 C 
BRANCH  35  36
ATOM     36  O   ALA A  1      -34.846  65.531  24.063  0.00  0.00    -0.393 OA
ATOM     37  H   ALA A  1      -34.506  65.461  24.977  0.00  0.00    +0.209 HD
ENDBRANCH  35  36
ENDBRANCH  34  35
ENDBRANCH  31  34
BRANCH  32  38
ATOM     38  O   UNK A  0      -38.315  67.307  25.913  0.00  0.00    -0.491 OA
ATOM     39  H   UNK A  0      -38.261  67.713  26.797  0.00  0.00    +0.294 HD
ENDBRANCH  32  38
ENDBRANCH   1  32
TORSDOF 9
ENDMDL
