MODEL 1
REMARK VINA RESULT:      -6.3      0.000      0.000
REMARK  Name = pdb/CHEMBL3671153.pdb
REMARK                            x       y       z     vdW  Elec       q    Type
REMARK                         _______ _______ _______ _____ _____    ______ ____
ROOT
ATOM      1  C   LIG    1      -21.049  78.212  33.321  0.00  0.00    +0.126 A 
ATOM      2  N   LIG    1      -22.241  77.785  32.958  0.00  0.00    -0.212 NA
ATOM      3  C   LIG    1      -22.446  77.484  31.632  0.00  0.00    +0.170 A 
ATOM      4  C   LIG    1      -23.578  77.187  30.894  0.00  0.00    +0.100 A 
ATOM      5  C   LIG    1      -23.095  76.960  29.585  0.00  0.00    +0.150 A 
ATOM      6  N   LIG    1      -21.780  77.139  29.469  0.00  0.00    -0.173 NA
ATOM      7  N   LIG    1      -21.395  77.523  30.706  0.00  0.00    -0.221 N 
ATOM      8  C   LIG    1      -20.137  77.956  31.081  0.00  0.00    +0.118 A 
ATOM      9  C   LIG    1      -19.903  78.323  32.343  0.00  0.00    +0.063 A 
ENDROOT
BRANCH   1  11
ATOM     10  C   LIG    1      -20.584  79.961  35.062  0.00  0.00    +0.108 C 
ATOM     11  N   LIG    1      -20.813  78.570  34.641  0.00  0.00    -0.308 N 
ATOM     12  C   LIG    1      -20.288  77.630  35.634  0.00  0.00    +0.107 C 
ATOM     13  C   LIG    1      -19.816  78.487  36.797  0.00  0.00    +0.021 C 
ATOM     14  C   LIG    1      -19.486  79.810  36.130  0.00  0.00    +0.029 C 
BRANCH  10  18
ATOM     15  F   LIG    1      -25.456  80.002  35.812  0.00  0.00    -0.205 F 
ATOM     16  C   LIG    1      -24.276  80.631  35.901  0.00  0.00    +0.124 A 
ATOM     17  C   LIG    1      -23.120  79.977  35.481  0.00  0.00    +0.046 A 
ATOM     18  C   LIG    1      -21.865  80.606  35.568  0.00  0.00    +0.011 A 
ATOM     19  C   LIG    1      -21.835  81.911  36.080  0.00  0.00    +0.129 A 
ATOM     20  F   LIG    1      -20.670  82.572  36.152  0.00  0.00    -0.205 F 
ATOM     21  C   LIG    1      -22.993  82.568  36.497  0.00  0.00    +0.041 A 
ATOM     22  C   LIG    1      -24.225  81.923  36.406  0.00  0.00    +0.041 A 
ENDBRANCH  10  18
ENDBRANCH   1  11
BRANCH   4  23
ATOM     23  C   LIG    1      -24.978  77.136  31.273  0.00  0.00    +0.249 C 
ATOM     24  N   LIG    1      -25.246  77.054  32.624  0.00  0.00    -0.311 N 
ATOM     25  H   LIG    1      -24.473  77.129  33.268  0.00  0.00    +0.149 HD
ATOM     26  O   LIG    1      -25.863  77.158  30.432  0.00  0.00    -0.270 OA
BRANCH  24  27
ATOM     27  C   LIG    1      -26.623  76.986  33.083  0.00  0.00    +0.110 C 
BRANCH  27  28
ATOM     28  C   LIG    1      -27.259  75.595  33.025  0.00  0.00    +0.073 C 
BRANCH  28  29
ATOM     29  C   LIG    1      -28.502  75.520  32.207  0.00  0.00    +0.037 A 
ATOM     30  N   LIG    1      -28.890  76.505  31.330  0.00  0.00    -0.348 N 
ATOM     31  H   LIG    1      -28.390  77.358  31.120  0.00  0.00    +0.166 HD
ATOM     32  C   LIG    1      -30.092  76.137  30.796  0.00  0.00    +0.196 A 
ATOM     33  N   LIG    1      -30.499  74.985  31.277  0.00  0.00    -0.244 NA
ATOM     34  C   LIG    1      -29.516  74.589  32.146  0.00  0.00    +0.133 A 
ENDBRANCH  28  29
ENDBRANCH  27  28
ENDBRANCH  24  27
ENDBRANCH   4  23
TORSDOF 6
ENDMDL
MODEL 2
REMARK VINA RESULT:      -6.0      2.192      3.245
REMARK  Name = pdb/CHEMBL3671153.pdb
REMARK                            x       y       z     vdW  Elec       q    Type
REMARK                         _______ _______ _______ _____ _____    ______ ____
ROOT
ATOM      1  C   LIG    1      -19.244  78.523  33.721  0.00  0.00    +0.126 A 
ATOM      2  N   LIG    1      -19.990  77.999  32.770  0.00  0.00    -0.212 NA
ATOM      3  C   LIG    1      -19.362  77.504  31.651  0.00  0.00    +0.170 A 
ATOM      4  C   LIG    1      -19.825  77.058  30.427  0.00  0.00    +0.100 A 
ATOM      5  C   LIG    1      -18.659  76.668  29.730  0.00  0.00    +0.150 A 
ATOM      6  N   LIG    1      -17.537  76.883  30.416  0.00  0.00    -0.173 NA
ATOM      7  N   LIG    1      -17.964  77.455  31.564  0.00  0.00    -0.221 N 
ATOM      8  C   LIG    1      -17.172  77.989  32.563  0.00  0.00    +0.118 A 
ATOM      9  C   LIG    1      -17.735  78.541  33.640  0.00  0.00    +0.063 A 
ENDROOT
BRANCH   1  11
ATOM     10  C   LIG    1      -20.938  80.051  34.769  0.00  0.00    +0.108 C 
ATOM     11  N   LIG    1      -19.841  79.074  34.846  0.00  0.00    -0.308 N 
ATOM     12  C   LIG    1      -19.168  79.145  36.145  0.00  0.00    +0.107 C 
ATOM     13  C   LIG    1      -19.974  80.139  36.967  0.00  0.00    +0.021 C 
ATOM     14  C   LIG    1      -20.597  81.028  35.908  0.00  0.00    +0.029 C 
BRANCH  10  18
ATOM     15  F   LIG    1      -23.866  76.085  34.767  0.00  0.00    -0.205 F 
ATOM     16  C   LIG    1      -23.736  77.415  34.871  0.00  0.00    +0.124 A 
ATOM     17  C   LIG    1      -22.467  77.984  34.796  0.00  0.00    +0.046 A 
ATOM     18  C   LIG    1      -22.294  79.375  34.910  0.00  0.00    +0.011 A 
ATOM     19  C   LIG    1      -23.447  80.153  35.088  0.00  0.00    +0.129 A 
ATOM     20  F   LIG    1      -23.345  81.488  35.166  0.00  0.00    -0.205 F 
ATOM     21  C   LIG    1      -24.719  79.583  35.159  0.00  0.00    +0.041 A 
ATOM     22  C   LIG    1      -24.865  78.202  35.049  0.00  0.00    +0.041 A 
ENDBRANCH  10  18
ENDBRANCH   1  11
BRANCH   4  23
ATOM     23  C   LIG    1      -21.167  77.004  29.877  0.00  0.00    +0.249 C 
ATOM     24  N   LIG    1      -22.172  77.544  30.652  0.00  0.00    -0.311 N 
ATOM     25  H   LIG    1      -21.912  78.025  31.500  0.00  0.00    +0.149 HD
ATOM     26  O   LIG    1      -21.385  76.496  28.787  0.00  0.00    -0.270 OA
BRANCH  24  27
ATOM     27  C   LIG    1      -23.544  77.516  30.177  0.00  0.00    +0.110 C 
BRANCH  27  28
ATOM     28  C   LIG    1      -24.599  77.902  31.217  0.00  0.00    +0.073 C 
BRANCH  28  29
ATOM     29  C   LIG    1      -25.608  76.841  31.494  0.00  0.00    +0.037 A 
ATOM     30  N   LIG    1      -26.962  77.076  31.526  0.00  0.00    -0.348 N 
ATOM     31  H   LIG    1      -27.426  77.956  31.350  0.00  0.00    +0.166 HD
ATOM     32  C   LIG    1      -27.580  75.904  31.857  0.00  0.00    +0.196 A 
ATOM     33  N   LIG    1      -26.711  74.938  32.042  0.00  0.00    -0.244 NA
ATOM     34  C   LIG    1      -25.485  75.506  31.811  0.00  0.00    +0.133 A 
ENDBRANCH  28  29
ENDBRANCH  27  28
ENDBRANCH  24  27
ENDBRANCH   4  23
TORSDOF 6
ENDMDL
MODEL 3
REMARK VINA RESULT:      -6.0      2.899      6.034
REMARK  Name = pdb/CHEMBL3671153.pdb
REMARK                            x       y       z     vdW  Elec       q    Type
REMARK                         _______ _______ _______ _____ _____    ______ ____
ROOT
ATOM      1  C   LIG    1      -20.540  77.171  31.342  0.00  0.00    +0.126 A 
ATOM      2  N   LIG    1      -21.527  77.490  32.154  0.00  0.00    -0.212 NA
ATOM      3  C   LIG    1      -22.801  77.542  31.638  0.00  0.00    +0.170 A 
ATOM      4  C   LIG    1      -24.007  77.995  32.141  0.00  0.00    +0.100 A 
ATOM      5  C   LIG    1      -24.936  77.747  31.106  0.00  0.00    +0.150 A 
ATOM      6  N   LIG    1      -24.381  77.227  30.012  0.00  0.00    -0.173 NA
ATOM      7  N   LIG    1      -23.065  77.163  30.315  0.00  0.00    -0.221 N 
ATOM      8  C   LIG    1      -22.038  76.812  29.459  0.00  0.00    +0.118 A 
ATOM      9  C   LIG    1      -20.776  76.810  29.894  0.00  0.00    +0.063 A 
ENDROOT
BRANCH   1  11
ATOM     10  C   LIG    1      -18.564  78.341  32.357  0.00  0.00    +0.108 C 
ATOM     11  N   LIG    1      -19.234  77.150  31.812  0.00  0.00    -0.308 N 
ATOM     12  C   LIG    1      -18.254  76.149  31.386  0.00  0.00    +0.107 C 
ATOM     13  C   LIG    1      -16.901  76.699  31.804  0.00  0.00    +0.021 C 
ATOM     14  C   LIG    1      -17.133  78.199  31.811  0.00  0.00    +0.029 C 
BRANCH  10  18
ATOM     15  F   LIG    1      -17.406  76.680  36.851  0.00  0.00    -0.205 F 
ATOM     16  C   LIG    1      -18.103  77.533  36.088  0.00  0.00    +0.124 A 
ATOM     17  C   LIG    1      -17.943  77.498  34.705  0.00  0.00    +0.046 A 
ATOM     18  C   LIG    1      -18.654  78.383  33.875  0.00  0.00    +0.011 A 
ATOM     19  C   LIG    1      -19.529  79.284  34.498  0.00  0.00    +0.129 A 
ATOM     20  F   LIG    1      -20.260  80.127  33.753  0.00  0.00    -0.205 F 
ATOM     21  C   LIG    1      -19.693  79.317  35.884  0.00  0.00    +0.041 A 
ATOM     22  C   LIG    1      -18.974  78.433  36.686  0.00  0.00    +0.041 A 
ENDBRANCH  10  18
ENDBRANCH   1  11
BRANCH   4  23
ATOM     23  C   LIG    1      -24.335  78.628  33.405  0.00  0.00    +0.249 C 
ATOM     24  N   LIG    1      -23.372  79.451  33.950  0.00  0.00    -0.311 N 
ATOM     25  H   LIG    1      -22.545  79.641  33.403  0.00  0.00    +0.149 HD
ATOM     26  O   LIG    1      -25.409  78.428  33.954  0.00  0.00    -0.270 OA
BRANCH  24  27
ATOM     27  C   LIG    1      -23.619  80.111  35.220  0.00  0.00    +0.110 C 
BRANCH  27  28
ATOM     28  C   LIG    1      -22.833  81.405  35.442  0.00  0.00    +0.073 C 
BRANCH  28  29
ATOM     29  C   LIG    1      -23.345  82.253  36.556  0.00  0.00    +0.037 A 
ATOM     30  N   LIG    1      -22.611  82.547  37.680  0.00  0.00    -0.348 N 
ATOM     31  H   LIG    1      -21.662  82.258  37.875  0.00  0.00    +0.166 HD
ATOM     32  C   LIG    1      -23.399  83.294  38.508  0.00  0.00    +0.196 A 
ATOM     33  N   LIG    1      -24.589  83.493  37.990  0.00  0.00    -0.244 NA
ATOM     34  C   LIG    1      -24.563  82.859  36.775  0.00  0.00    +0.133 A 
ENDBRANCH  28  29
ENDBRANCH  27  28
ENDBRANCH  24  27
ENDBRANCH   4  23
TORSDOF 6
ENDMDL
MODEL 4
REMARK VINA RESULT:      -5.8     12.689     15.899
REMARK  Name = pdb/CHEMBL3671153.pdb
REMARK                            x       y       z     vdW  Elec       q    Type
REMARK                         _______ _______ _______ _____ _____    ______ ____
ROOT
ATOM      1  C   LIG    1      -38.003  77.170  26.960  0.00  0.00    +0.126 A 
ATOM      2  N   LIG    1      -38.287  76.135  26.196  0.00  0.00    -0.212 NA
ATOM      3  C   LIG    1      -39.180  76.315  25.167  0.00  0.00    +0.170 A 
ATOM      4  C   LIG    1      -39.819  75.440  24.306  0.00  0.00    +0.100 A 
ATOM      5  C   LIG    1      -40.597  76.273  23.470  0.00  0.00    +0.150 A 
ATOM      6  N   LIG    1      -40.511  77.565  23.786  0.00  0.00    -0.173 NA
ATOM      7  N   LIG    1      -39.697  77.582  24.864  0.00  0.00    -0.221 N 
ATOM      8  C   LIG    1      -39.393  78.677  25.651  0.00  0.00    +0.118 A 
ATOM      9  C   LIG    1      -38.581  78.542  26.702  0.00  0.00    +0.063 A 
ENDROOT
BRANCH   1  11
ATOM     10  C   LIG    1      -35.837  76.348  27.927  0.00  0.00    +0.108 C 
ATOM     11  N   LIG    1      -37.140  77.021  28.037  0.00  0.00    -0.308 N 
ATOM     12  C   LIG    1      -37.596  77.052  29.428  0.00  0.00    +0.107 C 
ATOM     13  C   LIG    1      -36.453  76.473  30.245  0.00  0.00    +0.021 C 
ATOM     14  C   LIG    1      -35.751  75.567  29.250  0.00  0.00    +0.029 C 
BRANCH  10  18
ATOM     15  F   LIG    1      -34.002  80.923  27.908  0.00  0.00    -0.205 F 
ATOM     16  C   LIG    1      -33.825  79.615  27.676  0.00  0.00    +0.124 A 
ATOM     17  C   LIG    1      -34.866  78.728  27.941  0.00  0.00    +0.046 A 
ATOM     18  C   LIG    1      -34.711  77.348  27.716  0.00  0.00    +0.011 A 
ATOM     19  C   LIG    1      -33.478  76.916  27.207  0.00  0.00    +0.129 A 
ATOM     20  F   LIG    1      -33.287  75.615  26.940  0.00  0.00    -0.205 F 
ATOM     21  C   LIG    1      -32.436  77.805  26.938  0.00  0.00    +0.041 A 
ATOM     22  C   LIG    1      -32.612  79.167  27.174  0.00  0.00    +0.041 A 
ENDBRANCH  10  18
ENDBRANCH   1  11
BRANCH   4  23
ATOM     23  C   LIG    1      -39.795  73.991  24.228  0.00  0.00    +0.249 C 
ATOM     24  N   LIG    1      -38.796  73.354  24.934  0.00  0.00    -0.311 N 
ATOM     25  H   LIG    1      -38.207  73.912  25.533  0.00  0.00    +0.149 HD
ATOM     26  O   LIG    1      -40.616  73.379  23.561  0.00  0.00    -0.270 OA
BRANCH  24  27
ATOM     27  C   LIG    1      -38.697  71.905  24.895  0.00  0.00    +0.110 C 
BRANCH  27  28
ATOM     28  C   LIG    1      -37.375  71.360  24.349  0.00  0.00    +0.073 C 
BRANCH  28  29
ATOM     29  C   LIG    1      -36.363  71.038  25.394  0.00  0.00    +0.037 A 
ATOM     30  N   LIG    1      -35.333  70.149  25.200  0.00  0.00    -0.348 N 
ATOM     31  H   LIG    1      -35.126  69.640  24.352  0.00  0.00    +0.166 HD
ATOM     32  C   LIG    1      -34.636  70.057  26.371  0.00  0.00    +0.196 A 
ATOM     33  N   LIG    1      -35.155  70.824  27.301  0.00  0.00    -0.244 NA
ATOM     34  C   LIG    1      -36.221  71.444  26.703  0.00  0.00    +0.133 A 
ENDBRANCH  28  29
ENDBRANCH  27  28
ENDBRANCH  24  27
ENDBRANCH   4  23
TORSDOF 6
ENDMDL
MODEL 5
REMARK VINA RESULT:      -5.8     13.051     17.513
REMARK  Name = pdb/CHEMBL3671153.pdb
REMARK                            x       y       z     vdW  Elec       q    Type
REMARK                         _______ _______ _______ _____ _____    ______ ____
ROOT
ATOM      1  C   LIG    1      -38.294  71.260  24.565  0.00  0.00    +0.126 A 
ATOM      2  N   LIG    1      -37.268  71.533  25.345  0.00  0.00    -0.212 NA
ATOM      3  C   LIG    1      -36.202  70.664  25.343  0.00  0.00    +0.170 A 
ATOM      4  C   LIG    1      -35.076  70.549  26.137  0.00  0.00    +0.100 A 
ATOM      5  C   LIG    1      -34.372  69.451  25.592  0.00  0.00    +0.150 A 
ATOM      6  N   LIG    1      -35.002  68.875  24.570  0.00  0.00    -0.173 NA
ATOM      7  N   LIG    1      -36.153  69.576  24.461  0.00  0.00    -0.221 N 
ATOM      8  C   LIG    1      -37.217  69.290  23.628  0.00  0.00    +0.118 A 
ATOM      9  C   LIG    1      -38.303  70.066  23.639  0.00  0.00    +0.063 A 
ENDROOT
BRANCH   1  11
ATOM     10  C   LIG    1      -39.644  73.101  25.609  0.00  0.00    +0.108 C 
ATOM     11  N   LIG    1      -39.408  72.087  24.569  0.00  0.00    -0.308 N 
ATOM     12  C   LIG    1      -40.656  71.739  23.886  0.00  0.00    +0.107 C 
ATOM     13  C   LIG    1      -41.707  72.682  24.451  0.00  0.00    +0.021 C 
ATOM     14  C   LIG    1      -41.164  73.006  25.831  0.00  0.00    +0.029 C 
BRANCH  10  18
ATOM     15  F   LIG    1      -40.055  77.228  22.943  0.00  0.00    -0.205 F 
ATOM     16  C   LIG    1      -39.355  76.492  23.818  0.00  0.00    +0.124 A 
ATOM     17  C   LIG    1      -39.866  75.267  24.242  0.00  0.00    +0.046 A 
ATOM     18  C   LIG    1      -39.162  74.474  25.165  0.00  0.00    +0.011 A 
ATOM     19  C   LIG    1      -37.930  74.963  25.624  0.00  0.00    +0.129 A 
ATOM     20  F   LIG    1      -37.199  74.232  26.477  0.00  0.00    -0.205 F 
ATOM     21  C   LIG    1      -37.417  76.189  25.197  0.00  0.00    +0.041 A 
ATOM     22  C   LIG    1      -38.135  76.960  24.285  0.00  0.00    +0.041 A 
ENDBRANCH  10  18
ENDBRANCH   1  11
BRANCH   4  23
ATOM     23  C   LIG    1      -34.649  71.301  27.302  0.00  0.00    +0.249 C 
ATOM     24  N   LIG    1      -34.861  72.664  27.266  0.00  0.00    -0.311 N 
ATOM     25  H   LIG    1      -35.379  73.044  26.488  0.00  0.00    +0.149 HD
ATOM     26  O   LIG    1      -34.122  70.748  28.256  0.00  0.00    -0.270 OA
BRANCH  24  27
ATOM     27  C   LIG    1      -34.449  73.489  28.389  0.00  0.00    +0.110 C 
BRANCH  27  28
ATOM     28  C   LIG    1      -33.524  74.655  28.033  0.00  0.00    +0.073 C 
BRANCH  28  29
ATOM     29  C   LIG    1      -34.207  75.976  27.939  0.00  0.00    +0.037 A 
ATOM     30  N   LIG    1      -35.462  76.215  28.446  0.00  0.00    -0.348 N 
ATOM     31  H   LIG    1      -36.047  75.560  28.946  0.00  0.00    +0.166 HD
ATOM     32  C   LIG    1      -35.796  77.503  28.139  0.00  0.00    +0.196 A 
ATOM     33  N   LIG    1      -34.840  78.101  27.467  0.00  0.00    -0.244 NA
ATOM     34  C   LIG    1      -33.846  77.166  27.345  0.00  0.00    +0.133 A 
ENDBRANCH  28  29
ENDBRANCH  27  28
ENDBRANCH  24  27
ENDBRANCH   4  23
TORSDOF 6
ENDMDL
MODEL 6
REMARK VINA RESULT:      -5.7     17.628     21.029
REMARK  Name = pdb/CHEMBL3671153.pdb
REMARK                            x       y       z     vdW  Elec       q    Type
REMARK                         _______ _______ _______ _____ _____    ______ ____
ROOT
ATOM      1  C   LIG    1      -42.243  73.053  23.441  0.00  0.00    +0.126 A 
ATOM      2  N   LIG    1      -41.756  72.029  22.770  0.00  0.00    -0.212 NA
ATOM      3  C   LIG    1      -42.378  71.668  21.598  0.00  0.00    +0.170 A 
ATOM      4  C   LIG    1      -42.249  70.577  20.757  0.00  0.00    +0.100 A 
ATOM      5  C   LIG    1      -43.172  70.825  19.716  0.00  0.00    +0.150 A 
ATOM      6  N   LIG    1      -43.870  71.946  19.885  0.00  0.00    -0.173 NA
ATOM      7  N   LIG    1      -43.431  72.427  21.069  0.00  0.00    -0.221 N 
ATOM      8  C   LIG    1      -43.938  73.512  21.758  0.00  0.00    +0.118 A 
ATOM      9  C   LIG    1      -43.412  73.864  22.934  0.00  0.00    +0.063 A 
ENDROOT
BRANCH   1  11
ATOM     10  C   LIG    1      -40.223  73.371  24.899  0.00  0.00    +0.108 C 
ATOM     11  N   LIG    1      -41.672  73.423  24.651  0.00  0.00    -0.308 N 
ATOM     12  C   LIG    1      -42.418  73.421  25.912  0.00  0.00    +0.107 C 
ATOM     13  C   LIG    1      -41.366  73.496  27.008  0.00  0.00    +0.021 C 
ATOM     14  C   LIG    1      -40.149  72.870  26.352  0.00  0.00    +0.029 C 
BRANCH  10  18
ATOM     15  F   LIG    1      -40.281  78.034  23.301  0.00  0.00    -0.205 F 
ATOM     16  C   LIG    1      -39.600  77.017  23.845  0.00  0.00    +0.124 A 
ATOM     17  C   LIG    1      -40.255  75.812  24.092  0.00  0.00    +0.046 A 
ATOM     18  C   LIG    1      -39.571  74.726  24.670  0.00  0.00    +0.011 A 
ATOM     19  C   LIG    1      -38.214  74.909  24.970  0.00  0.00    +0.129 A 
ATOM     20  F   LIG    1      -37.505  73.896  25.489  0.00  0.00    -0.205 F 
ATOM     21  C   LIG    1      -37.558  76.114  24.719  0.00  0.00    +0.041 A 
ATOM     22  C   LIG    1      -38.256  77.177  24.151  0.00  0.00    +0.041 A 
ENDBRANCH  10  18
ENDBRANCH   1  11
BRANCH   4  23
ATOM     23  C   LIG    1      -41.422  69.389  20.856  0.00  0.00    +0.249 C 
ATOM     24  N   LIG    1      -40.061  69.593  20.951  0.00  0.00    -0.311 N 
ATOM     25  H   LIG    1      -39.728  70.541  21.044  0.00  0.00    +0.149 HD
ATOM     26  O   LIG    1      -41.915  68.271  20.845  0.00  0.00    -0.270 OA
BRANCH  24  27
ATOM     27  C   LIG    1      -39.164  68.454  21.041  0.00  0.00    +0.110 C 
BRANCH  27  28
ATOM     28  C   LIG    1      -37.813  68.742  21.698  0.00  0.00    +0.073 C 
BRANCH  28  29
ATOM     29  C   LIG    1      -37.905  69.345  23.057  0.00  0.00    +0.037 A 
ATOM     30  N   LIG    1      -37.125  70.399  23.471  0.00  0.00    -0.348 N 
ATOM     31  H   LIG    1      -36.435  70.892  22.921  0.00  0.00    +0.166 HD
ATOM     32  C   LIG    1      -37.433  70.658  24.776  0.00  0.00    +0.196 A 
ATOM     33  N   LIG    1      -38.355  69.838  25.224  0.00  0.00    -0.244 NA
ATOM     34  C   LIG    1      -38.661  69.026  24.164  0.00  0.00    +0.133 A 
ENDBRANCH  28  29
ENDBRANCH  27  28
ENDBRANCH  24  27
ENDBRANCH   4  23
TORSDOF 6
ENDMDL
MODEL 7
REMARK VINA RESULT:      -5.7     15.864     18.903
REMARK  Name = pdb/CHEMBL3671153.pdb
REMARK                            x       y       z     vdW  Elec       q    Type
REMARK                         _______ _______ _______ _____ _____    ______ ____
ROOT
ATOM      1  C   LIG    1      -38.984  71.168  24.264  0.00  0.00    +0.126 A 
ATOM      2  N   LIG    1      -37.942  70.394  24.043  0.00  0.00    -0.212 NA
ATOM      3  C   LIG    1      -38.047  69.425  23.073  0.00  0.00    +0.170 A 
ATOM      4  C   LIG    1      -37.243  68.361  22.708  0.00  0.00    +0.100 A 
ATOM      5  C   LIG    1      -37.919  67.765  21.620  0.00  0.00    +0.150 A 
ATOM      6  N   LIG    1      -39.078  68.354  21.332  0.00  0.00    -0.173 NA
ATOM      7  N   LIG    1      -39.187  69.328  22.263  0.00  0.00    -0.221 N 
ATOM      8  C   LIG    1      -40.280  70.146  22.476  0.00  0.00    +0.118 A 
ATOM      9  C   LIG    1      -40.253  71.059  23.450  0.00  0.00    +0.063 A 
ENDROOT
BRANCH   1  11
ATOM     10  C   LIG    1      -38.111  73.343  25.164  0.00  0.00    +0.108 C 
ATOM     11  N   LIG    1      -38.935  72.129  25.264  0.00  0.00    -0.308 N 
ATOM     12  C   LIG    1      -39.266  71.836  26.661  0.00  0.00    +0.107 C 
ATOM     13  C   LIG    1      -38.718  73.005  27.463  0.00  0.00    +0.021 C 
ATOM     14  C   LIG    1      -37.576  73.504  26.598  0.00  0.00    +0.029 C 
BRANCH  10  18
ATOM     15  F   LIG    1      -42.179  75.343  23.227  0.00  0.00    -0.205 F 
ATOM     16  C   LIG    1      -40.926  75.499  23.674  0.00  0.00    +0.124 A 
ATOM     17  C   LIG    1      -40.240  74.397  24.179  0.00  0.00    +0.046 A 
ATOM     18  C   LIG    1      -38.925  74.527  24.663  0.00  0.00    +0.011 A 
ATOM     19  C   LIG    1      -38.342  75.800  24.602  0.00  0.00    +0.129 A 
ATOM     20  F   LIG    1      -37.078  75.975  25.016  0.00  0.00    -0.205 F 
ATOM     21  C   LIG    1      -39.028  76.903  24.092  0.00  0.00    +0.041 A 
ATOM     22  C   LIG    1      -40.331  76.751  23.623  0.00  0.00    +0.041 A 
ENDBRANCH  10  18
ENDBRANCH   1  11
BRANCH   4  23
ATOM     23  C   LIG    1      -36.001  67.866  23.274  0.00  0.00    +0.249 C 
ATOM     24  N   LIG    1      -36.107  67.104  24.419  0.00  0.00    -0.311 N 
ATOM     25  H   LIG    1      -37.031  66.855  24.740  0.00  0.00    +0.149 HD
ATOM     26  O   LIG    1      -34.923  68.125  22.760  0.00  0.00    -0.270 OA
BRANCH  24  27
ATOM     27  C   LIG    1      -34.909  66.583  25.054  0.00  0.00    +0.110 C 
BRANCH  27  28
ATOM     28  C   LIG    1      -34.580  67.192  26.418  0.00  0.00    +0.073 C 
BRANCH  28  29
ATOM     29  C   LIG    1      -34.917  68.638  26.545  0.00  0.00    +0.037 A 
ATOM     30  N   LIG    1      -34.202  69.637  25.926  0.00  0.00    -0.348 N 
ATOM     31  H   LIG    1      -33.407  69.520  25.314  0.00  0.00    +0.166 HD
ATOM     32  C   LIG    1      -34.749  70.831  26.299  0.00  0.00    +0.196 A 
ATOM     33  N   LIG    1      -35.762  70.662  27.116  0.00  0.00    -0.244 NA
ATOM     34  C   LIG    1      -35.880  69.305  27.269  0.00  0.00    +0.133 A 
ENDBRANCH  28  29
ENDBRANCH  27  28
ENDBRANCH  24  27
ENDBRANCH   4  23
TORSDOF 6
ENDMDL
MODEL 8
REMARK VINA RESULT:      -5.7     18.787     22.315
REMARK  Name = pdb/CHEMBL3671153.pdb
REMARK                            x       y       z     vdW  Elec       q    Type
REMARK                         _______ _______ _______ _____ _____    ______ ____
ROOT
ATOM      1  C   LIG    1      -41.296  72.108  23.512  0.00  0.00    +0.126 A 
ATOM      2  N   LIG    1      -42.341  72.473  22.798  0.00  0.00    -0.212 NA
ATOM      3  C   LIG    1      -42.644  71.745  21.671  0.00  0.00    +0.170 A 
ATOM      4  C   LIG    1      -43.532  71.942  20.629  0.00  0.00    +0.100 A 
ATOM      5  C   LIG    1      -43.360  70.809  19.802  0.00  0.00    +0.150 A 
ATOM      6  N   LIG    1      -42.416  69.976  20.237  0.00  0.00    -0.173 NA
ATOM      7  N   LIG    1      -41.933  70.582  21.344  0.00  0.00    -0.221 N 
ATOM      8  C   LIG    1      -40.845  70.182  22.095  0.00  0.00    +0.118 A 
ATOM      9  C   LIG    1      -40.469  70.892  23.162  0.00  0.00    +0.063 A 
ENDROOT
BRANCH   1  11
ATOM     10  C   LIG    1      -39.641  73.543  24.738  0.00  0.00    +0.108 C 
ATOM     11  N   LIG    1      -40.930  72.842  24.631  0.00  0.00    -0.308 N 
ATOM     12  C   LIG    1      -41.510  72.610  25.956  0.00  0.00    +0.107 C 
ATOM     13  C   LIG    1      -40.586  73.316  26.935  0.00  0.00    +0.021 C 
ATOM     14  C   LIG    1      -39.253  73.308  26.208  0.00  0.00    +0.029 C 
BRANCH  10  18
ATOM     15  F   LIG    1      -42.179  77.394  22.998  0.00  0.00    -0.205 F 
ATOM     16  C   LIG    1      -41.023  76.895  23.458  0.00  0.00    +0.124 A 
ATOM     17  C   LIG    1      -40.967  75.562  23.857  0.00  0.00    +0.046 A 
ATOM     18  C   LIG    1      -39.771  75.008  24.351  0.00  0.00    +0.011 A 
ATOM     19  C   LIG    1      -38.651  75.849  24.411  0.00  0.00    +0.129 A 
ATOM     20  F   LIG    1      -37.477  75.365  24.839  0.00  0.00    -0.205 F 
ATOM     21  C   LIG    1      -38.707  77.184  24.007  0.00  0.00    +0.041 A 
ATOM     22  C   LIG    1      -39.904  77.712  23.525  0.00  0.00    +0.041 A 
ENDBRANCH  10  18
ENDBRANCH   1  11
BRANCH   4  23
ATOM     23  C   LIG    1      -44.438  73.039  20.342  0.00  0.00    +0.249 C 
ATOM     24  N   LIG    1      -44.577  73.995  21.326  0.00  0.00    -0.311 N 
ATOM     25  H   LIG    1      -43.980  73.933  22.137  0.00  0.00    +0.149 HD
ATOM     26  O   LIG    1      -45.046  73.097  19.284  0.00  0.00    -0.270 OA
BRANCH  24  27
ATOM     27  C   LIG    1      -45.475  75.118  21.120  0.00  0.00    +0.110 C 
BRANCH  27  28
ATOM     28  C   LIG    1      -44.817  76.381  20.560  0.00  0.00    +0.073 C 
BRANCH  28  29
ATOM     29  C   LIG    1      -44.967  76.553  19.087  0.00  0.00    +0.037 A 
ATOM     30  N   LIG    1      -44.214  75.865  18.166  0.00  0.00    -0.348 N 
ATOM     31  H   LIG    1      -43.509  75.168  18.361  0.00  0.00    +0.166 HD
ATOM     32  C   LIG    1      -44.575  76.304  16.924  0.00  0.00    +0.196 A 
ATOM     33  N   LIG    1      -45.505  77.227  16.991  0.00  0.00    -0.244 NA
ATOM     34  C   LIG    1      -45.762  77.383  18.328  0.00  0.00    +0.133 A 
ENDBRANCH  28  29
ENDBRANCH  27  28
ENDBRANCH  24  27
ENDBRANCH   4  23
TORSDOF 6
ENDMDL
MODEL 9
REMARK VINA RESULT:      -5.7     11.455     14.979
REMARK  Name = pdb/CHEMBL3671153.pdb
REMARK                            x       y       z     vdW  Elec       q    Type
REMARK                         _______ _______ _______ _____ _____    ______ ____
ROOT
ATOM      1  C   LIG    1      -34.959  71.565  27.924  0.00  0.00    +0.126 A 
ATOM      2  N   LIG    1      -36.002  71.977  27.233  0.00  0.00    -0.212 NA
ATOM      3  C   LIG    1      -36.332  71.291  26.088  0.00  0.00    +0.170 A 
ATOM      4  C   LIG    1      -37.225  71.541  25.061  0.00  0.00    +0.100 A 
ATOM      5  C   LIG    1      -37.088  70.431  24.197  0.00  0.00    +0.150 A 
ATOM      6  N   LIG    1      -36.160  69.562  24.597  0.00  0.00    -0.173 NA
ATOM      7  N   LIG    1      -35.653  70.123  25.718  0.00  0.00    -0.221 N 
ATOM      8  C   LIG    1      -34.568  69.673  26.445  0.00  0.00    +0.118 A 
ATOM      9  C   LIG    1      -34.165  70.341  27.529  0.00  0.00    +0.063 A 
ENDROOT
BRANCH   1  11
ATOM     10  C   LIG    1      -33.204  72.786  29.241  0.00  0.00    +0.108 C 
ATOM     11  N   LIG    1      -34.564  72.255  29.062  0.00  0.00    -0.308 N 
ATOM     12  C   LIG    1      -35.242  72.110  30.352  0.00  0.00    +0.107 C 
ATOM     13  C   LIG    1      -34.291  72.701  31.381  0.00  0.00    +0.021 C 
ATOM     14  C   LIG    1      -32.932  72.516  30.731  0.00  0.00    +0.029 C 
BRANCH  10  18
ATOM     15  F   LIG    1      -34.899  76.782  26.904  0.00  0.00    -0.205 F 
ATOM     16  C   LIG    1      -33.951  76.211  27.659  0.00  0.00    +0.124 A 
ATOM     17  C   LIG    1      -34.096  74.881  28.047  0.00  0.00    +0.046 A 
ATOM     18  C   LIG    1      -33.123  74.253  28.845  0.00  0.00    +0.011 A 
ATOM     19  C   LIG    1      -32.008  75.017  29.217  0.00  0.00    +0.129 A 
ATOM     20  F   LIG    1      -31.032  74.458  29.948  0.00  0.00    -0.205 F 
ATOM     21  C   LIG    1      -31.860  76.348  28.826  0.00  0.00    +0.041 A 
ATOM     22  C   LIG    1      -32.840  76.950  28.039  0.00  0.00    +0.041 A 
ENDBRANCH  10  18
ENDBRANCH   1  11
BRANCH   4  23
ATOM     23  C   LIG    1      -38.107  72.668  24.816  0.00  0.00    +0.249 C 
ATOM     24  N   LIG    1      -37.672  73.897  25.266  0.00  0.00    -0.311 N 
ATOM     25  H   LIG    1      -36.740  73.962  25.647  0.00  0.00    +0.149 HD
ATOM     26  O   LIG    1      -39.179  72.522  24.249  0.00  0.00    -0.270 OA
BRANCH  24  27
ATOM     27  C   LIG    1      -38.504  75.072  25.072  0.00  0.00    +0.110 C 
BRANCH  27  28
ATOM     28  C   LIG    1      -37.765  76.314  24.566  0.00  0.00    +0.073 C 
BRANCH  28  29
ATOM     29  C   LIG    1      -38.600  77.546  24.509  0.00  0.00    +0.037 A 
ATOM     30  N   LIG    1      -39.007  78.130  23.333  0.00  0.00    -0.348 N 
ATOM     31  H   LIG    1      -38.818  77.798  22.397  0.00  0.00    +0.166 HD
ATOM     32  C   LIG    1      -39.703  79.261  23.649  0.00  0.00    +0.196 A 
ATOM     33  N   LIG    1      -39.766  79.441  24.948  0.00  0.00    -0.244 NA
ATOM     34  C   LIG    1      -39.093  78.378  25.491  0.00  0.00    +0.133 A 
ENDBRANCH  28  29
ENDBRANCH  27  28
ENDBRANCH  24  27
ENDBRANCH   4  23
TORSDOF 6
ENDMDL
