MODEL 1
REMARK VINA RESULT:      -5.4      0.000      0.000
REMARK  Name = pdb/CHEMBL211160.pdb
REMARK                            x       y       z     vdW  Elec       q    Type
REMARK                         _______ _______ _______ _____ _____    ______ ____
ROOT
ATOM      1  C   LIG    1      -35.218  76.048  27.540  0.00  0.00    +0.106 C 
ATOM      2  C   LIG    1      -34.035  75.349  27.998  0.00  0.00    +0.082 C 
ATOM      3  C   LIG    1      -32.995  76.274  28.132  0.00  0.00    +0.170 C 
ATOM      4  S   LIG    1      -33.485  77.723  27.373  0.00  0.00    -0.002 S 
ATOM      5  N   LIG    1      -35.027  77.270  27.063  0.00  0.00    -0.173 NA
ENDROOT
BRANCH   3   6
ATOM      6  N   LIG    1      -31.724  76.159  28.706  0.00  0.00    -0.277 N 
ATOM      7  H   LIG    1      -30.971  75.873  28.084  0.00  0.00    +0.152 HD
ATOM      8  C   LIG    1      -31.479  76.189  30.067  0.00  0.00    +0.301 C 
ATOM      9  N   LIG    1      -30.151  75.993  30.390  0.00  0.00    -0.302 N 
ATOM     10  H   LIG    1      -29.467  76.331  29.730  0.00  0.00    +0.150 HD
ATOM     11  C   LIG    1      -29.792  76.030  31.793  0.00  0.00    +0.129 C 
ATOM     12  O   LIG    1      -32.312  76.338  30.957  0.00  0.00    -0.253 OA
ENDBRANCH   3   6
BRANCH   2  13
ATOM     13  C   LIG    1      -33.847  73.933  28.332  0.00  0.00    +0.243 C 
ATOM     14  N   LIG    1      -34.118  73.024  27.340  0.00  0.00    -0.325 N 
ATOM     15  H   LIG    1      -33.893  72.052  27.508  0.00  0.00    +0.145 HD
ATOM     16  H   LIG    1      -34.420  73.296  26.415  0.00  0.00    +0.145 HD
ATOM     17  O   LIG    1      -33.406  73.553  29.408  0.00  0.00    -0.271 OA
ENDBRANCH   2  13
BRANCH   1  18
ATOM     18  S   LIG    1      -36.894  75.441  27.512  0.00  0.00    -0.099 S 
BRANCH  18  19
ATOM     19  C   LIG    1      -37.473  75.969  25.814  0.00  0.00    +0.082 C 
BRANCH  19  20
ATOM     20  C   LIG    1      -38.340  74.914  25.089  0.00  0.00    -0.034 A 
ATOM     21  C   LIG    1      -38.021  73.545  25.082  0.00  0.00    +0.006 A 
ATOM     22  C   LIG    1      -38.876  72.597  24.499  0.00  0.00    +0.020 A 
ATOM     23  C   LIG    1      -40.076  72.998  23.921  0.00  0.00    +0.041 A 
ATOM     24 CL   LIG    1      -41.141  71.821  23.254  0.00  0.00    -0.084 Cl
ATOM     25  C   LIG    1      -40.416  74.346  23.896  0.00  0.00    +0.020 A 
ATOM     26  C   LIG    1      -39.554  75.296  24.472  0.00  0.00    +0.006 A 
ENDBRANCH  19  20
BRANCH  19  28
ATOM     27  C   LIG    1      -38.600  77.886  27.187  0.00  0.00    +0.005 C 
ATOM     28  C   LIG    1      -38.176  77.351  25.823  0.00  0.00    +0.016 C 
ENDBRANCH  19  28
ENDBRANCH  18  19
ENDBRANCH   1  18
TORSDOF 6
ENDMDL
MODEL 2
REMARK VINA RESULT:      -5.4      2.873      4.198
REMARK  Name = pdb/CHEMBL211160.pdb
REMARK                            x       y       z     vdW  Elec       q    Type
REMARK                         _______ _______ _______ _____ _____    ______ ____
ROOT
ATOM      1  C   LIG    1      -38.776  74.986  27.178  0.00  0.00    +0.106 C 
ATOM      2  C   LIG    1      -37.637  75.728  26.677  0.00  0.00    +0.082 C 
ATOM      3  C   LIG    1      -36.490  75.286  27.342  0.00  0.00    +0.170 C 
ATOM      4  S   LIG    1      -36.990  74.336  28.670  0.00  0.00    -0.002 S 
ATOM      5  N   LIG    1      -38.585  74.313  28.304  0.00  0.00    -0.173 NA
ENDROOT
BRANCH   3   6
ATOM      6  N   LIG    1      -35.133  75.537  27.110  0.00  0.00    -0.277 N 
ATOM      7  H   LIG    1      -34.534  74.722  27.003  0.00  0.00    +0.152 HD
ATOM      8  C   LIG    1      -34.538  76.780  27.239  0.00  0.00    +0.301 C 
ATOM      9  N   LIG    1      -33.176  76.761  27.018  0.00  0.00    -0.302 N 
ATOM     10  H   LIG    1      -32.831  76.085  26.352  0.00  0.00    +0.150 HD
ATOM     11  C   LIG    1      -32.467  78.022  27.108  0.00  0.00    +0.129 C 
ATOM     12  O   LIG    1      -35.097  77.829  27.547  0.00  0.00    -0.253 OA
ENDBRANCH   3   6
BRANCH   2  13
ATOM     13  C   LIG    1      -37.570  76.757  25.633  0.00  0.00    +0.243 C 
ATOM     14  N   LIG    1      -38.010  78.011  25.974  0.00  0.00    -0.325 N 
ATOM     15  H   LIG    1      -37.873  78.763  25.311  0.00  0.00    +0.145 HD
ATOM     16  H   LIG    1      -38.356  78.239  26.895  0.00  0.00    +0.145 HD
ATOM     17  O   LIG    1      -37.085  76.557  24.529  0.00  0.00    -0.271 OA
ENDBRANCH   2  13
BRANCH   1  18
ATOM     18  S   LIG    1      -40.411  74.900  26.474  0.00  0.00    -0.099 S 
BRANCH  18  19
ATOM     19  C   LIG    1      -40.044  74.711  24.650  0.00  0.00    +0.082 C 
BRANCH  19  20
ATOM     20  C   LIG    1      -39.968  73.243  24.173  0.00  0.00    -0.034 A 
ATOM     21  C   LIG    1      -38.897  72.394  24.495  0.00  0.00    +0.006 A 
ATOM     22  C   LIG    1      -38.901  71.039  24.130  0.00  0.00    +0.020 A 
ATOM     23  C   LIG    1      -39.984  70.502  23.444  0.00  0.00    +0.041 A 
ATOM     24 CL   LIG    1      -40.001  68.827  23.045  0.00  0.00    -0.084 Cl
ATOM     25  C   LIG    1      -41.055  71.316  23.094  0.00  0.00    +0.020 A 
ATOM     26  C   LIG    1      -41.046  72.676  23.452  0.00  0.00    +0.006 A 
ENDBRANCH  19  20
BRANCH  19  28
ATOM     27  C   LIG    1      -40.538  76.936  23.371  0.00  0.00    +0.005 C 
ATOM     28  C   LIG    1      -41.006  75.536  23.757  0.00  0.00    +0.016 C 
ENDBRANCH  19  28
ENDBRANCH  18  19
ENDBRANCH   1  18
TORSDOF 6
ENDMDL
MODEL 3
REMARK VINA RESULT:      -5.3     17.490     19.019
REMARK  Name = pdb/CHEMBL211160.pdb
REMARK                            x       y       z     vdW  Elec       q    Type
REMARK                         _______ _______ _______ _____ _____    ______ ____
ROOT
ATOM      1  C   LIG    1      -21.878  78.645  15.148  0.00  0.00    +0.106 C 
ATOM      2  C   LIG    1      -22.740  79.755  15.496  0.00  0.00    +0.082 C 
ATOM      3  C   LIG    1      -21.945  80.820  15.928  0.00  0.00    +0.170 C 
ATOM      4  S   LIG    1      -20.365  80.222  16.179  0.00  0.00    -0.002 S 
ATOM      5  N   LIG    1      -20.624  78.724  15.572  0.00  0.00    -0.173 NA
ENDROOT
BRANCH   3   6
ATOM      6  N   LIG    1      -22.257  82.157  16.197  0.00  0.00    -0.277 N 
ATOM      7  H   LIG    1      -22.726  82.343  17.081  0.00  0.00    +0.152 HD
ATOM      8  C   LIG    1      -22.173  83.179  15.267  0.00  0.00    +0.301 C 
ATOM      9  N   LIG    1      -22.594  84.399  15.755  0.00  0.00    -0.302 N 
ATOM     10  H   LIG    1      -22.442  84.576  16.737  0.00  0.00    +0.150 HD
ATOM     11  C   LIG    1      -22.521  85.537  14.860  0.00  0.00    +0.129 C 
ATOM     12  O   LIG    1      -21.802  83.077  14.101  0.00  0.00    -0.253 OA
ENDBRANCH   3   6
BRANCH   2  13
ATOM     13  C   LIG    1      -24.201  79.873  15.416  0.00  0.00    +0.243 C 
ATOM     14  N   LIG    1      -24.934  78.884  16.021  0.00  0.00    -0.325 N 
ATOM     15  H   LIG    1      -25.937  78.998  16.076  0.00  0.00    +0.145 HD
ATOM     16  H   LIG    1      -24.509  78.110  16.513  0.00  0.00    +0.145 HD
ATOM     17  O   LIG    1      -24.767  80.830  14.905  0.00  0.00    -0.271 OA
ENDBRANCH   2  13
BRANCH   1  18
ATOM     18  S   LIG    1      -22.314  77.172  14.243  0.00  0.00    -0.099 S 
BRANCH  18  19
ATOM     19  C   LIG    1      -20.915  76.012  14.684  0.00  0.00    +0.082 C 
BRANCH  19  20
ATOM     20  C   LIG    1      -21.264  75.001  15.800  0.00  0.00    -0.034 A 
ATOM     21  C   LIG    1      -20.286  74.282  16.506  0.00  0.00    +0.006 A 
ATOM     22  C   LIG    1      -20.625  73.443  17.578  0.00  0.00    +0.020 A 
ATOM     23  C   LIG    1      -21.952  73.316  17.976  0.00  0.00    +0.041 A 
ATOM     24 CL   LIG    1      -22.351  72.324  19.326  0.00  0.00    -0.084 Cl
ATOM     25  C   LIG    1      -22.948  74.001  17.290  0.00  0.00    +0.020 A 
ATOM     26  C   LIG    1      -22.609  74.834  16.209  0.00  0.00    +0.006 A 
ENDBRANCH  19  20
BRANCH  19  28
ATOM     27  C   LIG    1      -21.289  74.423  12.643  0.00  0.00    +0.005 C 
ATOM     28  C   LIG    1      -20.324  75.289  13.447  0.00  0.00    +0.016 C 
ENDBRANCH  19  28
ENDBRANCH  18  19
ENDBRANCH   1  18
TORSDOF 6
ENDMDL
MODEL 4
REMARK VINA RESULT:      -5.3      2.572      3.539
REMARK  Name = pdb/CHEMBL211160.pdb
REMARK                            x       y       z     vdW  Elec       q    Type
REMARK                         _______ _______ _______ _____ _____    ______ ____
ROOT
ATOM      1  C   LIG    1      -38.076  78.904  27.109  0.00  0.00    +0.106 C 
ATOM      2  C   LIG    1      -37.063  77.942  27.491  0.00  0.00    +0.082 C 
ATOM      3  C   LIG    1      -36.095  78.596  28.258  0.00  0.00    +0.170 C 
ATOM      4  S   LIG    1      -36.357  80.277  28.106  0.00  0.00    -0.002 S 
ATOM      5  N   LIG    1      -37.759  80.182  27.269  0.00  0.00    -0.173 NA
ENDROOT
BRANCH   3   6
ATOM      6  N   LIG    1      -35.026  78.102  29.014  0.00  0.00    -0.277 N 
ATOM      7  H   LIG    1      -35.053  78.290  30.014  0.00  0.00    +0.152 HD
ATOM      8  C   LIG    1      -33.861  77.588  28.472  0.00  0.00    +0.301 C 
ATOM      9  N   LIG    1      -32.929  77.223  29.422  0.00  0.00    -0.302 N 
ATOM     10  H   LIG    1      -33.284  76.887  30.305  0.00  0.00    +0.150 HD
ATOM     11  C   LIG    1      -31.683  76.652  28.951  0.00  0.00    +0.129 C 
ATOM     12  O   LIG    1      -33.601  77.469  27.278  0.00  0.00    -0.253 OA
ENDBRANCH   3   6
BRANCH   2  13
ATOM     13  C   LIG    1      -36.979  76.503  27.216  0.00  0.00    +0.243 C 
ATOM     14  N   LIG    1      -36.161  76.120  26.183  0.00  0.00    -0.325 N 
ATOM     15  H   LIG    1      -35.999  75.132  26.042  0.00  0.00    +0.145 HD
ATOM     16  H   LIG    1      -35.625  76.779  25.635  0.00  0.00    +0.145 HD
ATOM     17  O   LIG    1      -37.541  75.658  27.898  0.00  0.00    -0.271 OA
ENDBRANCH   2  13
BRANCH   1  18
ATOM     18  S   LIG    1      -39.685  78.570  26.418  0.00  0.00    -0.099 S 
BRANCH  18  19
ATOM     19  C   LIG    1      -39.255  77.930  24.714  0.00  0.00    +0.082 C 
BRANCH  19  20
ATOM     20  C   LIG    1      -39.934  76.588  24.357  0.00  0.00    -0.034 A 
ATOM     21  C   LIG    1      -41.164  76.515  23.683  0.00  0.00    +0.006 A 
ATOM     22  C   LIG    1      -41.711  75.285  23.287  0.00  0.00    +0.020 A 
ATOM     23  C   LIG    1      -41.030  74.100  23.545  0.00  0.00    +0.041 A 
ATOM     24 CL   LIG    1      -41.684  72.601  23.008  0.00  0.00    -0.084 Cl
ATOM     25  C   LIG    1      -39.817  74.133  24.224  0.00  0.00    +0.020 A 
ATOM     26  C   LIG    1      -39.275  75.366  24.629  0.00  0.00    +0.006 A 
ENDBRANCH  19  20
BRANCH  19  28
ATOM     27  C   LIG    1      -40.071  80.322  24.047  0.00  0.00    +0.005 C 
ATOM     28  C   LIG    1      -39.491  78.983  23.601  0.00  0.00    +0.016 C 
ENDBRANCH  19  28
ENDBRANCH  18  19
ENDBRANCH   1  18
TORSDOF 6
ENDMDL
MODEL 5
REMARK VINA RESULT:      -5.1     22.704     23.930
REMARK  Name = pdb/CHEMBL211160.pdb
REMARK                            x       y       z     vdW  Elec       q    Type
REMARK                         _______ _______ _______ _____ _____    ______ ____
ROOT
ATOM      1  C   LIG    1      -22.262  87.360  12.748  0.00  0.00    +0.106 C 
ATOM      2  C   LIG    1      -21.573  86.687  13.830  0.00  0.00    +0.082 C 
ATOM      3  C   LIG    1      -21.882  85.326  13.777  0.00  0.00    +0.170 C 
ATOM      4  S   LIG    1      -23.187  85.129  12.693  0.00  0.00    -0.002 S 
ATOM      5  N   LIG    1      -23.229  86.674  12.155  0.00  0.00    -0.173 NA
ENDROOT
BRANCH   3   6
ATOM      6  N   LIG    1      -21.348  84.229  14.462  0.00  0.00    -0.277 N 
ATOM      7  H   LIG    1      -21.649  84.106  15.426  0.00  0.00    +0.152 HD
ATOM      8  C   LIG    1      -20.297  83.457  13.997  0.00  0.00    +0.301 C 
ATOM      9  N   LIG    1      -19.908  82.471  14.881  0.00  0.00    -0.302 N 
ATOM     10  H   LIG    1      -20.628  82.072  15.465  0.00  0.00    +0.150 HD
ATOM     11  C   LIG    1      -18.828  81.595  14.472  0.00  0.00    +0.129 C 
ATOM     12  O   LIG    1      -19.702  83.599  12.932  0.00  0.00    -0.253 OA
ENDBRANCH   3   6
BRANCH   2  13
ATOM     13  C   LIG    1      -20.657  87.226  14.842  0.00  0.00    +0.243 C 
ATOM     14  N   LIG    1      -21.163  87.390  16.107  0.00  0.00    -0.325 N 
ATOM     15  H   LIG    1      -20.526  87.654  16.846  0.00  0.00    +0.145 HD
ATOM     16  H   LIG    1      -22.112  87.147  16.353  0.00  0.00    +0.145 HD
ATOM     17  O   LIG    1      -19.478  87.460  14.619  0.00  0.00    -0.271 OA
ENDBRANCH   2  13
BRANCH   1  18
ATOM     18  S   LIG    1      -21.980  89.013  12.142  0.00  0.00    -0.099 S 
BRANCH  18  19
ATOM     19  C   LIG    1      -23.406  89.244  10.955  0.00  0.00    +0.082 C 
BRANCH  19  20
ATOM     20  C   LIG    1      -24.188  90.561  11.160  0.00  0.00    -0.034 A 
ATOM     21  C   LIG    1      -25.367  90.633  11.920  0.00  0.00    +0.006 A 
ATOM     22  C   LIG    1      -26.004  91.859  12.170  0.00  0.00    +0.020 A 
ATOM     23  C   LIG    1      -25.466  93.041  11.674  0.00  0.00    +0.041 A 
ATOM     24 CL   LIG    1      -26.226  94.545  12.029  0.00  0.00    -0.084 Cl
ATOM     25  C   LIG    1      -24.308  93.006  10.904  0.00  0.00    +0.020 A 
ATOM     26  C   LIG    1      -23.677  91.776  10.647  0.00  0.00    +0.006 A 
ENDBRANCH  19  20
BRANCH  19  28
ATOM     27  C   LIG    1      -21.518  88.738   9.220  0.00  0.00    +0.005 C 
ATOM     28  C   LIG    1      -22.984  89.075   9.473  0.00  0.00    +0.016 C 
ENDBRANCH  19  28
ENDBRANCH  18  19
ENDBRANCH   1  18
TORSDOF 6
ENDMDL
MODEL 6
REMARK VINA RESULT:      -5.1      9.300     15.201
REMARK  Name = pdb/CHEMBL211160.pdb
REMARK                            x       y       z     vdW  Elec       q    Type
REMARK                         _______ _______ _______ _____ _____    ______ ____
ROOT
ATOM      1  C   LIG    1      -24.342  76.443  33.637  0.00  0.00    +0.106 C 
ATOM      2  C   LIG    1      -25.142  76.351  32.433  0.00  0.00    +0.082 C 
ATOM      3  C   LIG    1      -26.434  76.800  32.720  0.00  0.00    +0.170 C 
ATOM      4  S   LIG    1      -26.578  76.922  34.418  0.00  0.00    -0.002 S 
ATOM      5  N   LIG    1      -25.010  76.615  34.770  0.00  0.00    -0.173 NA
ENDROOT
BRANCH   3   6
ATOM      6  N   LIG    1      -27.520  77.086  31.886  0.00  0.00    -0.277 N 
ATOM      7  H   LIG    1      -27.606  78.048  31.567  0.00  0.00    +0.152 HD
ATOM      8  C   LIG    1      -28.577  76.221  31.660  0.00  0.00    +0.301 C 
ATOM      9  N   LIG    1      -29.558  76.754  30.849  0.00  0.00    -0.302 N 
ATOM     10  H   LIG    1      -29.259  77.406  30.140  0.00  0.00    +0.150 HD
ATOM     11  C   LIG    1      -30.696  75.913  30.536  0.00  0.00    +0.129 C 
ATOM     12  O   LIG    1      -28.710  75.092  32.126  0.00  0.00    -0.253 OA
ENDBRANCH   3   6
BRANCH   2  13
ATOM     13  C   LIG    1      -24.765  75.916  31.083  0.00  0.00    +0.243 C 
ATOM     14  N   LIG    1      -24.376  76.896  30.205  0.00  0.00    -0.325 N 
ATOM     15  H   LIG    1      -24.007  76.614  29.307  0.00  0.00    +0.145 HD
ATOM     16  H   LIG    1      -24.332  77.873  30.459  0.00  0.00    +0.145 HD
ATOM     17  O   LIG    1      -24.722  74.740  30.748  0.00  0.00    -0.271 OA
ENDBRANCH   2  13
BRANCH   1  18
ATOM     18  S   LIG    1      -22.569  76.318  33.776  0.00  0.00    -0.099 S 
BRANCH  18  19
ATOM     19  C   LIG    1      -22.001  77.914  32.983  0.00  0.00    +0.082 C 
BRANCH  19  20
ATOM     20  C   LIG    1      -21.971  79.120  33.949  0.00  0.00    -0.034 A 
ATOM     21  C   LIG    1      -23.132  79.802  34.348  0.00  0.00    +0.006 A 
ATOM     22  C   LIG    1      -23.086  80.831  35.301  0.00  0.00    +0.020 A 
ATOM     23  C   LIG    1      -21.876  81.192  35.885  0.00  0.00    +0.041 A 
ATOM     24 CL   LIG    1      -21.838  82.421  37.090  0.00  0.00    -0.084 Cl
ATOM     25  C   LIG    1      -20.704  80.548  35.502  0.00  0.00    +0.020 A 
ATOM     26  C   LIG    1      -20.750  79.523  34.541  0.00  0.00    +0.006 A 
ENDBRANCH  19  20
BRANCH  19  28
ATOM     27  C   LIG    1      -20.723  77.581  30.727  0.00  0.00    +0.005 C 
ATOM     28  C   LIG    1      -20.649  77.765  32.240  0.00  0.00    +0.016 C 
ENDBRANCH  19  28
ENDBRANCH  18  19
ENDBRANCH   1  18
TORSDOF 6
ENDMDL
MODEL 7
REMARK VINA RESULT:      -5.0      5.793      8.050
REMARK  Name = pdb/CHEMBL211160.pdb
REMARK                            x       y       z     vdW  Elec       q    Type
REMARK                         _______ _______ _______ _____ _____    ______ ____
ROOT
ATOM      1  C   LIG    1      -39.507  70.674  23.924  0.00  0.00    +0.106 C 
ATOM      2  C   LIG    1      -38.143  70.188  23.949  0.00  0.00    +0.082 C 
ATOM      3  C   LIG    1      -37.916  69.436  22.793  0.00  0.00    +0.170 C 
ATOM      4  S   LIG    1      -39.429  69.144  22.056  0.00  0.00    -0.002 S 
ATOM      5  N   LIG    1      -40.316  70.099  23.045  0.00  0.00    -0.173 NA
ENDROOT
BRANCH   3   6
ATOM      6  N   LIG    1      -36.740  68.910  22.249  0.00  0.00    -0.277 N 
ATOM      7  H   LIG    1      -36.333  69.422  21.469  0.00  0.00    +0.152 HD
ATOM      8  C   LIG    1      -36.237  67.656  22.547  0.00  0.00    +0.301 C 
ATOM      9  N   LIG    1      -35.097  67.338  21.836  0.00  0.00    -0.302 N 
ATOM     10  H   LIG    1      -34.483  68.101  21.594  0.00  0.00    +0.150 HD
ATOM     11  C   LIG    1      -34.483  66.052  22.098  0.00  0.00    +0.129 C 
ATOM     12  O   LIG    1      -36.720  66.842  23.330  0.00  0.00    -0.253 OA
ENDBRANCH   3   6
BRANCH   2  13
ATOM     13  C   LIG    1      -37.083  70.410  24.939  0.00  0.00    +0.243 C 
ATOM     14  N   LIG    1      -36.212  71.441  24.689  0.00  0.00    -0.325 N 
ATOM     15  H   LIG    1      -35.542  71.685  25.406  0.00  0.00    +0.145 HD
ATOM     16  H   LIG    1      -36.287  72.037  23.877  0.00  0.00    +0.145 HD
ATOM     17  O   LIG    1      -36.995  69.772  25.979  0.00  0.00    -0.271 OA
ENDBRANCH   2  13
BRANCH   1  18
ATOM     18  S   LIG    1      -40.231  71.933  24.958  0.00  0.00    -0.099 S 
BRANCH  18  19
ATOM     19  C   LIG    1      -39.533  73.500  24.216  0.00  0.00    +0.082 C 
BRANCH  19  20
ATOM     20  C   LIG    1      -40.608  74.507  23.748  0.00  0.00    -0.034 A 
ATOM     21  C   LIG    1      -41.875  74.108  23.293  0.00  0.00    +0.006 A 
ATOM     22  C   LIG    1      -42.865  75.047  22.966  0.00  0.00    +0.020 A 
ATOM     23  C   LIG    1      -42.612  76.408  23.100  0.00  0.00    +0.041 A 
ATOM     24 CL   LIG    1      -43.851  77.550  22.745  0.00  0.00    -0.084 Cl
ATOM     25  C   LIG    1      -41.364  76.840  23.533  0.00  0.00    +0.020 A 
ATOM     26  C   LIG    1      -40.369  75.898  23.851  0.00  0.00    +0.006 A 
ENDBRANCH  19  20
BRANCH  19  28
ATOM     27  C   LIG    1      -38.526  73.790  26.611  0.00  0.00    +0.005 C 
ATOM     28  C   LIG    1      -38.493  74.188  25.138  0.00  0.00    +0.016 C 
ENDBRANCH  19  28
ENDBRANCH  18  19
ENDBRANCH   1  18
TORSDOF 6
ENDMDL
MODEL 8
REMARK VINA RESULT:      -5.0      3.196      5.340
REMARK  Name = pdb/CHEMBL211160.pdb
REMARK                            x       y       z     vdW  Elec       q    Type
REMARK                         _______ _______ _______ _____ _____    ______ ____
ROOT
ATOM      1  C   LIG    1      -40.130  76.258  25.860  0.00  0.00    +0.106 C 
ATOM      2  C   LIG    1      -38.890  76.916  25.504  0.00  0.00    +0.082 C 
ATOM      3  C   LIG    1      -38.153  77.141  26.670  0.00  0.00    +0.170 C 
ATOM      4  S   LIG    1      -39.186  76.860  28.001  0.00  0.00    -0.002 S 
ATOM      5  N   LIG    1      -40.454  76.280  27.146  0.00  0.00    -0.173 NA
ENDROOT
BRANCH   3   6
ATOM      6  N   LIG    1      -36.835  77.567  26.862  0.00  0.00    -0.277 N 
ATOM      7  H   LIG    1      -36.636  78.540  26.639  0.00  0.00    +0.152 HD
ATOM      8  C   LIG    1      -35.771  76.718  27.113  0.00  0.00    +0.301 C 
ATOM      9  N   LIG    1      -34.558  77.371  27.204  0.00  0.00    -0.302 N 
ATOM     10  H   LIG    1      -34.572  78.311  27.572  0.00  0.00    +0.150 HD
ATOM     11  C   LIG    1      -33.386  76.567  27.488  0.00  0.00    +0.129 C 
ATOM     12  O   LIG    1      -35.821  75.496  27.224  0.00  0.00    -0.253 OA
ENDBRANCH   3   6
BRANCH   2  13
ATOM     13  C   LIG    1      -38.371  77.296  24.185  0.00  0.00    +0.243 C 
ATOM     14  N   LIG    1      -39.155  78.133  23.431  0.00  0.00    -0.325 N 
ATOM     15  H   LIG    1      -38.774  78.498  22.569  0.00  0.00    +0.145 HD
ATOM     16  H   LIG    1      -40.042  78.492  23.755  0.00  0.00    +0.145 HD
ATOM     17  O   LIG    1      -37.269  76.958  23.778  0.00  0.00    -0.271 OA
ENDBRANCH   2  13
BRANCH   1  18
ATOM     18  S   LIG    1      -41.285  75.451  24.768  0.00  0.00    -0.099 S 
BRANCH  18  19
ATOM     19  C   LIG    1      -40.583  73.721  24.663  0.00  0.00    +0.082 C 
BRANCH  19  20
ATOM     20  C   LIG    1      -41.269  72.828  23.605  0.00  0.00    -0.034 A 
ATOM     21  C   LIG    1      -42.313  73.287  22.785  0.00  0.00    +0.006 A 
ATOM     22  C   LIG    1      -42.851  72.486  21.767  0.00  0.00    +0.020 A 
ATOM     23  C   LIG    1      -42.347  71.210  21.539  0.00  0.00    +0.041 A 
ATOM     24 CL   LIG    1      -42.980  70.255  20.254  0.00  0.00    -0.084 Cl
ATOM     25  C   LIG    1      -41.325  70.717  22.341  0.00  0.00    +0.020 A 
ATOM     26  C   LIG    1      -40.792  71.517  23.367  0.00  0.00    +0.006 A 
ENDBRANCH  19  20
BRANCH  19  28
ATOM     27  C   LIG    1      -38.232  73.120  25.635  0.00  0.00    +0.005 C 
ATOM     28  C   LIG    1      -39.043  73.710  24.485  0.00  0.00    +0.016 C 
ENDBRANCH  19  28
ENDBRANCH  18  19
ENDBRANCH   1  18
TORSDOF 6
ENDMDL
MODEL 9
REMARK VINA RESULT:      -5.0     10.002     12.531
REMARK  Name = pdb/CHEMBL211160.pdb
REMARK                            x       y       z     vdW  Elec       q    Type
REMARK                         _______ _______ _______ _____ _____    ______ ____
ROOT
ATOM      1  C   LIG    1      -37.293  84.153  27.147  0.00  0.00    +0.106 C 
ATOM      2  C   LIG    1      -36.912  84.451  25.781  0.00  0.00    +0.082 C 
ATOM      3  C   LIG    1      -37.654  83.634  24.923  0.00  0.00    +0.170 C 
ATOM      4  S   LIG    1      -38.405  82.428  25.872  0.00  0.00    -0.002 S 
ATOM      5  N   LIG    1      -37.977  83.032  27.331  0.00  0.00    -0.173 NA
ENDROOT
BRANCH   3   6
ATOM      6  N   LIG    1      -37.803  83.648  23.532  0.00  0.00    -0.277 N 
ATOM      7  H   LIG    1      -36.980  83.406  22.986  0.00  0.00    +0.152 HD
ATOM      8  C   LIG    1      -38.900  84.174  22.873  0.00  0.00    +0.301 C 
ATOM      9  N   LIG    1      -38.787  84.129  21.498  0.00  0.00    -0.302 N 
ATOM     10  H   LIG    1      -38.266  83.357  21.108  0.00  0.00    +0.150 HD
ATOM     11  C   LIG    1      -39.899  84.636  20.719  0.00  0.00    +0.129 C 
ATOM     12  O   LIG    1      -39.894  84.675  23.392  0.00  0.00    -0.253 OA
ENDBRANCH   3   6
BRANCH   2  13
ATOM     13  C   LIG    1      -35.959  85.439  25.264  0.00  0.00    +0.243 C 
ATOM     14  N   LIG    1      -34.655  85.312  25.672  0.00  0.00    -0.325 N 
ATOM     15  H   LIG    1      -33.960  85.909  25.246  0.00  0.00    +0.145 HD
ATOM     16  H   LIG    1      -34.344  84.574  26.288  0.00  0.00    +0.145 HD
ATOM     17  O   LIG    1      -36.265  86.301  24.452  0.00  0.00    -0.271 OA
ENDBRANCH   2  13
BRANCH   1  18
ATOM     18  S   LIG    1      -36.919  85.100  28.610  0.00  0.00    -0.099 S 
BRANCH  18  19
ATOM     19  C   LIG    1      -35.589  84.064  29.419  0.00  0.00    +0.082 C 
BRANCH  19  20
ATOM     20  C   LIG    1      -34.294  84.842  29.741  0.00  0.00    -0.034 A 
ATOM     21  C   LIG    1      -33.251  84.296  30.507  0.00  0.00    +0.006 A 
ATOM     22  C   LIG    1      -32.046  84.989  30.703  0.00  0.00    +0.020 A 
ATOM     23  C   LIG    1      -31.855  86.239  30.126  0.00  0.00    +0.041 A 
ATOM     24 CL   LIG    1      -30.354  87.058  30.330  0.00  0.00    -0.084 Cl
ATOM     25  C   LIG    1      -32.872  86.818  29.375  0.00  0.00    +0.020 A 
ATOM     26  C   LIG    1      -34.082  86.127  29.187  0.00  0.00    +0.006 A 
ENDBRANCH  19  20
BRANCH  19  28
ATOM     27  C   LIG    1      -36.867  84.125  31.699  0.00  0.00    +0.005 C 
ATOM     28  C   LIG    1      -36.102  83.301  30.668  0.00  0.00    +0.016 C 
ENDBRANCH  19  28
ENDBRANCH  18  19
ENDBRANCH   1  18
TORSDOF 6
ENDMDL
