MODEL 1
REMARK VINA RESULT:      -5.9      0.000      0.000
REMARK  Name = pdb/CHEMBL3951602.pdb
REMARK                            x       y       z     vdW  Elec       q    Type
REMARK                         _______ _______ _______ _____ _____    ______ ____
ROOT
ATOM      1  C   LIG    1      -28.345  75.168  32.376  0.00  0.00    +0.086 A 
ATOM      2  C   LIG    1      -27.614  76.305  32.030  0.00  0.00    +0.042 A 
ATOM      3  C   LIG    1      -26.271  76.198  31.646  0.00  0.00    +0.042 A 
ATOM      4  C   LIG    1      -25.693  74.938  31.635  0.00  0.00    +0.122 A 
ATOM      5  N   LIG    1      -26.338  73.818  32.058  0.00  0.00    -0.260 NA
ATOM      6  C   LIG    1      -27.636  73.967  32.428  0.00  0.00    +0.138 A 
ENDROOT
BRANCH   1   8
ATOM      7  C   LIG    1      -30.702  74.880  32.019  0.00  0.00    +0.210 C 
ATOM      8  N   LIG    1      -29.690  75.187  32.768  0.00  0.00    -0.214 NA
BRANCH   7   9
ATOM      9  O   LIG    1      -31.910  75.007  32.613  0.00  0.00    -0.494 OA
ATOM     10  H   LIG    1      -32.140  75.917  32.886  0.00  0.00    +0.293 HD
ENDBRANCH   7   9
BRANCH   7  11
ATOM     11  C   LIG    1      -30.721  74.472  30.558  0.00  0.00    +0.240 C 
BRANCH  11  15
ATOM     12  C   LIG    1      -32.797  76.439  28.420  0.00  0.00    +0.085 A 
ATOM     13  N   LIG    1      -33.359  75.187  28.350  0.00  0.00    -0.134 NA
ATOM     14  N   LIG    1      -32.723  74.396  29.204  0.00  0.00    -0.065 NA
ATOM     15  N   LIG    1      -31.771  75.134  29.804  0.00  0.00    -0.242 N 
ATOM     16  C   LIG    1      -31.836  76.435  29.412  0.00  0.00    +0.134 A 
BRANCH  12  18
ATOM     17  C   LIG    1      -33.492  78.847  28.172  0.00  0.00    +0.014 C 
ATOM     18  C   LIG    1      -33.201  77.521  27.464  0.00  0.00    +0.035 C 
ATOM     19  C   LIG    1      -32.121  77.752  26.401  0.00  0.00    +0.014 C 
ENDBRANCH  12  18
ENDBRANCH  11  15
ENDBRANCH   7  11
ENDBRANCH   1   8
BRANCH   3  20
ATOM     20  C   LIG    1      -25.474  77.377  31.174  0.00  0.00    +0.197 C 
ATOM     21  O   LIG    1      -26.026  78.223  30.505  0.00  0.00    -0.287 OA
BRANCH  20  22
ATOM     22  C   LIG    1      -24.069  77.482  31.573  0.00  0.00    +0.049 A 
ATOM     23  C   LIG    1      -22.890  77.133  30.826  0.00  0.00    +0.029 A 
ATOM     24  C   LIG    1      -22.657  76.531  29.578  0.00  0.00    +0.121 A 
ATOM     25  N   LIG    1      -21.421  76.548  29.017  0.00  0.00    -0.263 NA
ATOM     26  C   LIG    1      -20.399  77.092  29.703  0.00  0.00    +0.113 A 
ATOM     27  C   LIG    1      -20.497  77.566  30.998  0.00  0.00    +0.046 A 
ATOM     28  C   LIG    1      -21.778  77.569  31.568  0.00  0.00    +0.053 A 
ATOM     29  N   LIG    1      -22.239  77.887  32.839  0.00  0.00    -0.338 N 
ATOM     30  C   LIG    1      -23.611  77.967  32.786  0.00  0.00    +0.099 A 
BRANCH  29  31
ATOM     31  C   LIG    1      -21.422  77.980  34.078  0.00  0.00    +0.063 C 
ATOM     32  C   LIG    1      -20.445  79.172  33.952  0.00  0.00    +0.036 C 
ATOM     33  C   LIG    1      -20.534  76.722  34.286  0.00  0.00    +0.036 C 
BRANCH  31  34
ATOM     34  C   LIG    1      -22.328  78.132  35.326  0.00  0.00    +0.183 C 
BRANCH  34  35
ATOM     35  O   LIG    1      -22.558  76.886  35.985  0.00  0.00    -0.393 OA
ATOM     36  H   LIG    1      -21.841  76.747  36.627  0.00  0.00    +0.209 HD
ENDBRANCH  34  35
ENDBRANCH  31  34
ENDBRANCH  29  31
ENDBRANCH  20  22
ENDBRANCH   3  20
TORSDOF 10
ENDMDL
MODEL 2
REMARK VINA RESULT:      -5.9      4.062      7.321
REMARK  Name = pdb/CHEMBL3951602.pdb
REMARK                            x       y       z     vdW  Elec       q    Type
REMARK                         _______ _______ _______ _____ _____    ______ ____
ROOT
ATOM      1  C   LIG    1      -21.317  76.876  31.525  0.00  0.00    +0.086 A 
ATOM      2  C   LIG    1      -20.522  77.869  32.097  0.00  0.00    +0.042 A 
ATOM      3  C   LIG    1      -19.954  77.685  33.365  0.00  0.00    +0.042 A 
ATOM      4  C   LIG    1      -20.217  76.499  34.032  0.00  0.00    +0.122 A 
ATOM      5  N   LIG    1      -21.064  75.547  33.557  0.00  0.00    -0.260 NA
ATOM      6  C   LIG    1      -21.599  75.769  32.328  0.00  0.00    +0.138 A 
ENDROOT
BRANCH   1   8
ATOM      7  C   LIG    1      -23.024  77.601  30.002  0.00  0.00    +0.210 C 
ATOM      8  N   LIG    1      -21.918  76.979  30.264  0.00  0.00    -0.214 NA
BRANCH   7   9
ATOM      9  O   LIG    1      -23.423  77.535  28.712  0.00  0.00    -0.494 OA
ATOM     10  H   LIG    1      -24.267  77.990  28.519  0.00  0.00    +0.293 HD
ENDBRANCH   7   9
BRANCH   7  11
ATOM     11  C   LIG    1      -23.961  78.327  30.948  0.00  0.00    +0.240 C 
BRANCH  11  15
ATOM     12  C   LIG    1      -26.765  76.772  32.521  0.00  0.00    +0.085 A 
ATOM     13  N   LIG    1      -26.884  76.394  31.206  0.00  0.00    -0.134 NA
ATOM     14  N   LIG    1      -25.819  76.833  30.547  0.00  0.00    -0.065 NA
ATOM     15  N   LIG    1      -25.038  77.481  31.431  0.00  0.00    -0.242 N 
ATOM     16  C   LIG    1      -25.542  77.394  32.692  0.00  0.00    +0.134 A 
BRANCH  12  18
ATOM     17  C   LIG    1      -27.521  76.986  34.914  0.00  0.00    +0.014 C 
ATOM     18  C   LIG    1      -27.885  76.552  33.493  0.00  0.00    +0.035 C 
ATOM     19  C   LIG    1      -29.152  77.298  33.055  0.00  0.00    +0.014 C 
ENDBRANCH  12  18
ENDBRANCH  11  15
ENDBRANCH   7  11
ENDBRANCH   1   8
BRANCH   3  20
ATOM     20  C   LIG    1      -19.016  78.682  33.978  0.00  0.00    +0.197 C 
ATOM     21  O   LIG    1      -17.939  78.866  33.455  0.00  0.00    -0.287 OA
BRANCH  20  22
ATOM     22  C   LIG    1      -19.454  79.424  35.162  0.00  0.00    +0.049 A 
ATOM     23  C   LIG    1      -18.845  79.486  36.464  0.00  0.00    +0.029 A 
ATOM     24  C   LIG    1      -17.749  78.849  37.070  0.00  0.00    +0.121 A 
ATOM     25  N   LIG    1      -17.256  79.291  38.255  0.00  0.00    -0.263 NA
ATOM     26  C   LIG    1      -17.871  80.312  38.880  0.00  0.00    +0.113 A 
ATOM     27  C   LIG    1      -19.044  80.898  38.442  0.00  0.00    +0.046 A 
ATOM     28  C   LIG    1      -19.540  80.456  37.207  0.00  0.00    +0.053 A 
ATOM     29  N   LIG    1      -20.703  80.746  36.505  0.00  0.00    -0.338 N 
ATOM     30  C   LIG    1      -20.571  80.239  35.234  0.00  0.00    +0.099 A 
BRANCH  29  31
ATOM     31  C   LIG    1      -21.938  81.364  37.057  0.00  0.00    +0.063 C 
ATOM     32  C   LIG    1      -21.642  82.831  37.444  0.00  0.00    +0.036 C 
ATOM     33  C   LIG    1      -22.405  80.665  38.364  0.00  0.00    +0.036 C 
BRANCH  31  34
ATOM     34  C   LIG    1      -23.100  81.281  36.035  0.00  0.00    +0.183 C 
BRANCH  34  35
ATOM     35  O   LIG    1      -24.160  82.188  36.342  0.00  0.00    -0.393 OA
ATOM     36  H   LIG    1      -24.523  81.944  37.211  0.00  0.00    +0.209 HD
ENDBRANCH  34  35
ENDBRANCH  31  34
ENDBRANCH  29  31
ENDBRANCH  20  22
ENDBRANCH   3  20
TORSDOF 10
ENDMDL
MODEL 3
REMARK VINA RESULT:      -5.9      4.294      8.140
REMARK  Name = pdb/CHEMBL3951602.pdb
REMARK                            x       y       z     vdW  Elec       q    Type
REMARK                         _______ _______ _______ _____ _____    ______ ____
ROOT
ATOM      1  C   LIG    1      -19.841  78.351  32.367  0.00  0.00    +0.086 A 
ATOM      2  C   LIG    1      -20.933  77.916  31.615  0.00  0.00    +0.042 A 
ATOM      3  C   LIG    1      -20.785  76.888  30.675  0.00  0.00    +0.042 A 
ATOM      4  C   LIG    1      -19.527  76.332  30.508  0.00  0.00    +0.122 A 
ATOM      5  N   LIG    1      -18.417  76.791  31.146  0.00  0.00    -0.260 NA
ATOM      6  C   LIG    1      -18.603  77.793  32.043  0.00  0.00    +0.138 A 
ENDROOT
BRANCH   1   8
ATOM      7  C   LIG    1      -20.547  79.313  34.451  0.00  0.00    +0.210 C 
ATOM      8  N   LIG    1      -19.903  79.369  33.328  0.00  0.00    -0.214 NA
BRANCH   7   9
ATOM      9  O   LIG    1      -20.486  80.436  35.200  0.00  0.00    -0.494 OA
ATOM     10  H   LIG    1      -21.313  80.956  35.229  0.00  0.00    +0.293 HD
ENDBRANCH   7   9
BRANCH   7  11
ATOM     11  C   LIG    1      -21.411  78.195  35.003  0.00  0.00    +0.240 C 
BRANCH  11  15
ATOM     12  C   LIG    1      -24.981  78.246  34.923  0.00  0.00    +0.085 A 
ATOM     13  N   LIG    1      -24.645  79.567  35.099  0.00  0.00    -0.134 NA
ATOM     14  N   LIG    1      -23.324  79.674  35.031  0.00  0.00    -0.065 NA
ATOM     15  N   LIG    1      -22.831  78.440  34.817  0.00  0.00    -0.242 N 
ATOM     16  C   LIG    1      -23.830  77.530  34.656  0.00  0.00    +0.134 A 
BRANCH  12  18
ATOM     17  C   LIG    1      -26.480  76.310  35.511  0.00  0.00    +0.014 C 
ATOM     18  C   LIG    1      -26.396  77.780  35.096  0.00  0.00    +0.035 C 
ATOM     19  C   LIG    1      -27.137  78.633  36.133  0.00  0.00    +0.014 C 
ENDBRANCH  12  18
ENDBRANCH  11  15
ENDBRANCH   7  11
ENDBRANCH   1   8
BRANCH   3  20
ATOM     20  C   LIG    1      -21.947  76.322  29.915  0.00  0.00    +0.197 C 
ATOM     21  O   LIG    1      -21.947  76.400  28.706  0.00  0.00    -0.287 OA
BRANCH  20  22
ATOM     22  C   LIG    1      -23.020  75.661  30.660  0.00  0.00    +0.049 A 
ATOM     23  C   LIG    1      -24.287  76.195  31.083  0.00  0.00    +0.029 A 
ATOM     24  C   LIG    1      -24.890  77.463  31.027  0.00  0.00    +0.121 A 
ATOM     25  N   LIG    1      -26.212  77.618  31.293  0.00  0.00    -0.263 NA
ATOM     26  C   LIG    1      -26.931  76.548  31.679  0.00  0.00    +0.113 A 
ATOM     27  C   LIG    1      -26.396  75.295  31.914  0.00  0.00    +0.046 A 
ATOM     28  C   LIG    1      -25.035  75.131  31.617  0.00  0.00    +0.053 A 
ATOM     29  N   LIG    1      -24.157  74.069  31.795  0.00  0.00    -0.338 N 
ATOM     30  C   LIG    1      -23.006  74.347  31.095  0.00  0.00    +0.099 A 
BRANCH  29  31
ATOM     31  C   LIG    1      -24.351  72.903  32.697  0.00  0.00    +0.063 C 
ATOM     32  C   LIG    1      -23.079  72.024  32.671  0.00  0.00    +0.036 C 
ATOM     33  C   LIG    1      -25.512  71.985  32.221  0.00  0.00    +0.036 C 
BRANCH  31  34
ATOM     34  C   LIG    1      -24.677  73.370  34.139  0.00  0.00    +0.183 C 
BRANCH  34  35
ATOM     35  O   LIG    1      -23.549  73.956  34.788  0.00  0.00    -0.393 OA
ATOM     36  H   LIG    1      -23.261  74.721  34.261  0.00  0.00    +0.209 HD
ENDBRANCH  34  35
ENDBRANCH  31  34
ENDBRANCH  29  31
ENDBRANCH  20  22
ENDBRANCH   3  20
TORSDOF 10
ENDMDL
MODEL 4
REMARK VINA RESULT:      -5.9      8.555     11.274
REMARK  Name = pdb/CHEMBL3951602.pdb
REMARK                            x       y       z     vdW  Elec       q    Type
REMARK                         _______ _______ _______ _____ _____    ______ ____
ROOT
ATOM      1  C   LIG    1      -38.416  81.049  28.812  0.00  0.00    +0.086 A 
ATOM      2  C   LIG    1      -37.389  80.303  29.391  0.00  0.00    +0.042 A 
ATOM      3  C   LIG    1      -36.162  80.904  29.704  0.00  0.00    +0.042 A 
ATOM      4  C   LIG    1      -35.999  82.248  29.409  0.00  0.00    +0.122 A 
ATOM      5  N   LIG    1      -36.935  82.988  28.756  0.00  0.00    -0.260 NA
ATOM      6  C   LIG    1      -38.107  82.366  28.465  0.00  0.00    +0.138 A 
ENDROOT
BRANCH   1   8
ATOM      7  C   LIG    1      -39.952  79.880  27.385  0.00  0.00    +0.210 C 
ATOM      8  N   LIG    1      -39.671  80.528  28.471  0.00  0.00    -0.214 NA
BRANCH   7   9
ATOM      9  O   LIG    1      -41.245  79.503  27.264  0.00  0.00    -0.494 OA
ATOM     10  H   LIG    1      -41.405  78.544  27.375  0.00  0.00    +0.293 HD
ENDBRANCH   7   9
BRANCH   7  11
ATOM     11  C   LIG    1      -39.054  79.552  26.207  0.00  0.00    +0.240 C 
BRANCH  11  15
ATOM     12  C   LIG    1      -38.145  76.142  25.659  0.00  0.00    +0.085 A 
ATOM     13  N   LIG    1      -37.024  76.684  26.241  0.00  0.00    -0.134 NA
ATOM     14  N   LIG    1      -37.297  77.935  26.589  0.00  0.00    -0.065 NA
ATOM     15  N   LIG    1      -38.571  78.183  26.232  0.00  0.00    -0.242 N 
ATOM     16  C   LIG    1      -39.168  77.068  25.729  0.00  0.00    +0.134 A 
BRANCH  12  18
ATOM     17  C   LIG    1      -37.719  73.686  26.016  0.00  0.00    +0.014 C 
ATOM     18  C   LIG    1      -38.106  74.785  25.024  0.00  0.00    +0.035 C 
ATOM     19  C   LIG    1      -39.458  74.431  24.393  0.00  0.00    +0.014 C 
ENDBRANCH  12  18
ENDBRANCH  11  15
ENDBRANCH   7  11
ENDBRANCH   1   8
BRANCH   3  20
ATOM     20  C   LIG    1      -35.066  80.168  30.413  0.00  0.00    +0.197 C 
ATOM     21  O   LIG    1      -34.703  80.566  31.498  0.00  0.00    -0.287 OA
BRANCH  20  22
ATOM     22  C   LIG    1      -34.502  78.971  29.786  0.00  0.00    +0.049 A 
ATOM     23  C   LIG    1      -33.876  78.836  28.498  0.00  0.00    +0.029 A 
ATOM     24  C   LIG    1      -33.664  79.700  27.411  0.00  0.00    +0.121 A 
ATOM     25  N   LIG    1      -32.817  79.360  26.406  0.00  0.00    -0.263 NA
ATOM     26  C   LIG    1      -32.229  78.150  26.428  0.00  0.00    +0.113 A 
ATOM     27  C   LIG    1      -32.495  77.173  27.370  0.00  0.00    +0.046 A 
ATOM     28  C   LIG    1      -33.352  77.534  28.419  0.00  0.00    +0.053 A 
ATOM     29  N   LIG    1      -33.898  76.814  29.475  0.00  0.00    -0.338 N 
ATOM     30  C   LIG    1      -34.460  77.708  30.354  0.00  0.00    +0.099 A 
BRANCH  29  31
ATOM     31  C   LIG    1      -33.997  75.334  29.577  0.00  0.00    +0.063 C 
ATOM     32  C   LIG    1      -34.571  74.959  30.963  0.00  0.00    +0.036 C 
ATOM     33  C   LIG    1      -32.604  74.649  29.495  0.00  0.00    +0.036 C 
BRANCH  31  34
ATOM     34  C   LIG    1      -34.874  74.759  28.437  0.00  0.00    +0.183 C 
BRANCH  34  35
ATOM     35  O   LIG    1      -34.103  74.071  27.451  0.00  0.00    -0.393 OA
ATOM     36  H   LIG    1      -34.391  73.142  27.437  0.00  0.00    +0.209 HD
ENDBRANCH  34  35
ENDBRANCH  31  34
ENDBRANCH  29  31
ENDBRANCH  20  22
ENDBRANCH   3  20
TORSDOF 10
ENDMDL
MODEL 5
REMARK VINA RESULT:      -5.9     17.604     21.979
REMARK  Name = pdb/CHEMBL3951602.pdb
REMARK                            x       y       z     vdW  Elec       q    Type
REMARK                         _______ _______ _______ _____ _____    ______ ____
ROOT
ATOM      1  C   LIG    1      -30.095  95.827  21.660  0.00  0.00    +0.086 A 
ATOM      2  C   LIG    1      -30.541  94.727  20.925  0.00  0.00    +0.042 A 
ATOM      3  C   LIG    1      -31.254  94.910  19.733  0.00  0.00    +0.042 A 
ATOM      4  C   LIG    1      -31.513  96.207  19.319  0.00  0.00    +0.122 A 
ATOM      5  N   LIG    1      -31.185  97.304  20.053  0.00  0.00    -0.260 NA
ATOM      6  C   LIG    1      -30.500  97.083  21.205  0.00  0.00    +0.138 A 
ENDROOT
BRANCH   1   8
ATOM      7  C   LIG    1      -29.886  95.587  24.040  0.00  0.00    +0.210 C 
ATOM      8  N   LIG    1      -29.375  95.732  22.858  0.00  0.00    -0.214 NA
BRANCH   7   9
ATOM      9  O   LIG    1      -28.988  95.553  25.050  0.00  0.00    -0.494 OA
ATOM     10  H   LIG    1      -28.074  95.333  24.779  0.00  0.00    +0.293 HD
ENDBRANCH   7   9
BRANCH   7  11
ATOM     11  C   LIG    1      -31.345  95.524  24.449  0.00  0.00    +0.240 C 
BRANCH  11  15
ATOM     12  C   LIG    1      -32.881  92.597  25.800  0.00  0.00    +0.085 A 
ATOM     13  N   LIG    1      -31.913  92.095  24.964  0.00  0.00    -0.134 NA
ATOM     14  N   LIG    1      -31.204  93.111  24.490  0.00  0.00    -0.065 NA
ATOM     15  N   LIG    1      -31.714  94.240  25.017  0.00  0.00    -0.242 N 
ATOM     16  C   LIG    1      -32.705  93.964  25.908  0.00  0.00    +0.134 A 
BRANCH  12  18
ATOM     17  C   LIG    1      -33.376  90.699  27.380  0.00  0.00    +0.014 C 
ATOM     18  C   LIG    1      -33.941  91.707  26.377  0.00  0.00    +0.035 C 
ATOM     19  C   LIG    1      -35.040  92.528  27.063  0.00  0.00    +0.014 C 
ENDBRANCH  12  18
ENDBRANCH  11  15
ENDBRANCH   7  11
ENDBRANCH   1   8
BRANCH   3  20
ATOM     20  C   LIG    1      -31.669  93.763  18.862  0.00  0.00    +0.197 C 
ATOM     21  O   LIG    1      -30.914  93.391  17.990  0.00  0.00    -0.287 OA
BRANCH  20  22
ATOM     22  C   LIG    1      -32.952  93.108  19.123  0.00  0.00    +0.049 A 
ATOM     23  C   LIG    1      -33.684  93.016  20.358  0.00  0.00    +0.029 A 
ATOM     24  C   LIG    1      -33.431  93.406  21.684  0.00  0.00    +0.121 A 
ATOM     25  N   LIG    1      -34.423  93.406  22.610  0.00  0.00    -0.263 NA
ATOM     26  C   LIG    1      -35.645  92.963  22.260  0.00  0.00    +0.113 A 
ATOM     27  C   LIG    1      -35.950  92.415  21.028  0.00  0.00    +0.046 A 
ATOM     28  C   LIG    1      -34.931  92.436  20.066  0.00  0.00    +0.053 A 
ATOM     29  N   LIG    1      -34.844  91.918  18.780  0.00  0.00    -0.338 N 
ATOM     30  C   LIG    1      -33.723  92.446  18.183  0.00  0.00    +0.099 A 
BRANCH  29  31
ATOM     31  C   LIG    1      -35.715  90.867  18.190  0.00  0.00    +0.063 C 
ATOM     32  C   LIG    1      -35.318  90.651  16.711  0.00  0.00    +0.036 C 
ATOM     33  C   LIG    1      -37.210  91.291  18.171  0.00  0.00    +0.036 C 
BRANCH  31  34
ATOM     34  C   LIG    1      -35.608  89.547  18.994  0.00  0.00    +0.183 C 
BRANCH  34  35
ATOM     35  O   LIG    1      -34.374  88.867  18.760  0.00  0.00    -0.393 OA
ATOM     36  H   LIG    1      -33.850  88.904  19.579  0.00  0.00    +0.209 HD
ENDBRANCH  34  35
ENDBRANCH  31  34
ENDBRANCH  29  31
ENDBRANCH  20  22
ENDBRANCH   3  20
TORSDOF 10
ENDMDL
MODEL 6
REMARK VINA RESULT:      -5.8      7.703     10.243
REMARK  Name = pdb/CHEMBL3951602.pdb
REMARK                            x       y       z     vdW  Elec       q    Type
REMARK                         _______ _______ _______ _____ _____    ______ ____
ROOT
ATOM      1  C   LIG    1      -34.313  80.364  28.308  0.00  0.00    +0.086 A 
ATOM      2  C   LIG    1      -34.553  81.683  28.693  0.00  0.00    +0.042 A 
ATOM      3  C   LIG    1      -35.067  81.972  29.965  0.00  0.00    +0.042 A 
ATOM      4  C   LIG    1      -35.340  80.912  30.814  0.00  0.00    +0.122 A 
ATOM      5  N   LIG    1      -35.216  79.609  30.446  0.00  0.00    -0.260 NA
ATOM      6  C   LIG    1      -34.721  79.373  29.203  0.00  0.00    +0.138 A 
ENDROOT
BRANCH   1   8
ATOM      7  C   LIG    1      -32.796  79.195  26.861  0.00  0.00    +0.210 C 
ATOM      8  N   LIG    1      -33.800  79.990  27.060  0.00  0.00    -0.214 NA
BRANCH   7   9
ATOM      9  O   LIG    1      -32.463  79.009  25.564  0.00  0.00    -0.494 OA
ATOM     10  H   LIG    1      -31.828  79.660  25.206  0.00  0.00    +0.293 HD
ENDBRANCH   7   9
BRANCH   7  11
ATOM     11  C   LIG    1      -31.904  78.508  27.878  0.00  0.00    +0.240 C 
BRANCH  11  15
ATOM     12  C   LIG    1      -32.637  75.173  28.925  0.00  0.00    +0.085 A 
ATOM     13  N   LIG    1      -33.506  75.381  27.882  0.00  0.00    -0.134 NA
ATOM     14  N   LIG    1      -33.239  76.564  27.344  0.00  0.00    -0.065 NA
ATOM     15  N   LIG    1      -32.216  77.098  28.036  0.00  0.00    -0.242 N 
ATOM     16  C   LIG    1      -31.749  76.231  28.975  0.00  0.00    +0.134 A 
BRANCH  12  18
ATOM     17  C   LIG    1      -31.715  72.922  29.577  0.00  0.00    +0.014 C 
ATOM     18  C   LIG    1      -32.785  73.986  29.829  0.00  0.00    +0.035 C 
ATOM     19  C   LIG    1      -32.732  74.405  31.303  0.00  0.00    +0.014 C 
ENDBRANCH  12  18
ENDBRANCH  11  15
ENDBRANCH   7  11
ENDBRANCH   1   8
BRANCH   3  20
ATOM     20  C   LIG    1      -35.249  83.376  30.457  0.00  0.00    +0.197 C 
ATOM     21  O   LIG    1      -36.222  84.000  30.093  0.00  0.00    -0.287 OA
BRANCH  20  22
ATOM     22  C   LIG    1      -34.266  83.928  31.390  0.00  0.00    +0.049 A 
ATOM     23  C   LIG    1      -33.058  84.655  31.104  0.00  0.00    +0.029 A 
ATOM     24  C   LIG    1      -32.375  85.006  29.927  0.00  0.00    +0.121 A 
ATOM     25  N   LIG    1      -31.370  85.918  29.952  0.00  0.00    -0.263 NA
ATOM     26  C   LIG    1      -30.986  86.436  31.133  0.00  0.00    +0.113 A 
ATOM     27  C   LIG    1      -31.489  86.038  32.357  0.00  0.00    +0.046 A 
ATOM     28  C   LIG    1      -32.542  85.114  32.329  0.00  0.00    +0.053 A 
ATOM     29  N   LIG    1      -33.228  84.441  33.333  0.00  0.00    -0.338 N 
ATOM     30  C   LIG    1      -34.336  83.853  32.771  0.00  0.00    +0.099 A 
BRANCH  29  31
ATOM     31  C   LIG    1      -32.778  84.255  34.738  0.00  0.00    +0.063 C 
ATOM     32  C   LIG    1      -33.716  83.247  35.441  0.00  0.00    +0.036 C 
ATOM     33  C   LIG    1      -32.875  85.570  35.560  0.00  0.00    +0.036 C 
BRANCH  31  34
ATOM     34  C   LIG    1      -31.306  83.774  34.787  0.00  0.00    +0.183 C 
BRANCH  34  35
ATOM     35  O   LIG    1      -31.198  82.350  34.757  0.00  0.00    -0.393 OA
ATOM     36  H   LIG    1      -30.350  82.103  35.165  0.00  0.00    +0.209 HD
ENDBRANCH  34  35
ENDBRANCH  31  34
ENDBRANCH  29  31
ENDBRANCH  20  22
ENDBRANCH   3  20
TORSDOF 10
ENDMDL
MODEL 7
REMARK VINA RESULT:      -5.8      4.420      8.268
REMARK  Name = pdb/CHEMBL3951602.pdb
REMARK                            x       y       z     vdW  Elec       q    Type
REMARK                         _______ _______ _______ _____ _____    ______ ____
ROOT
ATOM      1  C   LIG    1      -22.085  75.439  30.856  0.00  0.00    +0.086 A 
ATOM      2  C   LIG    1      -22.899  74.361  31.206  0.00  0.00    +0.042 A 
ATOM      3  C   LIG    1      -22.477  73.434  32.168  0.00  0.00    +0.042 A 
ATOM      4  C   LIG    1      -21.229  73.612  32.745  0.00  0.00    +0.122 A 
ATOM      5  N   LIG    1      -20.364  74.590  32.363  0.00  0.00    -0.260 NA
ATOM      6  C   LIG    1      -20.809  75.463  31.424  0.00  0.00    +0.138 A 
ENDROOT
BRANCH   1   8
ATOM      7  C   LIG    1      -23.106  77.492  30.144  0.00  0.00    +0.210 C 
ATOM      8  N   LIG    1      -22.431  76.411  29.909  0.00  0.00    -0.214 NA
BRANCH   7   9
ATOM      9  O   LIG    1      -23.345  78.263  29.060  0.00  0.00    -0.494 OA
ATOM     10  H   LIG    1      -23.927  77.856  28.387  0.00  0.00    +0.293 HD
ENDBRANCH   7   9
BRANCH   7  11
ATOM     11  C   LIG    1      -23.722  77.971  31.446  0.00  0.00    +0.240 C 
BRANCH  11  15
ATOM     12  C   LIG    1      -26.933  76.909  32.593  0.00  0.00    +0.085 A 
ATOM     13  N   LIG    1      -27.197  77.461  31.364  0.00  0.00    -0.134 NA
ATOM     14  N   LIG    1      -26.044  77.792  30.797  0.00  0.00    -0.065 NA
ATOM     15  N   LIG    1      -25.063  77.455  31.655  0.00  0.00    -0.242 N 
ATOM     16  C   LIG    1      -25.562  76.822  32.751  0.00  0.00    +0.134 A 
BRANCH  12  18
ATOM     17  C   LIG    1      -28.304  75.065  33.623  0.00  0.00    +0.014 C 
ATOM     18  C   LIG    1      -28.042  76.570  33.543  0.00  0.00    +0.035 C 
ATOM     19  C   LIG    1      -27.744  77.098  34.952  0.00  0.00    +0.014 C 
ENDBRANCH  12  18
ENDBRANCH  11  15
ENDBRANCH   7  11
ENDBRANCH   1   8
BRANCH   3  20
ATOM     20  C   LIG    1      -23.355  72.316  32.645  0.00  0.00    +0.197 C 
ATOM     21  O   LIG    1      -23.550  72.196  33.835  0.00  0.00    -0.287 OA
BRANCH  20  22
ATOM     22  C   LIG    1      -23.977  71.437  31.653  0.00  0.00    +0.049 A 
ATOM     23  C   LIG    1      -25.359  71.062  31.518  0.00  0.00    +0.029 A 
ATOM     24  C   LIG    1      -26.522  71.304  32.268  0.00  0.00    +0.121 A 
ATOM     25  N   LIG    1      -27.749  71.020  31.760  0.00  0.00    -0.263 NA
ATOM     26  C   LIG    1      -27.837  70.440  30.549  0.00  0.00    +0.113 A 
ATOM     27  C   LIG    1      -26.749  70.023  29.805  0.00  0.00    +0.046 A 
ATOM     28  C   LIG    1      -25.483  70.337  30.320  0.00  0.00    +0.053 A 
ATOM     29  N   LIG    1      -24.196  70.018  29.906  0.00  0.00    -0.338 N 
ATOM     30  C   LIG    1      -23.314  70.794  30.621  0.00  0.00    +0.099 A 
BRANCH  29  31
ATOM     31  C   LIG    1      -23.814  68.932  28.965  0.00  0.00    +0.063 C 
ATOM     32  C   LIG    1      -24.409  67.595  29.466  0.00  0.00    +0.036 C 
ATOM     33  C   LIG    1      -22.275  68.719  28.914  0.00  0.00    +0.036 C 
BRANCH  31  34
ATOM     34  C   LIG    1      -24.296  69.252  27.527  0.00  0.00    +0.183 C 
BRANCH  34  35
ATOM     35  O   LIG    1      -23.492  70.247  26.894  0.00  0.00    -0.393 OA
ATOM     36  H   LIG    1      -22.584  70.163  27.234  0.00  0.00    +0.209 HD
ENDBRANCH  34  35
ENDBRANCH  31  34
ENDBRANCH  29  31
ENDBRANCH  20  22
ENDBRANCH   3  20
TORSDOF 10
ENDMDL
MODEL 8
REMARK VINA RESULT:      -5.8      3.903      7.242
REMARK  Name = pdb/CHEMBL3951602.pdb
REMARK                            x       y       z     vdW  Elec       q    Type
REMARK                         _______ _______ _______ _____ _____    ______ ____
ROOT
ATOM      1  C   LIG    1      -20.279  77.744  30.977  0.00  0.00    +0.086 A 
ATOM      2  C   LIG    1      -20.512  78.275  32.246  0.00  0.00    +0.042 A 
ATOM      3  C   LIG    1      -19.541  78.169  33.251  0.00  0.00    +0.042 A 
ATOM      4  C   LIG    1      -18.358  77.512  32.949  0.00  0.00    +0.122 A 
ATOM      5  N   LIG    1      -18.130  76.894  31.759  0.00  0.00    -0.260 NA
ATOM      6  C   LIG    1      -19.099  77.016  30.816  0.00  0.00    +0.138 A 
ENDROOT
BRANCH   1   8
ATOM      7  C   LIG    1      -22.349  77.224  29.877  0.00  0.00    +0.210 C 
ATOM      8  N   LIG    1      -21.194  77.810  29.917  0.00  0.00    -0.214 NA
BRANCH   7   9
ATOM      9  O   LIG    1      -23.042  77.409  28.731  0.00  0.00    -0.494 OA
ATOM     10  H   LIG    1      -23.698  76.712  28.531  0.00  0.00    +0.293 HD
ENDBRANCH   7   9
BRANCH   7  11
ATOM     11  C   LIG    1      -22.993  76.308  30.900  0.00  0.00    +0.240 C 
BRANCH  11  15
ATOM     12  C   LIG    1      -26.468  76.441  31.714  0.00  0.00    +0.085 A 
ATOM     13  N   LIG    1      -26.213  77.685  31.189  0.00  0.00    -0.134 NA
ATOM     14  N   LIG    1      -24.961  77.704  30.748  0.00  0.00    -0.065 NA
ATOM     15  N   LIG    1      -24.431  76.491  30.991  0.00  0.00    -0.242 N 
ATOM     16  C   LIG    1      -25.358  75.643  31.512  0.00  0.00    +0.134 A 
BRANCH  12  18
ATOM     17  C   LIG    1      -28.892  77.070  31.975  0.00  0.00    +0.014 C 
ATOM     18  C   LIG    1      -27.754  76.154  32.428  0.00  0.00    +0.035 C 
ATOM     19  C   LIG    1      -28.182  74.695  32.230  0.00  0.00    +0.014 C 
ENDBRANCH  12  18
ENDBRANCH  11  15
ENDBRANCH   7  11
ENDBRANCH   1   8
BRANCH   3  20
ATOM     20  C   LIG    1      -19.706  78.807  34.597  0.00  0.00    +0.197 C 
ATOM     21  O   LIG    1      -18.715  79.094  35.232  0.00  0.00    -0.287 OA
BRANCH  20  22
ATOM     22  C   LIG    1      -21.058  79.096  35.078  0.00  0.00    +0.049 A 
ATOM     23  C   LIG    1      -21.570  80.308  35.659  0.00  0.00    +0.029 A 
ATOM     24  C   LIG    1      -21.002  81.537  36.035  0.00  0.00    +0.121 A 
ATOM     25  N   LIG    1      -21.786  82.602  36.341  0.00  0.00    -0.263 NA
ATOM     26  C   LIG    1      -23.123  82.450  36.345  0.00  0.00    +0.113 A 
ATOM     27  C   LIG    1      -23.769  81.244  36.142  0.00  0.00    +0.046 A 
ATOM     28  C   LIG    1      -22.960  80.151  35.804  0.00  0.00    +0.053 A 
ATOM     29  N   LIG    1      -23.236  78.803  35.612  0.00  0.00    -0.338 N 
ATOM     30  C   LIG    1      -22.129  78.218  35.045  0.00  0.00    +0.099 A 
BRANCH  29  31
ATOM     31  C   LIG    1      -24.450  78.075  36.069  0.00  0.00    +0.063 C 
ATOM     32  C   LIG    1      -25.632  78.424  35.135  0.00  0.00    +0.036 C 
ATOM     33  C   LIG    1      -24.891  78.514  37.494  0.00  0.00    +0.036 C 
BRANCH  31  34
ATOM     34  C   LIG    1      -24.198  76.547  36.102  0.00  0.00    +0.183 C 
BRANCH  34  35
ATOM     35  O   LIG    1      -23.947  76.065  37.423  0.00  0.00    -0.393 OA
ATOM     36  H   LIG    1      -23.917  75.094  37.389  0.00  0.00    +0.209 HD
ENDBRANCH  34  35
ENDBRANCH  31  34
ENDBRANCH  29  31
ENDBRANCH  20  22
ENDBRANCH   3  20
TORSDOF 10
ENDMDL
MODEL 9
REMARK VINA RESULT:      -5.7     14.586     18.072
REMARK  Name = pdb/CHEMBL3951602.pdb
REMARK                            x       y       z     vdW  Elec       q    Type
REMARK                         _______ _______ _______ _____ _____    ______ ____
ROOT
ATOM      1  C   LIG    1      -32.204  93.923  29.305  0.00  0.00    +0.086 A 
ATOM      2  C   LIG    1      -32.271  92.696  28.644  0.00  0.00    +0.042 A 
ATOM      3  C   LIG    1      -33.476  91.982  28.590  0.00  0.00    +0.042 A 
ATOM      4  C   LIG    1      -34.585  92.523  29.220  0.00  0.00    +0.122 A 
ATOM      5  N   LIG    1      -34.541  93.665  29.958  0.00  0.00    -0.260 NA
ATOM      6  C   LIG    1      -33.353  94.322  29.990  0.00  0.00    +0.138 A 
ENDROOT
BRANCH   1   8
ATOM      7  C   LIG    1      -30.710  95.669  28.609  0.00  0.00    +0.210 C 
ATOM      8  N   LIG    1      -31.043  94.701  29.403  0.00  0.00    -0.214 NA
BRANCH   7   9
ATOM      9  O   LIG    1      -29.523  96.252  28.888  0.00  0.00    -0.494 OA
ATOM     10  H   LIG    1      -29.404  97.145  28.507  0.00  0.00    +0.293 HD
ENDBRANCH   7   9
BRANCH   7  11
ATOM     11  C   LIG    1      -31.429  96.186  27.378  0.00  0.00    +0.240 C 
BRANCH  11  15
ATOM     12  C   LIG    1      -30.248  95.670  24.047  0.00  0.00    +0.085 A 
ATOM     13  N   LIG    1      -29.094  95.803  24.780  0.00  0.00    -0.134 NA
ATOM     14  N   LIG    1      -29.422  95.890  26.063  0.00  0.00    -0.065 NA
ATOM     15  N   LIG    1      -30.763  95.815  26.142  0.00  0.00    -0.242 N 
ATOM     16  C   LIG    1      -31.317  95.590  24.919  0.00  0.00    +0.134 A 
BRANCH  12  18
ATOM     17  C   LIG    1      -28.805  95.886  21.995  0.00  0.00    +0.014 C 
ATOM     18  C   LIG    1      -30.219  95.698  22.548  0.00  0.00    +0.035 C 
ATOM     19  C   LIG    1      -30.816  94.414  21.960  0.00  0.00    +0.014 C 
ENDBRANCH  12  18
ENDBRANCH  11  15
ENDBRANCH   7  11
ENDBRANCH   1   8
BRANCH   3  20
ATOM     20  C   LIG    1      -33.620  90.709  27.812  0.00  0.00    +0.197 C 
ATOM     21  O   LIG    1      -33.858  90.774  26.626  0.00  0.00    -0.287 OA
BRANCH  20  22
ATOM     22  C   LIG    1      -33.427  89.434  28.506  0.00  0.00    +0.049 A 
ATOM     23  C   LIG    1      -34.264  88.264  28.494  0.00  0.00    +0.029 A 
ATOM     24  C   LIG    1      -35.515  87.953  27.934  0.00  0.00    +0.121 A 
ATOM     25  N   LIG    1      -35.955  86.670  27.882  0.00  0.00    -0.263 NA
ATOM     26  C   LIG    1      -35.206  85.699  28.436  0.00  0.00    +0.113 A 
ATOM     27  C   LIG    1      -34.040  85.925  29.144  0.00  0.00    +0.046 A 
ATOM     28  C   LIG    1      -33.575  87.247  29.178  0.00  0.00    +0.053 A 
ATOM     29  N   LIG    1      -32.514  87.852  29.839  0.00  0.00    -0.338 N 
ATOM     30  C   LIG    1      -32.354  89.116  29.321  0.00  0.00    +0.099 A 
BRANCH  29  31
ATOM     31  C   LIG    1      -31.770  87.303  31.003  0.00  0.00    +0.063 C 
ATOM     32  C   LIG    1      -31.177  85.926  30.623  0.00  0.00    +0.036 C 
ATOM     33  C   LIG    1      -32.701  87.043  32.221  0.00  0.00    +0.036 C 
BRANCH  31  34
ATOM     34  C   LIG    1      -30.657  88.281  31.458  0.00  0.00    +0.183 C 
BRANCH  34  35
ATOM     35  O   LIG    1      -29.397  87.990  30.855  0.00  0.00    -0.393 OA
ATOM     36  H   LIG    1      -29.396  88.370  29.959  0.00  0.00    +0.209 HD
ENDBRANCH  34  35
ENDBRANCH  31  34
ENDBRANCH  29  31
ENDBRANCH  20  22
ENDBRANCH   3  20
TORSDOF 10
ENDMDL
