MODEL 1
REMARK VINA RESULT:      -6.8      0.000      0.000
REMARK  Name = pdb/CHEMBL3927785.pdb
REMARK                            x       y       z     vdW  Elec       q    Type
REMARK                         _______ _______ _______ _____ _____    ______ ____
ROOT
ATOM      1  C   UNK A  0      -36.471  76.762  26.800  0.00  0.00    +0.149 A 
ATOM      2  N   UNK A  0      -37.437  77.546  26.297  0.00  0.00    -0.160 NA
ATOM      3  N   UNK A  0      -38.297  76.703  25.674  0.00  0.00    -0.218 N 
ATOM      4  C   UNK A  0      -37.771  75.401  25.605  0.00  0.00    +0.129 A 
ATOM      5  C   UNK A  0      -36.664  75.421  26.406  0.00  0.00    +0.078 A 
ENDROOT
BRANCH   3   6
ATOM      6  C   UNK A  0      -39.540  77.207  25.192  0.00  0.00    +0.067 A 
ATOM      7  C   UNK A  0      -40.038  76.835  23.940  0.00  0.00    +0.028 A 
ATOM      8  C   UNK A  0      -41.266  77.331  23.488  0.00  0.00    +0.002 A 
ATOM      9  C   UNK A  0      -42.017  78.184  24.294  0.00  0.00    +0.000 A 
ATOM     10  C   UNK A  0      -41.544  78.537  25.557  0.00  0.00    +0.002 A 
ATOM     11  C   UNK A  0      -40.315  78.046  26.010  0.00  0.00    +0.028 A 
ENDBRANCH   3   6
BRANCH   4  12
ATOM     12  N   UNK A  0      -38.223  74.311  24.843  0.00  0.00    -0.266 N 
ATOM     13  H   UNK A  0      -37.663  74.070  24.025  0.00  0.00    +0.157 HD
ATOM     14  C   UNK A  0      -39.340  73.473  25.220  0.00  0.00    +0.251 C 
ATOM     15  O   UNK A  0      -39.970  73.671  26.228  0.00  0.00    -0.270 OA
BRANCH  14  16
ATOM     16  C   UNK A  0      -39.685  72.331  24.339  0.00  0.00    +0.056 A 
ATOM     17  C   UNK A  0      -40.881  72.225  23.609  0.00  0.00    +0.054 A 
ATOM     18 CL   UNK A  0      -42.167  73.364  23.720  0.00  0.00    -0.083 Cl
ATOM     19  C   UNK A  0      -41.101  71.130  22.775  0.00  0.00    +0.041 A 
ATOM     20  C   UNK A  0      -40.151  70.104  22.657  0.00  0.00    +0.052 A 
ATOM     21 CL   UNK A  0      -40.527  68.923  21.449  0.00  0.00    -0.083 Cl
ATOM     22  C   UNK A  0      -38.968  70.114  23.418  0.00  0.00    +0.022 A 
ATOM     23  C   UNK A  0      -38.758  71.271  24.229  0.00  0.00    +0.026 A 
BRANCH  22  24
ATOM     24  C   UNK A  0      -37.929  69.045  23.418  0.00  0.00    +0.107 A 
ATOM     25  C   UNK A  0      -37.090  68.737  22.343  0.00  0.00    +0.149 A 
ATOM     26  F   UNK A  0      -37.198  69.351  21.157  0.00  0.00    -0.203 F 
ATOM     27  C   UNK A  0      -36.146  67.720  22.456  0.00  0.00    +0.042 A 
ATOM     28  C   UNK A  0      -36.090  66.972  23.621  0.00  0.00    +0.023 A 
ATOM     29  C   UNK A  0      -36.981  67.285  24.631  0.00  0.00    +0.111 A 
ATOM     30  N   UNK A  0      -37.881  68.300  24.563  0.00  0.00    -0.252 NA
ENDBRANCH  22  24
ENDBRANCH  14  16
ENDBRANCH   4  12
BRANCH   1  32
ATOM     31  N   ALA A  1      -34.253  77.579  27.108  0.00  0.00    -0.244 NA
ATOM     32  C   UNK A  0      -35.381  77.269  27.628  0.00  0.00    +0.236 C 
BRANCH  31  34
ATOM     33  CB  ALA A  1      -32.240  76.884  28.226  0.00  0.00    +0.035 C 
ATOM     34  CA  ALA A  1      -33.124  78.085  27.889  0.00  0.00    +0.131 C 
BRANCH  34  35
ATOM     35  C   ALA A  1      -32.320  79.092  27.056  0.00  0.00    +0.182 C 
BRANCH  35  36
ATOM     36  O   ALA A  1      -32.376  78.734  25.674  0.00  0.00    -0.393 OA
ATOM     37  H   ALA A  1      -33.297  78.917  25.394  0.00  0.00    +0.209 HD
ENDBRANCH  35  36
ENDBRANCH  34  35
ENDBRANCH  31  34
BRANCH  32  38
ATOM     38  O   UNK A  0      -35.703  77.405  28.934  0.00  0.00    -0.491 OA
ATOM     39  H   UNK A  0      -35.841  76.536  29.357  0.00  0.00    +0.294 HD
ENDBRANCH  32  38
ENDBRANCH   1  32
TORSDOF 9
ENDMDL
MODEL 2
REMARK VINA RESULT:      -6.5      2.254      3.975
REMARK  Name = pdb/CHEMBL3927785.pdb
REMARK                            x       y       z     vdW  Elec       q    Type
REMARK                         _______ _______ _______ _____ _____    ______ ____
ROOT
ATOM      1  C   UNK A  0      -36.495  76.830  26.849  0.00  0.00    +0.149 A 
ATOM      2  N   UNK A  0      -37.437  77.673  26.398  0.00  0.00    -0.160 NA
ATOM      3  N   UNK A  0      -38.352  76.891  25.772  0.00  0.00    -0.218 N 
ATOM      4  C   UNK A  0      -37.888  75.570  25.647  0.00  0.00    +0.129 A 
ATOM      5  C   UNK A  0      -36.761  75.513  26.417  0.00  0.00    +0.078 A 
ENDROOT
BRANCH   3   6
ATOM      6  C   UNK A  0      -39.583  77.467  25.342  0.00  0.00    +0.067 A 
ATOM      7  C   UNK A  0      -40.782  77.195  26.008  0.00  0.00    +0.028 A 
ATOM      8  C   UNK A  0      -41.979  77.780  25.579  0.00  0.00    +0.002 A 
ATOM      9  C   UNK A  0      -41.983  78.657  24.497  0.00  0.00    +0.000 A 
ATOM     10  C   UNK A  0      -40.788  78.959  23.846  0.00  0.00    +0.002 A 
ATOM     11  C   UNK A  0      -39.590  78.374  24.270  0.00  0.00    +0.028 A 
ENDBRANCH   3   6
BRANCH   4  12
ATOM     12  N   UNK A  0      -38.411  74.528  24.863  0.00  0.00    -0.266 N 
ATOM     13  H   UNK A  0      -37.939  74.351  23.976  0.00  0.00    +0.157 HD
ATOM     14  C   UNK A  0      -39.475  73.650  25.297  0.00  0.00    +0.251 C 
ATOM     15  O   UNK A  0      -39.996  73.769  26.377  0.00  0.00    -0.270 OA
BRANCH  14  16
ATOM     16  C   UNK A  0      -39.903  72.565  24.380  0.00  0.00    +0.056 A 
ATOM     17  C   UNK A  0      -39.178  71.382  24.157  0.00  0.00    +0.054 A 
ATOM     18 CL   UNK A  0      -37.629  71.072  24.840  0.00  0.00    -0.083 Cl
ATOM     19  C   UNK A  0      -39.681  70.400  23.304  0.00  0.00    +0.041 A 
ATOM     20  C   UNK A  0      -40.904  70.572  22.638  0.00  0.00    +0.052 A 
ATOM     21 CL   UNK A  0      -41.439  69.178  21.764  0.00  0.00    -0.083 Cl
ATOM     22  C   UNK A  0      -41.640  71.765  22.761  0.00  0.00    +0.022 A 
ATOM     23  C   UNK A  0      -41.115  72.730  23.674  0.00  0.00    +0.026 A 
BRANCH  22  24
ATOM     24  C   UNK A  0      -42.911  72.076  22.046  0.00  0.00    +0.107 A 
ATOM     25  C   UNK A  0      -43.097  71.999  20.663  0.00  0.00    +0.149 A 
ATOM     26  F   UNK A  0      -42.096  71.696  19.826  0.00  0.00    -0.203 F 
ATOM     27  C   UNK A  0      -44.332  72.307  20.100  0.00  0.00    +0.042 A 
ATOM     28  C   UNK A  0      -45.359  72.752  20.918  0.00  0.00    +0.023 A 
ATOM     29  C   UNK A  0      -45.102  72.861  22.273  0.00  0.00    +0.111 A 
ATOM     30  N   UNK A  0      -43.920  72.526  22.852  0.00  0.00    -0.252 NA
ENDBRANCH  22  24
ENDBRANCH  14  16
ENDBRANCH   4  12
BRANCH   1  32
ATOM     31  N   ALA A  1      -34.269  77.637  27.114  0.00  0.00    -0.244 NA
ATOM     32  C   UNK A  0      -35.362  77.259  27.662  0.00  0.00    +0.236 C 
BRANCH  31  34
ATOM     33  CB  ALA A  1      -32.241  76.830  28.124  0.00  0.00    +0.035 C 
ATOM     34  CA  ALA A  1      -33.099  78.071  27.877  0.00  0.00    +0.131 C 
BRANCH  34  35
ATOM     35  C   ALA A  1      -32.294  79.095  27.067  0.00  0.00    +0.182 C 
BRANCH  35  36
ATOM     36  O   ALA A  1      -32.338  78.760  25.679  0.00  0.00    -0.393 OA
ATOM     37  H   ALA A  1      -32.956  79.404  25.275  0.00  0.00    +0.209 HD
ENDBRANCH  35  36
ENDBRANCH  34  35
ENDBRANCH  31  34
BRANCH  32  38
ATOM     38  O   UNK A  0      -35.607  77.249  28.991  0.00  0.00    -0.491 OA
ATOM     39  H   UNK A  0      -35.779  76.343  29.313  0.00  0.00    +0.294 HD
ENDBRANCH  32  38
ENDBRANCH   1  32
TORSDOF 9
ENDMDL
MODEL 3
REMARK VINA RESULT:      -6.3      3.168      4.757
REMARK  Name = pdb/CHEMBL3927785.pdb
REMARK                            x       y       z     vdW  Elec       q    Type
REMARK                         _______ _______ _______ _____ _____    ______ ____
ROOT
ATOM      1  C   UNK A  0      -37.441  79.893  27.565  0.00  0.00    +0.149 A 
ATOM      2  N   UNK A  0      -36.422  79.207  28.105  0.00  0.00    -0.160 NA
ATOM      3  N   UNK A  0      -36.516  77.956  27.589  0.00  0.00    -0.218 N 
ATOM      4  C   UNK A  0      -37.717  77.790  26.878  0.00  0.00    +0.129 A 
ATOM      5  C   UNK A  0      -38.249  79.044  26.780  0.00  0.00    +0.078 A 
ENDROOT
BRANCH   3   6
ATOM      6  C   UNK A  0      -35.460  77.026  27.823  0.00  0.00    +0.067 A 
ATOM      7  C   UNK A  0      -35.728  75.707  28.201  0.00  0.00    +0.028 A 
ATOM      8  C   UNK A  0      -34.680  74.804  28.414  0.00  0.00    +0.002 A 
ATOM      9  C   UNK A  0      -33.359  75.207  28.228  0.00  0.00    +0.000 A 
ATOM     10  C   UNK A  0      -33.083  76.511  27.822  0.00  0.00    +0.002 A 
ATOM     11  C   UNK A  0      -34.128  77.417  27.611  0.00  0.00    +0.028 A 
ENDBRANCH   3   6
BRANCH   4  12
ATOM     12  N   UNK A  0      -38.301  76.601  26.409  0.00  0.00    -0.266 N 
ATOM     13  H   UNK A  0      -39.063  76.221  26.971  0.00  0.00    +0.157 HD
ATOM     14  C   UNK A  0      -37.961  75.980  25.148  0.00  0.00    +0.251 C 
ATOM     15  O   UNK A  0      -37.129  76.449  24.413  0.00  0.00    -0.270 OA
BRANCH  14  16
ATOM     16  C   UNK A  0      -38.685  74.745  24.760  0.00  0.00    +0.056 A 
ATOM     17  C   UNK A  0      -39.948  74.726  24.143  0.00  0.00    +0.054 A 
ATOM     18 CL   UNK A  0      -40.883  76.141  23.847  0.00  0.00    -0.083 Cl
ATOM     19  C   UNK A  0      -40.534  73.515  23.779  0.00  0.00    +0.041 A 
ATOM     20  C   UNK A  0      -39.894  72.293  24.032  0.00  0.00    +0.052 A 
ATOM     21 CL   UNK A  0      -40.696  70.917  23.355  0.00  0.00    -0.083 Cl
ATOM     22  C   UNK A  0      -38.664  72.240  24.713  0.00  0.00    +0.022 A 
ATOM     23  C   UNK A  0      -38.074  73.501  25.034  0.00  0.00    +0.026 A 
BRANCH  22  24
ATOM     24  C   UNK A  0      -37.935  70.995  25.092  0.00  0.00    +0.107 A 
ATOM     25  C   UNK A  0      -37.387  70.078  24.190  0.00  0.00    +0.149 A 
ATOM     26  F   UNK A  0      -37.535  70.207  22.865  0.00  0.00    -0.203 F 
ATOM     27  C   UNK A  0      -36.718  68.949  24.654  0.00  0.00    +0.042 A 
ATOM     28  C   UNK A  0      -36.655  68.709  26.018  0.00  0.00    +0.023 A 
ATOM     29  C   UNK A  0      -37.263  69.623  26.861  0.00  0.00    +0.111 A 
ATOM     30  N   UNK A  0      -37.883  70.754  26.435  0.00  0.00    -0.252 NA
ENDBRANCH  22  24
ENDBRANCH  14  16
ENDBRANCH   4  12
BRANCH   1  32
ATOM     31  N   ALA A  1      -36.701  82.157  27.630  0.00  0.00    -0.244 NA
ATOM     32  C   UNK A  0      -37.654  81.319  27.792  0.00  0.00    +0.236 C 
BRANCH  31  34
ATOM     33  CB  ALA A  1      -36.420  83.877  29.289  0.00  0.00    +0.035 C 
ATOM     34  CA  ALA A  1      -36.854  83.595  27.849  0.00  0.00    +0.131 C 
BRANCH  34  35
ATOM     35  C   ALA A  1      -35.950  84.372  26.884  0.00  0.00    +0.182 C 
BRANCH  35  36
ATOM     36  O   ALA A  1      -35.565  83.532  25.795  0.00  0.00    -0.393 OA
ATOM     37  H   ALA A  1      -35.040  82.808  26.197  0.00  0.00    +0.209 HD
ENDBRANCH  35  36
ENDBRANCH  34  35
ENDBRANCH  31  34
BRANCH  32  38
ATOM     38  O   UNK A  0      -38.922  81.635  28.136  0.00  0.00    -0.491 OA
ATOM     39  H   UNK A  0      -39.317  82.258  27.496  0.00  0.00    +0.294 HD
ENDBRANCH  32  38
ENDBRANCH   1  32
TORSDOF 9
ENDMDL
MODEL 4
REMARK VINA RESULT:      -6.2     13.936     16.251
REMARK  Name = pdb/CHEMBL3927785.pdb
REMARK                            x       y       z     vdW  Elec       q    Type
REMARK                         _______ _______ _______ _____ _____    ______ ____
ROOT
ATOM      1  C   UNK A  0      -23.946  78.498  34.305  0.00  0.00    +0.149 A 
ATOM      2  N   UNK A  0      -22.882  78.461  33.487  0.00  0.00    -0.160 NA
ATOM      3  N   UNK A  0      -23.070  77.370  32.702  0.00  0.00    -0.218 N 
ATOM      4  C   UNK A  0      -24.151  76.597  33.159  0.00  0.00    +0.129 A 
ATOM      5  C   UNK A  0      -24.763  77.365  34.109  0.00  0.00    +0.078 A 
ENDROOT
BRANCH   3   6
ATOM      6  C   UNK A  0      -22.202  77.155  31.592  0.00  0.00    +0.067 A 
ATOM      7  C   UNK A  0      -22.697  76.723  30.358  0.00  0.00    +0.028 A 
ATOM      8  C   UNK A  0      -21.832  76.528  29.275  0.00  0.00    +0.002 A 
ATOM      9  C   UNK A  0      -20.470  76.785  29.411  0.00  0.00    +0.000 A 
ATOM     10  C   UNK A  0      -19.970  77.245  30.628  0.00  0.00    +0.002 A 
ATOM     11  C   UNK A  0      -20.832  77.438  31.714  0.00  0.00    +0.028 A 
ENDBRANCH   3   6
BRANCH   4  12
ATOM     12  N   UNK A  0      -24.515  75.292  32.786  0.00  0.00    -0.266 N 
ATOM     13  H   UNK A  0      -24.142  74.538  33.362  0.00  0.00    +0.157 HD
ATOM     14  C   UNK A  0      -25.457  74.990  31.731  0.00  0.00    +0.251 C 
ATOM     15  O   UNK A  0      -25.989  75.859  31.086  0.00  0.00    -0.270 OA
BRANCH  14  16
ATOM     16  C   UNK A  0      -25.779  73.566  31.468  0.00  0.00    +0.056 A 
ATOM     17  C   UNK A  0      -27.015  72.965  31.760  0.00  0.00    +0.054 A 
ATOM     18 CL   UNK A  0      -28.300  73.776  32.568  0.00  0.00    -0.083 Cl
ATOM     19  C   UNK A  0      -27.238  71.627  31.441  0.00  0.00    +0.041 A 
ATOM     20  C   UNK A  0      -26.239  70.846  30.841  0.00  0.00    +0.052 A 
ATOM     21 CL   UNK A  0      -26.760  69.265  30.367  0.00  0.00    -0.083 Cl
ATOM     22  C   UNK A  0      -24.956  71.368  30.592  0.00  0.00    +0.022 A 
ATOM     23  C   UNK A  0      -24.777  72.752  30.894  0.00  0.00    +0.026 A 
BRANCH  22  24
ATOM     24  C   UNK A  0      -23.806  70.607  30.024  0.00  0.00    +0.107 A 
ATOM     25  C   UNK A  0      -23.743  70.096  28.724  0.00  0.00    +0.149 A 
ATOM     26  F   UNK A  0      -24.772  70.188  27.871  0.00  0.00    -0.203 F 
ATOM     27  C   UNK A  0      -22.613  69.405  28.294  0.00  0.00    +0.042 A 
ATOM     28  C   UNK A  0      -21.578  69.174  29.186  0.00  0.00    +0.023 A 
ATOM     29  C   UNK A  0      -21.719  69.655  30.475  0.00  0.00    +0.111 A 
ATOM     30  N   UNK A  0      -22.791  70.369  30.907  0.00  0.00    -0.252 NA
ENDBRANCH  22  24
ENDBRANCH  14  16
ENDBRANCH   4  12
BRANCH   1  32
ATOM     31  N   ALA A  1      -23.203  80.240  35.752  0.00  0.00    -0.244 NA
ATOM     32  C   UNK A  0      -24.181  79.576  35.261  0.00  0.00    +0.236 C 
BRANCH  31  34
ATOM     33  CB  ALA A  1      -22.912  80.796  38.074  0.00  0.00    +0.035 C 
ATOM     34  CA  ALA A  1      -23.378  81.325  36.717  0.00  0.00    +0.131 C 
BRANCH  34  35
ATOM     35  C   ALA A  1      -22.515  82.528  36.316  0.00  0.00    +0.182 C 
BRANCH  35  36
ATOM     36  O   ALA A  1      -21.501  82.115  35.399  0.00  0.00    -0.393 OA
ATOM     37  H   ALA A  1      -20.662  82.474  35.759  0.00  0.00    +0.209 HD
ENDBRANCH  35  36
ENDBRANCH  34  35
ENDBRANCH  31  34
BRANCH  32  38
ATOM     38  O   UNK A  0      -25.488  79.804  35.518  0.00  0.00    -0.491 OA
ATOM     39  H   UNK A  0      -26.022  78.997  35.384  0.00  0.00    +0.294 HD
ENDBRANCH  32  38
ENDBRANCH   1  32
TORSDOF 9
ENDMDL
MODEL 5
REMARK VINA RESULT:      -6.2      2.539      3.385
REMARK  Name = pdb/CHEMBL3927785.pdb
REMARK                            x       y       z     vdW  Elec       q    Type
REMARK                         _______ _______ _______ _____ _____    ______ ____
ROOT
ATOM      1  C   UNK A  0      -37.747  77.236  26.436  0.00  0.00    +0.149 A 
ATOM      2  N   UNK A  0      -38.793  77.229  25.595  0.00  0.00    -0.160 NA
ATOM      3  N   UNK A  0      -38.918  75.940  25.189  0.00  0.00    -0.218 N 
ATOM      4  C   UNK A  0      -37.825  75.165  25.614  0.00  0.00    +0.129 A 
ATOM      5  C   UNK A  0      -37.140  75.963  26.486  0.00  0.00    +0.078 A 
ENDROOT
BRANCH   3   6
ATOM      6  C   UNK A  0      -40.062  75.559  24.428  0.00  0.00    +0.067 A 
ATOM      7  C   UNK A  0      -40.888  76.517  23.831  0.00  0.00    +0.028 A 
ATOM      8  C   UNK A  0      -41.999  76.124  23.077  0.00  0.00    +0.002 A 
ATOM      9  C   UNK A  0      -42.281  74.772  22.895  0.00  0.00    +0.000 A 
ATOM     10  C   UNK A  0      -41.447  73.809  23.460  0.00  0.00    +0.002 A 
ATOM     11  C   UNK A  0      -40.336  74.198  24.217  0.00  0.00    +0.028 A 
ENDBRANCH   3   6
BRANCH   4  12
ATOM     12  N   UNK A  0      -37.455  73.873  25.206  0.00  0.00    -0.266 N 
ATOM     13  H   UNK A  0      -36.954  73.806  24.319  0.00  0.00    +0.157 HD
ATOM     14  C   UNK A  0      -37.641  72.689  26.015  0.00  0.00    +0.251 C 
ATOM     15  O   UNK A  0      -38.147  72.740  27.108  0.00  0.00    -0.270 OA
BRANCH  14  16
ATOM     16  C   UNK A  0      -37.168  71.392  25.474  0.00  0.00    +0.056 A 
ATOM     17  C   UNK A  0      -35.981  70.752  25.871  0.00  0.00    +0.054 A 
ATOM     18 CL   UNK A  0      -34.850  71.442  26.969  0.00  0.00    -0.083 Cl
ATOM     19  C   UNK A  0      -35.638  69.512  25.333  0.00  0.00    +0.041 A 
ATOM     20  C   UNK A  0      -36.450  68.884  24.378  0.00  0.00    +0.052 A 
ATOM     21 CL   UNK A  0      -35.947  67.281  23.960  0.00  0.00    -0.083 Cl
ATOM     22  C   UNK A  0      -37.611  69.506  23.884  0.00  0.00    +0.022 A 
ATOM     23  C   UNK A  0      -37.953  70.755  24.487  0.00  0.00    +0.026 A 
BRANCH  22  24
ATOM     24  C   UNK A  0      -38.505  68.958  22.823  0.00  0.00    +0.107 A 
ATOM     25  C   UNK A  0      -38.170  68.841  21.471  0.00  0.00    +0.149 A 
ATOM     26  F   UNK A  0      -37.006  69.290  20.984  0.00  0.00    -0.203 F 
ATOM     27  C   UNK A  0      -39.081  68.307  20.565  0.00  0.00    +0.042 A 
ATOM     28  C   UNK A  0      -40.347  67.951  21.004  0.00  0.00    +0.023 A 
ATOM     29  C   UNK A  0      -40.641  68.140  22.342  0.00  0.00    +0.111 A 
ATOM     30  N   UNK A  0      -39.756  68.618  23.255  0.00  0.00    -0.252 NA
ENDBRANCH  22  24
ENDBRANCH  14  16
ENDBRANCH   4  12
BRANCH   1  32
ATOM     31  N   ALA A  1      -36.141  78.505  27.657  0.00  0.00    -0.244 NA
ATOM     32  C   UNK A  0      -37.323  78.423  27.171  0.00  0.00    +0.236 C 
BRANCH  31  34
ATOM     33  CB  ALA A  1      -35.964  79.400  29.883  0.00  0.00    +0.035 C 
ATOM     34  CA  ALA A  1      -35.663  79.666  28.408  0.00  0.00    +0.131 C 
BRANCH  34  35
ATOM     35  C   ALA A  1      -34.149  79.826  28.218  0.00  0.00    +0.182 C 
BRANCH  35  36
ATOM     36  O   ALA A  1      -33.875  80.351  26.918  0.00  0.00    -0.393 OA
ATOM     37  H   ALA A  1      -33.622  79.577  26.372  0.00  0.00    +0.209 HD
ENDBRANCH  35  36
ENDBRANCH  34  35
ENDBRANCH  31  34
BRANCH  32  38
ATOM     38  O   UNK A  0      -38.263  79.392  27.237  0.00  0.00    -0.491 OA
ATOM     39  H   UNK A  0      -38.048  80.047  27.929  0.00  0.00    +0.294 HD
ENDBRANCH  32  38
ENDBRANCH   1  32
TORSDOF 9
ENDMDL
MODEL 6
REMARK VINA RESULT:      -6.1      3.965      9.033
REMARK  Name = pdb/CHEMBL3927785.pdb
REMARK                            x       y       z     vdW  Elec       q    Type
REMARK                         _______ _______ _______ _____ _____    ______ ____
ROOT
ATOM      1  C   UNK A  0      -40.353  72.041  23.888  0.00  0.00    +0.149 A 
ATOM      2  N   UNK A  0      -40.736  73.327  23.865  0.00  0.00    -0.160 NA
ATOM      3  N   UNK A  0      -39.653  74.032  24.280  0.00  0.00    -0.218 N 
ATOM      4  C   UNK A  0      -38.646  73.178  24.762  0.00  0.00    +0.129 A 
ATOM      5  C   UNK A  0      -39.051  71.919  24.419  0.00  0.00    +0.078 A 
ENDROOT
BRANCH   3   6
ATOM      6  C   UNK A  0      -39.672  75.455  24.188  0.00  0.00    +0.067 A 
ATOM      7  C   UNK A  0      -38.558  76.219  24.550  0.00  0.00    +0.028 A 
ATOM      8  C   UNK A  0      -38.590  77.614  24.442  0.00  0.00    +0.002 A 
ATOM      9  C   UNK A  0      -39.726  78.253  23.951  0.00  0.00    +0.000 A 
ATOM     10  C   UNK A  0      -40.831  77.498  23.559  0.00  0.00    +0.002 A 
ATOM     11  C   UNK A  0      -40.803  76.104  23.669  0.00  0.00    +0.028 A 
ENDBRANCH   3   6
BRANCH   4  12
ATOM     12  N   UNK A  0      -37.493  73.507  25.493  0.00  0.00    -0.266 N 
ATOM     13  H   UNK A  0      -36.647  73.680  24.948  0.00  0.00    +0.157 HD
ATOM     14  C   UNK A  0      -37.480  73.721  26.923  0.00  0.00    +0.251 C 
ATOM     15  O   UNK A  0      -38.479  73.616  27.590  0.00  0.00    -0.270 OA
BRANCH  14  16
ATOM     16  C   UNK A  0      -36.197  74.102  27.562  0.00  0.00    +0.056 A 
ATOM     17  C   UNK A  0      -35.377  73.220  28.286  0.00  0.00    +0.054 A 
ATOM     18 CL   UNK A  0      -35.805  71.587  28.626  0.00  0.00    -0.083 Cl
ATOM     19  C   UNK A  0      -34.167  73.661  28.818  0.00  0.00    +0.041 A 
ATOM     20  C   UNK A  0      -33.746  74.990  28.662  0.00  0.00    +0.052 A 
ATOM     21 CL   UNK A  0      -32.145  75.301  29.241  0.00  0.00    -0.083 Cl
ATOM     22  C   UNK A  0      -34.555  75.940  28.013  0.00  0.00    +0.022 A 
ATOM     23  C   UNK A  0      -35.768  75.443  27.446  0.00  0.00    +0.026 A 
BRANCH  22  24
ATOM     24  C   UNK A  0      -34.235  77.388  27.854  0.00  0.00    +0.107 A 
ATOM     25  C   UNK A  0      -33.156  77.898  27.125  0.00  0.00    +0.149 A 
ATOM     26  F   UNK A  0      -32.247  77.102  26.546  0.00  0.00    -0.203 F 
ATOM     27  C   UNK A  0      -32.954  79.272  27.036  0.00  0.00    +0.042 A 
ATOM     28  C   UNK A  0      -33.795  80.129  27.730  0.00  0.00    +0.023 A 
ATOM     29  C   UNK A  0      -34.812  79.566  28.479  0.00  0.00    +0.111 A 
ATOM     30  N   UNK A  0      -35.057  78.232  28.547  0.00  0.00    -0.252 NA
ENDBRANCH  22  24
ENDBRANCH  14  16
ENDBRANCH   4  12
BRANCH   1  32
ATOM     31  N   ALA A  1      -41.580  70.882  22.206  0.00  0.00    -0.244 NA
ATOM     32  C   UNK A  0      -41.203  70.948  23.427  0.00  0.00    +0.236 C 
BRANCH  31  34
ATOM     33  CB  ALA A  1      -43.033  70.316  20.374  0.00  0.00    +0.035 C 
ATOM     34  CA  ALA A  1      -42.436  69.814  21.689  0.00  0.00    +0.131 C 
BRANCH  34  35
ATOM     35  C   ALA A  1      -41.601  68.555  21.421  0.00  0.00    +0.182 C 
BRANCH  35  36
ATOM     36  O   ALA A  1      -40.533  68.863  20.524  0.00  0.00    -0.393 OA
ATOM     37  H   ALA A  1      -40.550  69.837  20.421  0.00  0.00    +0.209 HD
ENDBRANCH  35  36
ENDBRANCH  34  35
ENDBRANCH  31  34
BRANCH  32  38
ATOM     38  O   UNK A  0      -41.492  70.038  24.384  0.00  0.00    -0.491 OA
ATOM     39  H   UNK A  0      -41.084  70.280  25.237  0.00  0.00    +0.294 HD
ENDBRANCH  32  38
ENDBRANCH   1  32
TORSDOF 9
ENDMDL
MODEL 7
REMARK VINA RESULT:      -6.1     17.447     21.019
REMARK  Name = pdb/CHEMBL3927785.pdb
REMARK                            x       y       z     vdW  Elec       q    Type
REMARK                         _______ _______ _______ _____ _____    ______ ____
ROOT
ATOM      1  C   UNK A  0      -24.899  83.177  37.287  0.00  0.00    +0.149 A 
ATOM      2  N   UNK A  0      -23.980  83.437  38.230  0.00  0.00    -0.160 NA
ATOM      3  N   UNK A  0      -22.892  82.705  37.884  0.00  0.00    -0.218 N 
ATOM      4  C   UNK A  0      -23.188  81.820  36.833  0.00  0.00    +0.129 A 
ATOM      5  C   UNK A  0      -24.427  82.193  36.392  0.00  0.00    +0.078 A 
ENDROOT
BRANCH   3   6
ATOM      6  C   UNK A  0      -21.667  82.905  38.586  0.00  0.00    +0.067 A 
ATOM      7  C   UNK A  0      -21.443  82.317  39.835  0.00  0.00    +0.028 A 
ATOM      8  C   UNK A  0      -20.230  82.515  40.504  0.00  0.00    +0.002 A 
ATOM      9  C   UNK A  0      -19.224  83.281  39.920  0.00  0.00    +0.000 A 
ATOM     10  C   UNK A  0      -19.425  83.847  38.662  0.00  0.00    +0.002 A 
ATOM     11  C   UNK A  0      -20.638  83.654  37.991  0.00  0.00    +0.028 A 
ENDBRANCH   3   6
BRANCH   4  12
ATOM     12  N   UNK A  0      -22.428  80.740  36.355  0.00  0.00    -0.266 N 
ATOM     13  H   UNK A  0      -22.771  79.808  36.588  0.00  0.00    +0.157 HD
ATOM     14  C   UNK A  0      -21.287  80.885  35.477  0.00  0.00    +0.251 C 
ATOM     15  O   UNK A  0      -20.906  81.966  35.104  0.00  0.00    -0.270 OA
BRANCH  14  16
ATOM     16  C   UNK A  0      -20.599  79.654  35.017  0.00  0.00    +0.056 A 
ATOM     17  C   UNK A  0      -19.563  79.015  35.720  0.00  0.00    +0.054 A 
ATOM     18 CL   UNK A  0      -18.872  79.636  37.168  0.00  0.00    -0.083 Cl
ATOM     19  C   UNK A  0      -19.002  77.838  35.226  0.00  0.00    +0.041 A 
ATOM     20  C   UNK A  0      -19.439  77.275  34.018  0.00  0.00    +0.052 A 
ATOM     21 CL   UNK A  0      -18.745  75.730  33.662  0.00  0.00    -0.083 Cl
ATOM     22  C   UNK A  0      -20.419  77.906  33.232  0.00  0.00    +0.022 A 
ATOM     23  C   UNK A  0      -21.000  79.087  33.788  0.00  0.00    +0.026 A 
BRANCH  22  24
ATOM     24  C   UNK A  0      -20.905  77.430  31.904  0.00  0.00    +0.107 A 
ATOM     25  C   UNK A  0      -20.103  77.242  30.774  0.00  0.00    +0.149 A 
ATOM     26  F   UNK A  0      -18.800  77.550  30.766  0.00  0.00    -0.203 F 
ATOM     27  C   UNK A  0      -20.662  76.785  29.584  0.00  0.00    +0.042 A 
ATOM     28  C   UNK A  0      -22.030  76.579  29.510  0.00  0.00    +0.023 A 
ATOM     29  C   UNK A  0      -22.782  76.834  30.644  0.00  0.00    +0.111 A 
ATOM     30  N   UNK A  0      -22.256  77.238  31.829  0.00  0.00    -0.252 NA
ENDBRANCH  22  24
ENDBRANCH  14  16
ENDBRANCH   4  12
BRANCH   1  32
ATOM     31  N   ALA A  1      -26.557  84.502  36.203  0.00  0.00    -0.244 NA
ATOM     32  C   UNK A  0      -26.200  83.835  37.236  0.00  0.00    +0.236 C 
BRANCH  31  34
ATOM     33  CB  ALA A  1      -27.676  86.300  35.063  0.00  0.00    +0.035 C 
ATOM     34  CA  ALA A  1      -27.845  85.187  36.099  0.00  0.00    +0.131 C 
BRANCH  34  35
ATOM     35  C   ALA A  1      -28.924  84.207  35.622  0.00  0.00    +0.182 C 
BRANCH  35  36
ATOM     36  O   ALA A  1      -28.972  84.193  34.194  0.00  0.00    -0.393 OA
ATOM     37  H   ALA A  1      -28.038  84.126  33.903  0.00  0.00    +0.209 HD
ENDBRANCH  35  36
ENDBRANCH  34  35
ENDBRANCH  31  34
BRANCH  32  38
ATOM     38  O   UNK A  0      -26.960  83.632  38.336  0.00  0.00    -0.491 OA
ATOM     39  H   UNK A  0      -27.503  84.418  38.541  0.00  0.00    +0.294 HD
ENDBRANCH  32  38
ENDBRANCH   1  32
TORSDOF 9
ENDMDL
MODEL 8
REMARK VINA RESULT:      -6.0     13.856     16.084
REMARK  Name = pdb/CHEMBL3927785.pdb
REMARK                            x       y       z     vdW  Elec       q    Type
REMARK                         _______ _______ _______ _____ _____    ______ ____
ROOT
ATOM      1  C   UNK A  0      -28.529  77.750  12.087  0.00  0.00    +0.149 A 
ATOM      2  N   UNK A  0      -27.573  78.473  12.690  0.00  0.00    -0.160 NA
ATOM      3  N   UNK A  0      -26.904  77.598  13.482  0.00  0.00    -0.218 N 
ATOM      4  C   UNK A  0      -27.565  76.358  13.538  0.00  0.00    +0.129 A 
ATOM      5  C   UNK A  0      -28.533  76.426  12.577  0.00  0.00    +0.078 A 
ENDROOT
BRANCH   3   6
ATOM      6  C   UNK A  0      -25.700  78.016  14.121  0.00  0.00    +0.067 A 
ATOM      7  C   UNK A  0      -25.700  79.057  15.055  0.00  0.00    +0.028 A 
ATOM      8  C   UNK A  0      -24.511  79.447  15.682  0.00  0.00    +0.002 A 
ATOM      9  C   UNK A  0      -23.319  78.785  15.397  0.00  0.00    +0.000 A 
ATOM     10  C   UNK A  0      -23.314  77.727  14.490  0.00  0.00    +0.002 A 
ATOM     11  C   UNK A  0      -24.500  77.336  13.859  0.00  0.00    +0.028 A 
ENDBRANCH   3   6
BRANCH   4  12
ATOM     12  N   UNK A  0      -27.343  75.285  14.418  0.00  0.00    -0.266 N 
ATOM     13  H   UNK A  0      -27.871  75.301  15.291  0.00  0.00    +0.157 HD
ATOM     14  C   UNK A  0      -26.519  74.140  14.099  0.00  0.00    +0.251 C 
ATOM     15  O   UNK A  0      -25.952  74.041  13.040  0.00  0.00    -0.270 OA
BRANCH  14  16
ATOM     16  C   UNK A  0      -26.404  73.060  15.109  0.00  0.00    +0.056 A 
ATOM     17  C   UNK A  0      -25.187  72.585  15.628  0.00  0.00    +0.054 A 
ATOM     18 CL   UNK A  0      -23.646  73.122  15.081  0.00  0.00    -0.083 Cl
ATOM     19  C   UNK A  0      -25.180  71.591  16.605  0.00  0.00    +0.041 A 
ATOM     20  C   UNK A  0      -26.375  71.030  17.080  0.00  0.00    +0.052 A 
ATOM     21 CL   UNK A  0      -26.170  69.940  18.408  0.00  0.00    -0.083 Cl
ATOM     22  C   UNK A  0      -27.621  71.409  16.548  0.00  0.00    +0.022 A 
ATOM     23  C   UNK A  0      -27.592  72.458  15.579  0.00  0.00    +0.026 A 
BRANCH  22  24
ATOM     24  C   UNK A  0      -28.940  70.828  16.931  0.00  0.00    +0.107 A 
ATOM     25  C   UNK A  0      -29.878  71.444  17.766  0.00  0.00    +0.149 A 
ATOM     26  F   UNK A  0      -29.635  72.615  18.368  0.00  0.00    -0.203 F 
ATOM     27  C   UNK A  0      -31.085  70.813  18.053  0.00  0.00    +0.042 A 
ATOM     28  C   UNK A  0      -31.322  69.541  17.556  0.00  0.00    +0.023 A 
ATOM     29  C   UNK A  0      -30.335  68.958  16.781  0.00  0.00    +0.111 A 
ATOM     30  N   UNK A  0      -29.168  69.570  16.450  0.00  0.00    -0.252 NA
ENDBRANCH  22  24
ENDBRANCH  14  16
ENDBRANCH   4  12
BRANCH   1  32
ATOM     31  N   ALA A  1      -30.577  78.756  11.400  0.00  0.00    -0.244 NA
ATOM     32  C   UNK A  0      -29.426  78.298  11.076  0.00  0.00    +0.236 C 
BRANCH  31  34
ATOM     33  CB  ALA A  1      -32.924  78.927  10.902  0.00  0.00    +0.035 C 
ATOM     34  CA  ALA A  1      -31.520  79.311  10.430  0.00  0.00    +0.131 C 
BRANCH  34  35
ATOM     35  C   ALA A  1      -31.396  80.839  10.393  0.00  0.00    +0.182 C 
BRANCH  35  36
ATOM     36  O   ALA A  1      -32.094  81.411  11.500  0.00  0.00    -0.393 OA
ATOM     37  H   ALA A  1      -31.927  82.375  11.445  0.00  0.00    +0.209 HD
ENDBRANCH  35  36
ENDBRANCH  34  35
ENDBRANCH  31  34
BRANCH  32  38
ATOM     38  O   UNK A  0      -28.908  78.303   9.827  0.00  0.00    -0.491 OA
ATOM     39  H   UNK A  0      -28.482  77.450   9.617  0.00  0.00    +0.294 HD
ENDBRANCH  32  38
ENDBRANCH   1  32
TORSDOF 9
ENDMDL
MODEL 9
REMARK VINA RESULT:      -6.0     17.674     20.522
REMARK  Name = pdb/CHEMBL3927785.pdb
REMARK                            x       y       z     vdW  Elec       q    Type
REMARK                         _______ _______ _______ _____ _____    ______ ____
ROOT
ATOM      1  C   UNK A  0      -22.215  83.936  13.642  0.00  0.00    +0.149 A 
ATOM      2  N   UNK A  0      -21.138  83.592  14.364  0.00  0.00    -0.160 NA
ATOM      3  N   UNK A  0      -21.050  82.242  14.260  0.00  0.00    -0.218 N 
ATOM      4  C   UNK A  0      -22.192  81.707  13.639  0.00  0.00    +0.129 A 
ATOM      5  C   UNK A  0      -22.878  82.787  13.160  0.00  0.00    +0.078 A 
ENDROOT
BRANCH   3   6
ATOM      6  C   UNK A  0      -19.894  81.578  14.765  0.00  0.00    +0.067 A 
ATOM      7  C   UNK A  0      -19.972  80.729  15.872  0.00  0.00    +0.028 A 
ATOM      8  C   UNK A  0      -18.828  80.076  16.347  0.00  0.00    +0.002 A 
ATOM      9  C   UNK A  0      -17.604  80.250  15.705  0.00  0.00    +0.000 A 
ATOM     10  C   UNK A  0      -17.522  81.071  14.582  0.00  0.00    +0.002 A 
ATOM     11  C   UNK A  0      -18.662  81.727  14.106  0.00  0.00    +0.028 A 
ENDBRANCH   3   6
BRANCH   4  12
ATOM     12  N   UNK A  0      -22.600  80.365  13.562  0.00  0.00    -0.266 N 
ATOM     13  H   UNK A  0      -22.297  79.848  12.736  0.00  0.00    +0.157 HD
ATOM     14  C   UNK A  0      -23.304  79.675  14.621  0.00  0.00    +0.251 C 
ATOM     15  O   UNK A  0      -23.599  80.227  15.651  0.00  0.00    -0.270 OA
BRANCH  14  16
ATOM     16  C   UNK A  0      -23.640  78.245  14.420  0.00  0.00    +0.056 A 
ATOM     17  C   UNK A  0      -24.585  77.774  13.493  0.00  0.00    +0.054 A 
ATOM     18 CL   UNK A  0      -25.567  78.807  12.529  0.00  0.00    -0.083 Cl
ATOM     19  C   UNK A  0      -24.806  76.405  13.348  0.00  0.00    +0.041 A 
ATOM     20  C   UNK A  0      -24.111  75.470  14.129  0.00  0.00    +0.052 A 
ATOM     21 CL   UNK A  0      -24.396  73.821  13.686  0.00  0.00    -0.083 Cl
ATOM     22  C   UNK A  0      -23.208  75.880  15.127  0.00  0.00    +0.022 A 
ATOM     23  C   UNK A  0      -22.976  77.286  15.218  0.00  0.00    +0.026 A 
BRANCH  22  24
ATOM     24  C   UNK A  0      -22.471  74.974  16.055  0.00  0.00    +0.107 A 
ATOM     25  C   UNK A  0      -21.106  74.682  15.979  0.00  0.00    +0.149 A 
ATOM     26  F   UNK A  0      -20.331  75.151  14.993  0.00  0.00    -0.203 F 
ATOM     27  C   UNK A  0      -20.518  73.825  16.905  0.00  0.00    +0.042 A 
ATOM     28  C   UNK A  0      -21.310  73.214  17.865  0.00  0.00    +0.023 A 
ATOM     29  C   UNK A  0      -22.664  73.498  17.858  0.00  0.00    +0.111 A 
ATOM     30  N   UNK A  0      -23.255  74.363  16.993  0.00  0.00    -0.252 NA
ENDBRANCH  22  24
ENDBRANCH  14  16
ENDBRANCH   4  12
BRANCH   1  32
ATOM     31  N   ALA A  1      -21.795  86.282  13.613  0.00  0.00    -0.244 NA
ATOM     32  C   UNK A  0      -22.618  85.321  13.420  0.00  0.00    +0.236 C 
BRANCH  31  34
ATOM     33  CB  ALA A  1      -22.508  88.258  14.785  0.00  0.00    +0.035 C 
ATOM     34  CA  ALA A  1      -22.145  87.688  13.413  0.00  0.00    +0.131 C 
BRANCH  34  35
ATOM     35  C   ALA A  1      -20.942  88.452  12.846  0.00  0.00    +0.182 C 
BRANCH  35  36
ATOM     36  O   ALA A  1      -20.654  89.584  13.667  0.00  0.00    -0.393 OA
ATOM     37  H   ALA A  1      -20.680  90.357  13.065  0.00  0.00    +0.209 HD
ENDBRANCH  35  36
ENDBRANCH  34  35
ENDBRANCH  31  34
BRANCH  32  38
ATOM     38  O   UNK A  0      -23.885  85.457  12.968  0.00  0.00    -0.491 OA
ATOM     39  H   UNK A  0      -23.930  86.087  12.223  0.00  0.00    +0.294 HD
ENDBRANCH  32  38
ENDBRANCH   1  32
TORSDOF 9
ENDMDL
