MODEL 1
REMARK VINA RESULT:      -5.2      0.000      0.000
REMARK  Name = pdb/CHEMBL3671414.pdb
REMARK                            x       y       z     vdW  Elec       q    Type
REMARK                         _______ _______ _______ _____ _____    ______ ____
ROOT
ATOM      1  C   LIG    1      -20.274  76.856  30.603  0.00  0.00    +0.042 A 
ATOM      2  C   LIG    1      -20.300  77.701  31.725  0.00  0.00    +0.038 A 
ATOM      3  C   LIG    1      -19.085  78.127  32.293  0.00  0.00    +0.052 A 
ATOM      4  C   LIG    1      -17.912  77.760  31.654  0.00  0.00    +0.134 A 
ATOM      5  N   LIG    1      -17.856  76.933  30.587  0.00  0.00    -0.261 NA
ATOM      6  C   LIG    1      -19.036  76.492  30.106  0.00  0.00    +0.122 A 
ENDROOT
BRANCH   3   7
ATOM      7  N   LIG    1      -19.095  78.868  33.486  0.00  0.00    -0.283 N 
ATOM      8  H   LIG    1      -19.343  79.861  33.407  0.00  0.00    +0.155 HD
ATOM      9  C   LIG    1      -18.619  78.492  34.736  0.00  0.00    +0.239 C 
ATOM     10  O   LIG    1      -18.110  77.399  34.995  0.00  0.00    -0.273 OA
BRANCH   9  11
ATOM     11  C   LIG    1      -18.886  79.466  35.880  0.00  0.00    +0.239 C 
BRANCH  11  12
ATOM     12  N   LIG    1      -20.220  80.044  35.906  0.00  0.00    -0.262 N 
ATOM     13  N   LIG    1      -21.245  79.355  35.387  0.00  0.00    -0.176 NA
ATOM     14  C   LIG    1      -22.327  80.057  35.691  0.00  0.00    +0.066 A 
ATOM     15  C   LIG    1      -22.003  81.224  36.402  0.00  0.00    +0.044 A 
ATOM     16  C   LIG    1      -20.628  81.189  36.531  0.00  0.00    +0.109 A 
BRANCH  14  17
ATOM     17  C   LIG    1      -23.713  79.564  35.321  0.00  0.00    +0.040 C 
ATOM     18  C   LIG    1      -23.846  78.122  34.860  0.00  0.00    +0.010 C 
ATOM     19  C   LIG    1      -23.992  79.220  33.865  0.00  0.00    +0.010 C 
ENDBRANCH  14  17
ENDBRANCH  11  12
ENDBRANCH   9  11
ENDBRANCH   3   7
BRANCH   1  20
ATOM     20  C   LIG    1      -21.545  76.407  29.941  0.00  0.00    +0.197 C 
ATOM     21  O   LIG    1      -21.641  76.437  28.731  0.00  0.00    -0.287 OA
BRANCH  20  29
ATOM     22  N   LIG    1      -23.772  74.669  32.306  0.00  0.00    -0.323 N 
ATOM     23  C   LIG    1      -24.620  75.674  31.894  0.00  0.00    +0.145 A 
ATOM     24  N   LIG    1      -25.894  75.846  32.284  0.00  0.00    -0.218 NA
ATOM     25  C   LIG    1      -26.468  76.926  31.737  0.00  0.00    +0.223 A 
ATOM     26  N   LIG    1      -25.907  77.816  30.901  0.00  0.00    -0.243 NA
ATOM     27  C   LIG    1      -24.621  77.612  30.533  0.00  0.00    +0.124 A 
ATOM     28  C   LIG    1      -23.925  76.499  31.009  0.00  0.00    +0.048 A 
ATOM     29  C   LIG    1      -22.629  75.922  30.804  0.00  0.00    +0.051 A 
ATOM     30  C   LIG    1      -22.593  74.789  31.596  0.00  0.00    +0.100 A 
BRANCH  22  31
ATOM     31  C   LIG    1      -23.985  73.650  33.365  0.00  0.00    +0.065 C 
ATOM     32  C   LIG    1      -22.802  72.674  33.550  0.00  0.00    +0.036 C 
ATOM     33  C   LIG    1      -24.194  74.354  34.725  0.00  0.00    +0.036 C 
BRANCH  31  34
ATOM     34  C   LIG    1      -25.239  72.810  32.983  0.00  0.00    +0.187 C 
BRANCH  34  36
ATOM     35  C   LIG    1      -26.086  70.730  33.713  0.00  0.00    +0.194 C 
ATOM     36  O   LIG    1      -24.994  71.404  33.096  0.00  0.00    -0.381 OA
ENDBRANCH  34  36
ENDBRANCH  31  34
ENDBRANCH  22  31
ENDBRANCH  20  29
ENDBRANCH   1  20
TORSDOF 9
ENDMDL
MODEL 2
REMARK VINA RESULT:      -5.1      2.264      5.616
REMARK  Name = pdb/CHEMBL3671414.pdb
REMARK                            x       y       z     vdW  Elec       q    Type
REMARK                         _______ _______ _______ _____ _____    ______ ____
ROOT
ATOM      1  C   LIG    1      -23.348  80.116  35.470  0.00  0.00    +0.042 A 
ATOM      2  C   LIG    1      -22.286  79.509  34.778  0.00  0.00    +0.038 A 
ATOM      3  C   LIG    1      -21.020  80.124  34.785  0.00  0.00    +0.052 A 
ATOM      4  C   LIG    1      -20.862  81.262  35.558  0.00  0.00    +0.134 A 
ATOM      5  N   LIG    1      -21.868  81.878  36.216  0.00  0.00    -0.261 NA
ATOM      6  C   LIG    1      -23.083  81.297  36.137  0.00  0.00    +0.122 A 
ENDROOT
BRANCH   3   7
ATOM      7  N   LIG    1      -19.984  79.595  33.997  0.00  0.00    -0.283 N 
ATOM      8  H   LIG    1      -20.079  79.705  32.981  0.00  0.00    +0.155 HD
ATOM      9  C   LIG    1      -18.942  78.766  34.391  0.00  0.00    +0.239 C 
ATOM     10  O   LIG    1      -18.758  78.367  35.544  0.00  0.00    -0.273 OA
BRANCH   9  11
ATOM     11  C   LIG    1      -17.888  78.458  33.331  0.00  0.00    +0.239 C 
BRANCH  11  12
ATOM     12  N   LIG    1      -18.310  77.541  32.284  0.00  0.00    -0.262 N 
ATOM     13  N   LIG    1      -19.429  77.801  31.596  0.00  0.00    -0.176 NA
ATOM     14  C   LIG    1      -19.464  76.891  30.632  0.00  0.00    +0.066 A 
ATOM     15  C   LIG    1      -18.364  76.019  30.704  0.00  0.00    +0.044 A 
ATOM     16  C   LIG    1      -17.628  76.467  31.784  0.00  0.00    +0.109 A 
BRANCH  14  17
ATOM     17  C   LIG    1      -20.567  76.891  29.591  0.00  0.00    +0.040 C 
ATOM     18  C   LIG    1      -21.893  77.528  29.972  0.00  0.00    +0.010 C 
ATOM     19  C   LIG    1      -21.806  76.047  29.853  0.00  0.00    +0.010 C 
ENDBRANCH  14  17
ENDBRANCH  11  12
ENDBRANCH   9  11
ENDBRANCH   3   7
BRANCH   1  20
ATOM     20  C   LIG    1      -24.706  79.477  35.521  0.00  0.00    +0.197 C 
ATOM     21  O   LIG    1      -25.659  80.114  35.921  0.00  0.00    -0.287 OA
BRANCH  20  29
ATOM     22  N   LIG    1      -25.352  76.299  33.773  0.00  0.00    -0.323 N 
ATOM     23  C   LIG    1      -24.691  75.817  34.882  0.00  0.00    +0.145 A 
ATOM     24  N   LIG    1      -24.445  74.526  35.158  0.00  0.00    -0.218 NA
ATOM     25  C   LIG    1      -23.760  74.355  36.297  0.00  0.00    +0.223 A 
ATOM     26  N   LIG    1      -23.300  75.308  37.126  0.00  0.00    -0.243 NA
ATOM     27  C   LIG    1      -23.562  76.598  36.811  0.00  0.00    +0.124 A 
ATOM     28  C   LIG    1      -24.302  76.902  35.667  0.00  0.00    +0.048 A 
ATOM     29  C   LIG    1      -24.825  78.090  35.058  0.00  0.00    +0.051 A 
ATOM     30  C   LIG    1      -25.484  77.667  33.917  0.00  0.00    +0.100 A 
BRANCH  22  31
ATOM     31  C   LIG    1      -25.806  75.560  32.568  0.00  0.00    +0.065 C 
ATOM     32  C   LIG    1      -24.682  74.798  31.832  0.00  0.00    +0.036 C 
ATOM     33  C   LIG    1      -26.861  74.506  32.975  0.00  0.00    +0.036 C 
BRANCH  31  34
ATOM     34  C   LIG    1      -26.415  76.589  31.570  0.00  0.00    +0.187 C 
BRANCH  34  36
ATOM     35  C   LIG    1      -25.137  78.202  30.412  0.00  0.00    +0.194 C 
ATOM     36  O   LIG    1      -25.542  76.839  30.463  0.00  0.00    -0.381 OA
ENDBRANCH  34  36
ENDBRANCH  31  34
ENDBRANCH  22  31
ENDBRANCH  20  29
ENDBRANCH   1  20
TORSDOF 9
ENDMDL
MODEL 3
REMARK VINA RESULT:      -5.1      3.136      8.368
REMARK  Name = pdb/CHEMBL3671414.pdb
REMARK                            x       y       z     vdW  Elec       q    Type
REMARK                         _______ _______ _______ _____ _____    ______ ____
ROOT
ATOM      1  C   LIG    1      -25.974  78.464  35.252  0.00  0.00    +0.042 A 
ATOM      2  C   LIG    1      -25.200  78.292  34.091  0.00  0.00    +0.038 A 
ATOM      3  C   LIG    1      -25.573  77.309  33.156  0.00  0.00    +0.052 A 
ATOM      4  C   LIG    1      -26.750  76.614  33.387  0.00  0.00    +0.134 A 
ATOM      5  N   LIG    1      -27.502  76.745  34.501  0.00  0.00    -0.261 NA
ATOM      6  C   LIG    1      -27.081  77.651  35.408  0.00  0.00    +0.122 A 
ENDROOT
BRANCH   3   7
ATOM      7  N   LIG    1      -24.742  77.041  32.056  0.00  0.00    -0.283 N 
ATOM      8  H   LIG    1      -23.913  76.466  32.238  0.00  0.00    +0.155 HD
ATOM      9  C   LIG    1      -24.779  77.616  30.791  0.00  0.00    +0.239 C 
ATOM     10  O   LIG    1      -25.590  78.471  30.430  0.00  0.00    -0.273 OA
BRANCH   9  11
ATOM     11  C   LIG    1      -23.824  77.027  29.756  0.00  0.00    +0.239 C 
BRANCH  11  12
ATOM     12  N   LIG    1      -22.414  77.084  30.107  0.00  0.00    -0.262 N 
ATOM     13  N   LIG    1      -22.055  77.561  31.307  0.00  0.00    -0.176 NA
ATOM     14  C   LIG    1      -20.750  77.347  31.390  0.00  0.00    +0.066 A 
ATOM     15  C   LIG    1      -20.250  76.739  30.226  0.00  0.00    +0.044 A 
ATOM     16  C   LIG    1      -21.354  76.576  29.411  0.00  0.00    +0.109 A 
BRANCH  14  17
ATOM     17  C   LIG    1      -19.973  77.701  32.644  0.00  0.00    +0.040 C 
ATOM     18  C   LIG    1      -20.638  78.637  33.641  0.00  0.00    +0.010 C 
ATOM     19  C   LIG    1      -19.502  79.138  32.819  0.00  0.00    +0.010 C 
ENDBRANCH  14  17
ENDBRANCH  11  12
ENDBRANCH   9  11
ENDBRANCH   3   7
BRANCH   1  20
ATOM     20  C   LIG    1      -25.636  79.525  36.259  0.00  0.00    +0.197 C 
ATOM     21  O   LIG    1      -26.496  80.287  36.647  0.00  0.00    -0.287 OA
BRANCH  20  29
ATOM     22  N   LIG    1      -22.094  80.214  37.003  0.00  0.00    -0.323 N 
ATOM     23  C   LIG    1      -22.320  79.197  37.904  0.00  0.00    +0.145 A 
ATOM     24  N   LIG    1      -21.414  78.662  38.739  0.00  0.00    -0.218 NA
ATOM     25  C   LIG    1      -21.924  77.701  39.520  0.00  0.00    +0.223 A 
ATOM     26  N   LIG    1      -23.196  77.268  39.560  0.00  0.00    -0.243 NA
ATOM     27  C   LIG    1      -24.082  77.833  38.707  0.00  0.00    +0.124 A 
ATOM     28  C   LIG    1      -23.660  78.821  37.815  0.00  0.00    +0.048 A 
ATOM     29  C   LIG    1      -24.254  79.580  36.754  0.00  0.00    +0.051 A 
ATOM     30  C   LIG    1      -23.250  80.398  36.268  0.00  0.00    +0.100 A 
BRANCH  22  31
ATOM     31  C   LIG    1      -20.883  81.057  36.838  0.00  0.00    +0.065 C 
ATOM     32  C   LIG    1      -19.555  80.268  36.856  0.00  0.00    +0.036 C 
ATOM     33  C   LIG    1      -20.943  81.790  35.478  0.00  0.00    +0.036 C 
BRANCH  31  34
ATOM     34  C   LIG    1      -20.843  82.080  38.012  0.00  0.00    +0.187 C 
BRANCH  34  36
ATOM     35  C   LIG    1      -19.750  84.165  38.192  0.00  0.00    +0.194 C 
ATOM     36  O   LIG    1      -20.780  83.431  37.540  0.00  0.00    -0.381 OA
ENDBRANCH  34  36
ENDBRANCH  31  34
ENDBRANCH  22  31
ENDBRANCH  20  29
ENDBRANCH   1  20
TORSDOF 9
ENDMDL
MODEL 4
REMARK VINA RESULT:      -5.0     11.653     15.796
REMARK  Name = pdb/CHEMBL3671414.pdb
REMARK                            x       y       z     vdW  Elec       q    Type
REMARK                         _______ _______ _______ _____ _____    ______ ____
ROOT
ATOM      1  C   LIG    1      -32.857  73.634  28.999  0.00  0.00    +0.042 A 
ATOM      2  C   LIG    1      -33.881  73.582  28.038  0.00  0.00    +0.038 A 
ATOM      3  C   LIG    1      -34.524  72.356  27.783  0.00  0.00    +0.052 A 
ATOM      4  C   LIG    1      -34.171  71.270  28.568  0.00  0.00    +0.134 A 
ATOM      5  N   LIG    1      -33.178  71.286  29.484  0.00  0.00    -0.261 NA
ATOM      6  C   LIG    1      -32.540  72.461  29.658  0.00  0.00    +0.122 A 
ENDROOT
BRANCH   3   7
ATOM      7  N   LIG    1      -35.460  72.262  26.740  0.00  0.00    -0.283 N 
ATOM      8  H   LIG    1      -35.202  72.707  25.853  0.00  0.00    +0.155 HD
ATOM      9  C   LIG    1      -36.776  71.822  26.804  0.00  0.00    +0.239 C 
ATOM     10  O   LIG    1      -37.334  71.418  27.826  0.00  0.00    -0.273 OA
BRANCH   9  11
ATOM     11  C   LIG    1      -37.513  71.710  25.472  0.00  0.00    +0.239 C 
BRANCH  11  12
ATOM     12  N   LIG    1      -38.331  72.858  25.117  0.00  0.00    -0.262 N 
ATOM     13  N   LIG    1      -37.893  74.091  25.404  0.00  0.00    -0.176 NA
ATOM     14  C   LIG    1      -38.763  74.912  24.833  0.00  0.00    +0.066 A 
ATOM     15  C   LIG    1      -39.788  74.207  24.180  0.00  0.00    +0.044 A 
ATOM     16  C   LIG    1      -39.480  72.874  24.377  0.00  0.00    +0.109 A 
BRANCH  14  17
ATOM     17  C   LIG    1      -38.575  76.416  24.885  0.00  0.00    +0.040 C 
ATOM     18  C   LIG    1      -37.738  76.981  26.021  0.00  0.00    +0.010 C 
ATOM     19  C   LIG    1      -39.213  77.184  26.033  0.00  0.00    +0.010 C 
ENDBRANCH  14  17
ENDBRANCH  11  12
ENDBRANCH   9  11
ENDBRANCH   3   7
BRANCH   1  20
ATOM     20  C   LIG    1      -32.170  74.928  29.330  0.00  0.00    +0.197 C 
ATOM     21  O   LIG    1      -31.012  74.922  29.694  0.00  0.00    -0.287 OA
BRANCH  20  29
ATOM     22  N   LIG    1      -34.408  77.841  29.596  0.00  0.00    -0.323 N 
ATOM     23  C   LIG    1      -33.786  78.143  28.405  0.00  0.00    +0.145 A 
ATOM     24  N   LIG    1      -34.037  79.208  27.626  0.00  0.00    -0.218 NA
ATOM     25  C   LIG    1      -33.260  79.257  26.537  0.00  0.00    +0.223 A 
ATOM     26  N   LIG    1      -32.288  78.397  26.186  0.00  0.00    -0.243 NA
ATOM     27  C   LIG    1      -32.060  77.338  26.997  0.00  0.00    +0.124 A 
ATOM     28  C   LIG    1      -32.833  77.158  28.146  0.00  0.00    +0.048 A 
ATOM     29  C   LIG    1      -32.940  76.168  29.177  0.00  0.00    +0.051 A 
ATOM     30  C   LIG    1      -33.937  76.616  30.025  0.00  0.00    +0.100 A 
BRANCH  22  31
ATOM     31  C   LIG    1      -35.367  78.663  30.377  0.00  0.00    +0.065 C 
ATOM     32  C   LIG    1      -36.789  78.718  29.777  0.00  0.00    +0.036 C 
ATOM     33  C   LIG    1      -35.511  78.077  31.801  0.00  0.00    +0.036 C 
BRANCH  31  34
ATOM     34  C   LIG    1      -34.819  80.120  30.436  0.00  0.00    +0.187 C 
BRANCH  34  36
ATOM     35  C   LIG    1      -35.673  81.792  31.868  0.00  0.00    +0.194 C 
ATOM     36  O   LIG    1      -34.838  80.644  31.768  0.00  0.00    -0.381 OA
ENDBRANCH  34  36
ENDBRANCH  31  34
ENDBRANCH  22  31
ENDBRANCH  20  29
ENDBRANCH   1  20
TORSDOF 9
ENDMDL
MODEL 5
REMARK VINA RESULT:      -5.0      7.348     11.208
REMARK  Name = pdb/CHEMBL3671414.pdb
REMARK                            x       y       z     vdW  Elec       q    Type
REMARK                         _______ _______ _______ _____ _____    ______ ____
ROOT
ATOM      1  C   LIG    1      -32.461  73.990  29.406  0.00  0.00    +0.042 A 
ATOM      2  C   LIG    1      -31.632  74.942  30.023  0.00  0.00    +0.038 A 
ATOM      3  C   LIG    1      -30.585  74.504  30.856  0.00  0.00    +0.052 A 
ATOM      4  C   LIG    1      -30.368  73.139  30.952  0.00  0.00    +0.134 A 
ATOM      5  N   LIG    1      -31.160  72.203  30.387  0.00  0.00    -0.261 NA
ATOM      6  C   LIG    1      -32.192  72.656  29.647  0.00  0.00    +0.122 A 
ENDROOT
BRANCH   3   7
ATOM      7  N   LIG    1      -29.829  75.442  31.577  0.00  0.00    -0.283 N 
ATOM      8  H   LIG    1      -28.810  75.386  31.472  0.00  0.00    +0.155 HD
ATOM      9  C   LIG    1      -30.259  76.312  32.571  0.00  0.00    +0.239 C 
ATOM     10  O   LIG    1      -31.421  76.401  32.973  0.00  0.00    -0.273 OA
BRANCH   9  11
ATOM     11  C   LIG    1      -29.227  77.312  33.084  0.00  0.00    +0.239 C 
BRANCH  11  12
ATOM     12  N   LIG    1      -27.839  76.957  32.833  0.00  0.00    -0.262 N 
ATOM     13  N   LIG    1      -27.314  77.179  31.621  0.00  0.00    -0.176 NA
ATOM     14  C   LIG    1      -26.024  76.904  31.745  0.00  0.00    +0.066 A 
ATOM     15  C   LIG    1      -25.707  76.482  33.047  0.00  0.00    +0.044 A 
ATOM     16  C   LIG    1      -26.905  76.530  33.734  0.00  0.00    +0.109 A 
BRANCH  14  17
ATOM     17  C   LIG    1      -25.065  77.092  30.584  0.00  0.00    +0.040 C 
ATOM     18  C   LIG    1      -23.580  77.158  30.903  0.00  0.00    +0.010 C 
ATOM     19  C   LIG    1      -24.291  78.400  30.493  0.00  0.00    +0.010 C 
ENDBRANCH  14  17
ENDBRANCH  11  12
ENDBRANCH   9  11
ENDBRANCH   3   7
BRANCH   1  20
ATOM     20  C   LIG    1      -33.567  74.409  28.480  0.00  0.00    +0.197 C 
ATOM     21  O   LIG    1      -34.157  73.575  27.824  0.00  0.00    -0.287 OA
BRANCH  20  29
ATOM     22  N   LIG    1      -34.915  77.817  28.860  0.00  0.00    -0.323 N 
ATOM     23  C   LIG    1      -33.956  78.059  27.901  0.00  0.00    +0.145 A 
ATOM     24  N   LIG    1      -33.703  79.241  27.314  0.00  0.00    -0.218 NA
ATOM     25  C   LIG    1      -32.695  79.183  26.434  0.00  0.00    +0.223 A 
ATOM     26  N   LIG    1      -31.940  78.116  26.124  0.00  0.00    -0.243 NA
ATOM     27  C   LIG    1      -32.221  76.944  26.739  0.00  0.00    +0.124 A 
ATOM     28  C   LIG    1      -33.276  76.868  27.651  0.00  0.00    +0.048 A 
ATOM     29  C   LIG    1      -33.904  75.837  28.423  0.00  0.00    +0.051 A 
ATOM     30  C   LIG    1      -34.921  76.461  29.125  0.00  0.00    +0.100 A 
BRANCH  22  31
ATOM     31  C   LIG    1      -35.776  78.790  29.580  0.00  0.00    +0.065 C 
ATOM     32  C   LIG    1      -36.604  79.708  28.653  0.00  0.00    +0.036 C 
ATOM     33  C   LIG    1      -36.789  78.028  30.465  0.00  0.00    +0.036 C 
BRANCH  31  34
ATOM     34  C   LIG    1      -34.858  79.697  30.450  0.00  0.00    +0.187 C 
BRANCH  34  36
ATOM     35  C   LIG    1      -35.457  81.703  31.541  0.00  0.00    +0.194 C 
ATOM     36  O   LIG    1      -35.174  81.084  30.291  0.00  0.00    -0.381 OA
ENDBRANCH  34  36
ENDBRANCH  31  34
ENDBRANCH  22  31
ENDBRANCH  20  29
ENDBRANCH   1  20
TORSDOF 9
ENDMDL
MODEL 6
REMARK VINA RESULT:      -5.0     19.858     22.873
REMARK  Name = pdb/CHEMBL3671414.pdb
REMARK                            x       y       z     vdW  Elec       q    Type
REMARK                         _______ _______ _______ _____ _____    ______ ____
ROOT
ATOM      1  C   LIG    1      -20.470  87.163  13.530  0.00  0.00    +0.042 A 
ATOM      2  C   LIG    1      -20.089  85.840  13.812  0.00  0.00    +0.038 A 
ATOM      3  C   LIG    1      -18.801  85.403  13.450  0.00  0.00    +0.052 A 
ATOM      4  C   LIG    1      -17.933  86.338  12.908  0.00  0.00    +0.134 A 
ATOM      5  N   LIG    1      -18.278  87.609  12.607  0.00  0.00    -0.261 NA
ATOM      6  C   LIG    1      -19.540  87.977  12.909  0.00  0.00    +0.122 A 
ENDROOT
BRANCH   3   7
ATOM      7  N   LIG    1      -18.451  84.053  13.612  0.00  0.00    -0.283 N 
ATOM      8  H   LIG    1      -18.056  83.789  14.522  0.00  0.00    +0.155 HD
ATOM      9  C   LIG    1      -18.379  83.061  12.643  0.00  0.00    +0.239 C 
ATOM     10  O   LIG    1      -18.637  83.225  11.448  0.00  0.00    -0.273 OA
BRANCH   9  11
ATOM     11  C   LIG    1      -18.094  81.648  13.145  0.00  0.00    +0.239 C 
BRANCH  11  12
ATOM     12  N   LIG    1      -18.825  81.252  14.338  0.00  0.00    -0.262 N 
ATOM     13  N   LIG    1      -20.134  81.522  14.425  0.00  0.00    -0.176 NA
ATOM     14  C   LIG    1      -20.541  80.916  15.531  0.00  0.00    +0.066 A 
ATOM     15  C   LIG    1      -19.482  80.259  16.181  0.00  0.00    +0.044 A 
ATOM     16  C   LIG    1      -18.379  80.490  15.381  0.00  0.00    +0.109 A 
BRANCH  14  17
ATOM     17  C   LIG    1      -21.999  80.940  15.949  0.00  0.00    +0.040 C 
ATOM     18  C   LIG    1      -22.824  82.152  15.552  0.00  0.00    +0.010 C 
ATOM     19  C   LIG    1      -22.438  81.971  16.978  0.00  0.00    +0.010 C 
ENDBRANCH  14  17
ENDBRANCH  11  12
ENDBRANCH   9  11
ENDBRANCH   3   7
BRANCH   1  20
ATOM     20  C   LIG    1      -21.820  87.684  13.932  0.00  0.00    +0.197 C 
ATOM     21  O   LIG    1      -22.071  87.875  15.104  0.00  0.00    -0.287 OA
BRANCH  20  29
ATOM     22  N   LIG    1      -24.005  89.085  11.317  0.00  0.00    -0.323 N 
ATOM     23  C   LIG    1      -24.395  87.765  11.255  0.00  0.00    +0.145 A 
ATOM     24  N   LIG    1      -25.346  87.257  10.453  0.00  0.00    -0.218 NA
ATOM     25  C   LIG    1      -25.495  85.933  10.591  0.00  0.00    +0.223 A 
ATOM     26  N   LIG    1      -24.800  85.110  11.395  0.00  0.00    -0.243 NA
ATOM     27  C   LIG    1      -23.847  85.658  12.185  0.00  0.00    +0.124 A 
ATOM     28  C   LIG    1      -23.623  87.036  12.158  0.00  0.00    +0.048 A 
ATOM     29  C   LIG    1      -22.788  87.963  12.864  0.00  0.00    +0.051 A 
ATOM     30  C   LIG    1      -23.079  89.208  12.335  0.00  0.00    +0.100 A 
BRANCH  22  31
ATOM     31  C   LIG    1      -24.404  90.214  10.439  0.00  0.00    +0.065 C 
ATOM     32  C   LIG    1      -23.595  91.510  10.669  0.00  0.00    +0.036 C 
ATOM     33  C   LIG    1      -24.194  89.819   8.960  0.00  0.00    +0.036 C 
BRANCH  31  34
ATOM     34  C   LIG    1      -25.902  90.535  10.715  0.00  0.00    +0.187 C 
BRANCH  34  36
ATOM     35  C   LIG    1      -26.695  92.052  12.342  0.00  0.00    +0.194 C 
ATOM     36  O   LIG    1      -26.153  90.757  12.107  0.00  0.00    -0.381 OA
ENDBRANCH  34  36
ENDBRANCH  31  34
ENDBRANCH  22  31
ENDBRANCH  20  29
ENDBRANCH   1  20
TORSDOF 9
ENDMDL
MODEL 7
REMARK VINA RESULT:      -5.0     12.041     16.378
REMARK  Name = pdb/CHEMBL3671414.pdb
REMARK                            x       y       z     vdW  Elec       q    Type
REMARK                         _______ _______ _______ _____ _____    ______ ____
ROOT
ATOM      1  C   LIG    1      -35.739  81.247  28.994  0.00  0.00    +0.042 A 
ATOM      2  C   LIG    1      -36.798  80.686  28.261  0.00  0.00    +0.038 A 
ATOM      3  C   LIG    1      -37.482  81.481  27.323  0.00  0.00    +0.052 A 
ATOM      4  C   LIG    1      -37.012  82.765  27.103  0.00  0.00    +0.134 A 
ATOM      5  N   LIG    1      -36.010  83.337  27.805  0.00  0.00    -0.261 NA
ATOM      6  C   LIG    1      -35.417  82.568  28.741  0.00  0.00    +0.122 A 
ENDROOT
BRANCH   3   7
ATOM      7  N   LIG    1      -38.620  80.972  26.675  0.00  0.00    -0.283 N 
ATOM      8  H   LIG    1      -38.462  80.491  25.782  0.00  0.00    +0.155 HD
ATOM      9  C   LIG    1      -39.956  81.203  26.976  0.00  0.00    +0.239 C 
ATOM     10  O   LIG    1      -40.356  81.908  27.906  0.00  0.00    -0.273 OA
BRANCH   9  11
ATOM     11  C   LIG    1      -40.976  80.404  26.170  0.00  0.00    +0.239 C 
BRANCH  11  12
ATOM     12  N   LIG    1      -40.650  79.001  25.971  0.00  0.00    -0.262 N 
ATOM     13  N   LIG    1      -39.626  78.672  25.172  0.00  0.00    -0.176 NA
ATOM     14  C   LIG    1      -39.484  77.362  25.311  0.00  0.00    +0.066 A 
ATOM     15  C   LIG    1      -40.435  76.829  26.196  0.00  0.00    +0.044 A 
ATOM     16  C   LIG    1      -41.178  77.916  26.613  0.00  0.00    +0.109 A 
BRANCH  14  17
ATOM     17  C   LIG    1      -38.373  76.613  24.600  0.00  0.00    +0.040 C 
ATOM     18  C   LIG    1      -38.176  75.147  24.952  0.00  0.00    +0.010 C 
ATOM     19  C   LIG    1      -37.177  76.148  25.419  0.00  0.00    +0.010 C 
ENDBRANCH  14  17
ENDBRANCH  11  12
ENDBRANCH   9  11
ENDBRANCH   3   7
BRANCH   1  20
ATOM     20  C   LIG    1      -34.956  80.427  29.978  0.00  0.00    +0.197 C 
ATOM     21  O   LIG    1      -34.807  80.825  31.115  0.00  0.00    -0.287 OA
BRANCH  20  29
ATOM     22  N   LIG    1      -33.923  76.934  29.428  0.00  0.00    -0.323 N 
ATOM     23  C   LIG    1      -33.347  77.517  28.320  0.00  0.00    +0.145 A 
ATOM     24  N   LIG    1      -32.605  76.892  27.391  0.00  0.00    -0.218 NA
ATOM     25  C   LIG    1      -32.195  77.708  26.412  0.00  0.00    +0.223 A 
ATOM     26  N   LIG    1      -32.468  79.016  26.269  0.00  0.00    -0.243 NA
ATOM     27  C   LIG    1      -33.223  79.611  27.223  0.00  0.00    +0.124 A 
ATOM     28  C   LIG    1      -33.678  78.871  28.316  0.00  0.00    +0.048 A 
ATOM     29  C   LIG    1      -34.412  79.144  29.517  0.00  0.00    +0.051 A 
ATOM     30  C   LIG    1      -34.511  77.933  30.179  0.00  0.00    +0.100 A 
BRANCH  22  31
ATOM     31  C   LIG    1      -34.003  75.494  29.784  0.00  0.00    +0.065 C 
ATOM     32  C   LIG    1      -32.632  74.825  30.027  0.00  0.00    +0.036 C 
ATOM     33  C   LIG    1      -34.812  75.329  31.091  0.00  0.00    +0.036 C 
BRANCH  31  34
ATOM     34  C   LIG    1      -34.697  74.744  28.610  0.00  0.00    +0.187 C 
BRANCH  34  36
ATOM     35  C   LIG    1      -34.559  72.502  27.881  0.00  0.00    +0.194 C 
ATOM     36  O   LIG    1      -33.856  73.727  28.055  0.00  0.00    -0.381 OA
ENDBRANCH  34  36
ENDBRANCH  31  34
ENDBRANCH  22  31
ENDBRANCH  20  29
ENDBRANCH   1  20
TORSDOF 9
ENDMDL
MODEL 8
REMARK VINA RESULT:      -4.9     17.180     20.806
REMARK  Name = pdb/CHEMBL3671414.pdb
REMARK                            x       y       z     vdW  Elec       q    Type
REMARK                         _______ _______ _______ _____ _____    ______ ____
ROOT
ATOM      1  C   LIG    1      -22.669  82.219  14.448  0.00  0.00    +0.042 A 
ATOM      2  C   LIG    1      -22.775  80.870  14.070  0.00  0.00    +0.038 A 
ATOM      3  C   LIG    1      -22.702  79.872  15.060  0.00  0.00    +0.052 A 
ATOM      4  C   LIG    1      -22.619  80.280  16.381  0.00  0.00    +0.134 A 
ATOM      5  N   LIG    1      -22.496  81.568  16.771  0.00  0.00    -0.261 NA
ATOM      6  C   LIG    1      -22.505  82.496  15.792  0.00  0.00    +0.122 A 
ENDROOT
BRANCH   3   7
ATOM      7  N   LIG    1      -22.682  78.518  14.685  0.00  0.00    -0.283 N 
ATOM      8  H   LIG    1      -21.892  78.216  14.104  0.00  0.00    +0.155 HD
ATOM      9  C   LIG    1      -23.689  77.572  14.825  0.00  0.00    +0.239 C 
ATOM     10  O   LIG    1      -24.792  77.789  15.334  0.00  0.00    -0.273 OA
BRANCH   9  11
ATOM     11  C   LIG    1      -23.327  76.140  14.440  0.00  0.00    +0.239 C 
BRANCH  11  12
ATOM     12  N   LIG    1      -22.604  75.388  15.453  0.00  0.00    -0.262 N 
ATOM     13  N   LIG    1      -23.281  74.831  16.465  0.00  0.00    -0.176 NA
ATOM     14  C   LIG    1      -22.390  74.101  17.120  0.00  0.00    +0.066 A 
ATOM     15  C   LIG    1      -21.115  74.197  16.539  0.00  0.00    +0.044 A 
ATOM     16  C   LIG    1      -21.283  75.037  15.454  0.00  0.00    +0.109 A 
BRANCH  14  17
ATOM     17  C   LIG    1      -22.790  73.257  18.315  0.00  0.00    +0.040 C 
ATOM     18  C   LIG    1      -21.716  72.398  18.961  0.00  0.00    +0.010 C 
ATOM     19  C   LIG    1      -22.788  71.743  18.163  0.00  0.00    +0.010 C 
ENDBRANCH  14  17
ENDBRANCH  11  12
ENDBRANCH   9  11
ENDBRANCH   3   7
BRANCH   1  20
ATOM     20  C   LIG    1      -22.778  83.320  13.431  0.00  0.00    +0.197 C 
ATOM     21  O   LIG    1      -23.739  83.367  12.691  0.00  0.00    -0.287 OA
BRANCH  20  29
ATOM     22  N   LIG    1      -19.815  85.408  12.777  0.00  0.00    -0.323 N 
ATOM     23  C   LIG    1      -20.383  86.136  13.800  0.00  0.00    +0.145 A 
ATOM     24  N   LIG    1      -19.882  87.256  14.348  0.00  0.00    -0.218 NA
ATOM     25  C   LIG    1      -20.664  87.761  15.311  0.00  0.00    +0.223 A 
ATOM     26  N   LIG    1      -21.849  87.291  15.735  0.00  0.00    -0.243 NA
ATOM     27  C   LIG    1      -22.324  86.164  15.155  0.00  0.00    +0.124 A 
ATOM     28  C   LIG    1      -21.580  85.521  14.163  0.00  0.00    +0.048 A 
ATOM     29  C   LIG    1      -21.704  84.320  13.391  0.00  0.00    +0.051 A 
ATOM     30  C   LIG    1      -20.586  84.279  12.578  0.00  0.00    +0.100 A 
BRANCH  22  31
ATOM     31  C   LIG    1      -18.634  85.745  11.942  0.00  0.00    +0.065 C 
ATOM     32  C   LIG    1      -17.322  85.916  12.741  0.00  0.00    +0.036 C 
ATOM     33  C   LIG    1      -18.383  84.612  10.920  0.00  0.00    +0.036 C 
BRANCH  31  34
ATOM     34  C   LIG    1      -18.924  87.089  11.212  0.00  0.00    +0.187 C 
BRANCH  34  36
ATOM     35  C   LIG    1      -20.895  88.307  10.758  0.00  0.00    +0.194 C 
ATOM     36  O   LIG    1      -20.201  87.080  10.565  0.00  0.00    -0.381 OA
ENDBRANCH  34  36
ENDBRANCH  31  34
ENDBRANCH  22  31
ENDBRANCH  20  29
ENDBRANCH   1  20
TORSDOF 9
ENDMDL
MODEL 9
REMARK VINA RESULT:      -4.9     19.396     22.171
REMARK  Name = pdb/CHEMBL3671414.pdb
REMARK                            x       y       z     vdW  Elec       q    Type
REMARK                         _______ _______ _______ _____ _____    ______ ____
ROOT
ATOM      1  C   LIG    1      -20.568  87.329  13.274  0.00  0.00    +0.042 A 
ATOM      2  C   LIG    1      -20.100  86.050  13.621  0.00  0.00    +0.038 A 
ATOM      3  C   LIG    1      -18.764  85.707  13.339  0.00  0.00    +0.052 A 
ATOM      4  C   LIG    1      -17.945  86.691  12.810  0.00  0.00    +0.134 A 
ATOM      5  N   LIG    1      -18.373  87.920  12.448  0.00  0.00    -0.261 NA
ATOM      6  C   LIG    1      -19.673  88.195  12.673  0.00  0.00    +0.122 A 
ENDROOT
BRANCH   3   7
ATOM      7  N   LIG    1      -18.318  84.395  13.567  0.00  0.00    -0.283 N 
ATOM      8  H   LIG    1      -17.790  84.234  14.432  0.00  0.00    +0.155 HD
ATOM      9  C   LIG    1      -18.321  83.321  12.685  0.00  0.00    +0.239 C 
ATOM     10  O   LIG    1      -18.746  83.362  11.529  0.00  0.00    -0.273 OA
BRANCH   9  11
ATOM     11  C   LIG    1      -17.890  81.976  13.262  0.00  0.00    +0.239 C 
BRANCH  11  12
ATOM     12  N   LIG    1      -18.635  81.531  14.428  0.00  0.00    -0.262 N 
ATOM     13  N   LIG    1      -19.796  82.126  14.731  0.00  0.00    -0.176 NA
ATOM     14  C   LIG    1      -20.300  81.416  15.731  0.00  0.00    +0.066 A 
ATOM     15  C   LIG    1      -19.451  80.358  16.094  0.00  0.00    +0.044 A 
ATOM     16  C   LIG    1      -18.377  80.454  15.229  0.00  0.00    +0.109 A 
BRANCH  14  17
ATOM     17  C   LIG    1      -21.658  81.745  16.322  0.00  0.00    +0.040 C 
ATOM     18  C   LIG    1      -22.520  80.585  16.792  0.00  0.00    +0.010 C 
ATOM     19  C   LIG    1      -22.902  81.320  15.555  0.00  0.00    +0.010 C 
ENDBRANCH  14  17
ENDBRANCH  11  12
ENDBRANCH   9  11
ENDBRANCH   3   7
BRANCH   1  20
ATOM     20  C   LIG    1      -21.974  87.752  13.588  0.00  0.00    +0.197 C 
ATOM     21  O   LIG    1      -22.199  88.418  14.578  0.00  0.00    -0.287 OA
BRANCH  20  29
ATOM     22  N   LIG    1      -24.505  86.057  11.516  0.00  0.00    -0.323 N 
ATOM     23  C   LIG    1      -24.682  87.351  11.076  0.00  0.00    +0.145 A 
ATOM     24  N   LIG    1      -25.540  87.753  10.124  0.00  0.00    -0.218 NA
ATOM     25  C   LIG    1      -25.513  89.077   9.920  0.00  0.00    +0.223 A 
ATOM     26  N   LIG    1      -24.766  89.989  10.565  0.00  0.00    -0.243 NA
ATOM     27  C   LIG    1      -23.917  89.547  11.522  0.00  0.00    +0.124 A 
ATOM     28  C   LIG    1      -23.827  88.182  11.800  0.00  0.00    +0.048 A 
ATOM     29  C   LIG    1      -23.033  87.349  12.654  0.00  0.00    +0.051 A 
ATOM     30  C   LIG    1      -23.464  86.055  12.425  0.00  0.00    +0.100 A 
BRANCH  22  31
ATOM     31  C   LIG    1      -25.295  84.846  11.181  0.00  0.00    +0.065 C 
ATOM     32  C   LIG    1      -26.795  84.950  11.534  0.00  0.00    +0.036 C 
ATOM     33  C   LIG    1      -25.218  84.583   9.659  0.00  0.00    +0.036 C 
BRANCH  31  34
ATOM     34  C   LIG    1      -24.703  83.646  11.977  0.00  0.00    +0.187 C 
BRANCH  34  36
ATOM     35  C   LIG    1      -25.076  81.321  11.802  0.00  0.00    +0.194 C 
ATOM     36  O   LIG    1      -25.650  82.583  12.123  0.00  0.00    -0.381 OA
ENDBRANCH  34  36
ENDBRANCH  31  34
ENDBRANCH  22  31
ENDBRANCH  20  29
ENDBRANCH   1  20
TORSDOF 9
ENDMDL
