MODEL 1
REMARK VINA RESULT:      -7.3      0.000      0.000
REMARK  Name = pdb/CHEMBL3978304.pdb
REMARK                            x       y       z     vdW  Elec       q    Type
REMARK                         _______ _______ _______ _____ _____    ______ ____
ROOT
ATOM      1  C   LIG    1      -35.098  67.197  22.783  0.00  0.00    +0.149 A 
ATOM      2  N   LIG    1      -34.607  67.629  23.957  0.00  0.00    -0.160 NA
ATOM      3  N   LIG    1      -35.522  68.543  24.389  0.00  0.00    -0.218 N 
ATOM      4  C   LIG    1      -36.521  68.771  23.431  0.00  0.00    +0.129 A 
ATOM      5  C   LIG    1      -36.330  67.804  22.476  0.00  0.00    +0.078 A 
ENDROOT
BRANCH   3   6
ATOM      6  C   LIG    1      -35.403  69.104  25.687  0.00  0.00    +0.067 A 
ATOM      7  C   LIG    1      -34.538  70.178  25.927  0.00  0.00    +0.028 A 
ATOM      8  C   LIG    1      -34.467  70.742  27.205  0.00  0.00    +0.002 A 
ATOM      9  C   LIG    1      -35.242  70.230  28.245  0.00  0.00    +0.000 A 
ATOM     10  C   LIG    1      -36.115  69.170  28.006  0.00  0.00    +0.002 A 
ATOM     11  C   LIG    1      -36.212  68.618  26.726  0.00  0.00    +0.028 A 
ENDBRANCH   3   6
BRANCH   4  12
ATOM     12  N   LIG    1      -37.422  69.840  23.362  0.00  0.00    -0.266 N 
ATOM     13  H   LIG    1      -37.149  70.649  22.827  0.00  0.00    +0.157 HD
ATOM     14  C   LIG    1      -38.727  69.787  23.996  0.00  0.00    +0.251 C 
ATOM     15  O   LIG    1      -39.061  68.842  24.665  0.00  0.00    -0.270 OA
BRANCH  14  16
ATOM     16  C   LIG    1      -39.650  70.919  23.786  0.00  0.00    +0.056 A 
ATOM     17  C   LIG    1      -40.867  70.833  23.112  0.00  0.00    +0.056 A 
ATOM     18 CL   LIG    1      -41.412  69.390  22.342  0.00  0.00    -0.083 Cl
ATOM     19  C   LIG    1      -41.675  71.962  22.971  0.00  0.00    +0.059 A 
ATOM     20  C   LIG    1      -41.243  73.197  23.453  0.00  0.00    +0.134 A 
ATOM     21  F   LIG    1      -42.054  74.248  23.258  0.00  0.00    -0.205 F 
ATOM     22  C   LIG    1      -39.995  73.359  24.061  0.00  0.00    +0.036 A 
ATOM     23  C   LIG    1      -39.220  72.192  24.245  0.00  0.00    +0.027 A 
BRANCH  22  24
ATOM     24  C   LIG    1      -39.447  74.687  24.402  0.00  0.00    +0.074 A 
ATOM     25  N   LIG    1      -38.259  74.650  25.060  0.00  0.00    -0.255 NA
ATOM     26  C   LIG    1      -37.637  75.824  25.314  0.00  0.00    +0.111 A 
ATOM     27  C   LIG    1      -38.150  77.058  24.957  0.00  0.00    +0.020 A 
ATOM     28  C   LIG    1      -39.378  77.090  24.312  0.00  0.00    +0.004 A 
ATOM     29  C   LIG    1      -40.039  75.894  24.033  0.00  0.00    +0.028 A 
ENDBRANCH  22  24
ENDBRANCH  14  16
ENDBRANCH   4  12
BRANCH   1  31
ATOM     30  N   LIG    1      -33.698  66.707  20.940  0.00  0.00    -0.246 NA
ATOM     31  C   LIG    1      -34.369  66.263  21.941  0.00  0.00    +0.236 C 
BRANCH  30  36
ATOM     32  C   LIG    1      -31.880  66.455  16.526  0.00  0.00    +0.041 C 
ATOM     33  C   LIG    1      -32.651  67.295  17.550  0.00  0.00    +0.063 C 
ATOM     34  C   LIG    1      -31.787  67.603  18.782  0.00  0.00    +0.036 C 
ATOM     35  C   LIG    1      -31.612  66.396  19.709  0.00  0.00    +0.029 C 
ATOM     36  C   LIG    1      -32.955  65.752  20.112  0.00  0.00    +0.109 C 
ATOM     37  C   LIG    1      -33.748  65.398  18.850  0.00  0.00    +0.029 C 
ATOM     38  C   LIG    1      -33.964  66.619  17.960  0.00  0.00    +0.036 C 
BRANCH  33  39
ATOM     39  O   LIG    1      -32.969  68.542  16.922  0.00  0.00    -0.389 OA
ATOM     40  H   LIG    1      -32.399  68.635  16.140  0.00  0.00    +0.210 HD
ENDBRANCH  33  39
ENDBRANCH  30  36
BRANCH  31  41
ATOM     41  O   LIG    1      -34.458  64.965  22.305  0.00  0.00    -0.491 OA
ATOM     42  H   LIG    1      -35.164  64.533  21.788  0.00  0.00    +0.294 HD
ENDBRANCH  31  41
ENDBRANCH   1  31
TORSDOF 8
ENDMDL
MODEL 2
REMARK VINA RESULT:      -6.9     17.779     21.493
REMARK  Name = pdb/CHEMBL3978304.pdb
REMARK                            x       y       z     vdW  Elec       q    Type
REMARK                         _______ _______ _______ _____ _____    ______ ____
ROOT
ATOM      1  C   LIG    1      -22.006  82.555  15.438  0.00  0.00    +0.149 A 
ATOM      2  N   LIG    1      -20.753  82.187  15.754  0.00  0.00    -0.160 NA
ATOM      3  N   LIG    1      -20.749  80.832  15.599  0.00  0.00    -0.218 N 
ATOM      4  C   LIG    1      -22.029  80.340  15.303  0.00  0.00    +0.129 A 
ATOM      5  C   LIG    1      -22.793  81.453  15.054  0.00  0.00    +0.078 A 
ENDROOT
BRANCH   3   6
ATOM      6  C   LIG    1      -19.532  80.111  15.706  0.00  0.00    +0.067 A 
ATOM      7  C   LIG    1      -19.421  79.018  16.573  0.00  0.00    +0.028 A 
ATOM      8  C   LIG    1      -18.224  78.296  16.632  0.00  0.00    +0.002 A 
ATOM      9  C   LIG    1      -17.136  78.669  15.842  0.00  0.00    +0.000 A 
ATOM     10  C   LIG    1      -17.249  79.748  14.968  0.00  0.00    +0.002 A 
ATOM     11  C   LIG    1      -18.450  80.458  14.882  0.00  0.00    +0.028 A 
ENDBRANCH   3   6
BRANCH   4  12
ATOM     12  N   LIG    1      -22.488  79.020  15.394  0.00  0.00    -0.266 N 
ATOM     13  H   LIG    1      -23.052  78.774  16.191  0.00  0.00    +0.157 HD
ATOM     14  C   LIG    1      -22.208  78.038  14.363  0.00  0.00    +0.251 C 
ATOM     15  O   LIG    1      -21.510  78.302  13.417  0.00  0.00    -0.270 OA
BRANCH  14  16
ATOM     16  C   LIG    1      -22.816  76.699  14.493  0.00  0.00    +0.056 A 
ATOM     17  C   LIG    1      -23.944  76.272  13.795  0.00  0.00    +0.056 A 
ATOM     18 CL   LIG    1      -24.844  77.302  12.745  0.00  0.00    -0.083 Cl
ATOM     19  C   LIG    1      -24.441  74.982  13.982  0.00  0.00    +0.059 A 
ATOM     20  C   LIG    1      -23.847  74.130  14.913  0.00  0.00    +0.134 A 
ATOM     21  F   LIG    1      -24.392  72.914  15.066  0.00  0.00    -0.205 F 
ATOM     22  C   LIG    1      -22.766  74.535  15.702  0.00  0.00    +0.036 A 
ATOM     23  C   LIG    1      -22.244  75.825  15.454  0.00  0.00    +0.027 A 
BRANCH  22  24
ATOM     24  C   LIG    1      -22.251  73.718  16.818  0.00  0.00    +0.074 A 
ATOM     25  N   LIG    1      -20.955  73.335  16.680  0.00  0.00    -0.255 NA
ATOM     26  C   LIG    1      -20.375  72.674  17.708  0.00  0.00    +0.111 A 
ATOM     27  C   LIG    1      -21.030  72.355  18.883  0.00  0.00    +0.020 A 
ATOM     28  C   LIG    1      -22.363  72.721  19.005  0.00  0.00    +0.004 A 
ATOM     29  C   LIG    1      -22.985  73.407  17.962  0.00  0.00    +0.028 A 
ENDBRANCH  22  24
ENDBRANCH  14  16
ENDBRANCH   4  12
BRANCH   1  31
ATOM     30  N   LIG    1      -22.176  84.771  14.630  0.00  0.00    -0.246 NA
ATOM     31  C   LIG    1      -22.458  83.930  15.558  0.00  0.00    +0.236 C 
BRANCH  30  36
ATOM     32  C   LIG    1      -20.918  89.149  13.180  0.00  0.00    +0.041 C 
ATOM     33  C   LIG    1      -20.592  87.652  13.172  0.00  0.00    +0.063 C 
ATOM     34  C   LIG    1      -21.702  86.843  12.486  0.00  0.00    +0.036 C 
ATOM     35  C   LIG    1      -22.960  86.698  13.350  0.00  0.00    +0.029 C 
ATOM     36  C   LIG    1      -22.656  86.151  14.760  0.00  0.00    +0.109 C 
ATOM     37  C   LIG    1      -21.597  87.031  15.430  0.00  0.00    +0.029 C 
ATOM     38  C   LIG    1      -20.328  87.125  14.588  0.00  0.00    +0.036 C 
BRANCH  33  39
ATOM     39  O   LIG    1      -19.395  87.483  12.403  0.00  0.00    -0.389 OA
ATOM     40  H   LIG    1      -18.677  87.949  12.863  0.00  0.00    +0.210 HD
ENDBRANCH  33  39
ENDBRANCH  30  36
BRANCH  31  41
ATOM     41  O   LIG    1      -23.170  84.210  16.672  0.00  0.00    -0.491 OA
ATOM     42  H   LIG    1      -23.582  85.090  16.580  0.00  0.00    +0.294 HD
ENDBRANCH  31  41
ENDBRANCH   1  31
TORSDOF 8
ENDMDL
MODEL 3
REMARK VINA RESULT:      -6.9     15.785     19.961
REMARK  Name = pdb/CHEMBL3978304.pdb
REMARK                            x       y       z     vdW  Elec       q    Type
REMARK                         _______ _______ _______ _____ _____    ______ ____
ROOT
ATOM      1  C   LIG    1      -24.136  78.783  34.251  0.00  0.00    +0.149 A 
ATOM      2  N   LIG    1      -23.039  78.765  33.476  0.00  0.00    -0.160 NA
ATOM      3  N   LIG    1      -23.183  77.644  32.713  0.00  0.00    -0.218 N 
ATOM      4  C   LIG    1      -24.309  76.899  33.093  0.00  0.00    +0.129 A 
ATOM      5  C   LIG    1      -24.993  77.703  33.969  0.00  0.00    +0.078 A 
ENDROOT
BRANCH   3   6
ATOM      6  C   LIG    1      -22.268  77.382  31.660  0.00  0.00    +0.067 A 
ATOM      7  C   LIG    1      -22.727  77.047  30.380  0.00  0.00    +0.028 A 
ATOM      8  C   LIG    1      -21.808  76.834  29.346  0.00  0.00    +0.002 A 
ATOM      9  C   LIG    1      -20.439  76.940  29.588  0.00  0.00    +0.000 A 
ATOM     10  C   LIG    1      -19.981  77.287  30.858  0.00  0.00    +0.002 A 
ATOM     11  C   LIG    1      -20.892  77.529  31.889  0.00  0.00    +0.028 A 
ENDBRANCH   3   6
BRANCH   4  12
ATOM     12  N   LIG    1      -24.604  75.565  32.786  0.00  0.00    -0.266 N 
ATOM     13  H   LIG    1      -24.171  74.848  33.345  0.00  0.00    +0.157 HD
ATOM     14  C   LIG    1      -25.534  75.208  31.730  0.00  0.00    +0.251 C 
ATOM     15  O   LIG    1      -26.039  76.049  31.029  0.00  0.00    -0.270 OA
BRANCH  14  16
ATOM     16  C   LIG    1      -25.862  73.782  31.542  0.00  0.00    +0.056 A 
ATOM     17  C   LIG    1      -26.992  73.155  32.064  0.00  0.00    +0.056 A 
ATOM     18 CL   LIG    1      -28.120  73.958  33.091  0.00  0.00    -0.083 Cl
ATOM     19  C   LIG    1      -27.218  71.799  31.825  0.00  0.00    +0.059 A 
ATOM     20  C   LIG    1      -26.284  71.048  31.112  0.00  0.00    +0.134 A 
ATOM     21  F   LIG    1      -26.547  69.742  30.944  0.00  0.00    -0.205 F 
ATOM     22  C   LIG    1      -25.092  71.604  30.639  0.00  0.00    +0.036 A 
ATOM     23  C   LIG    1      -24.913  72.991  30.842  0.00  0.00    +0.027 A 
BRANCH  22  24
ATOM     24  C   LIG    1      -24.014  70.785  30.052  0.00  0.00    +0.074 A 
ATOM     25  N   LIG    1      -23.069  70.382  30.942  0.00  0.00    -0.255 NA
ATOM     26  C   LIG    1      -22.105  69.539  30.507  0.00  0.00    +0.111 A 
ATOM     27  C   LIG    1      -22.019  69.077  29.206  0.00  0.00    +0.020 A 
ATOM     28  C   LIG    1      -22.969  69.516  28.296  0.00  0.00    +0.004 A 
ATOM     29  C   LIG    1      -23.977  70.382  28.718  0.00  0.00    +0.028 A 
ENDBRANCH  22  24
ENDBRANCH  14  16
ENDBRANCH   4  12
BRANCH   1  31
ATOM     30  N   LIG    1      -23.328  80.471  35.698  0.00  0.00    -0.246 NA
ATOM     31  C   LIG    1      -24.332  79.786  35.285  0.00  0.00    +0.236 C 
BRANCH  30  36
ATOM     32  C   LIG    1      -20.823  82.738  39.080  0.00  0.00    +0.041 C 
ATOM     33  C   LIG    1      -20.811  81.698  37.954  0.00  0.00    +0.063 C 
ATOM     34  C   LIG    1      -21.135  82.341  36.598  0.00  0.00    +0.036 C 
ATOM     35  C   LIG    1      -22.619  82.688  36.438  0.00  0.00    +0.029 C 
ATOM     36  C   LIG    1      -23.548  81.490  36.729  0.00  0.00    +0.109 C 
ATOM     37  C   LIG    1      -23.235  80.929  38.120  0.00  0.00    +0.029 C 
ATOM     38  C   LIG    1      -21.766  80.536  38.251  0.00  0.00    +0.036 C 
BRANCH  33  39
ATOM     39  O   LIG    1      -19.481  81.173  37.877  0.00  0.00    -0.389 OA
ATOM     40  H   LIG    1      -19.037  81.595  37.121  0.00  0.00    +0.210 HD
ENDBRANCH  33  39
ENDBRANCH  30  36
BRANCH  31  41
ATOM     41  O   LIG    1      -25.601  79.920  35.728  0.00  0.00    -0.491 OA
ATOM     42  H   LIG    1      -25.642  80.648  36.376  0.00  0.00    +0.294 HD
ENDBRANCH  31  41
ENDBRANCH   1  31
TORSDOF 8
ENDMDL
MODEL 4
REMARK VINA RESULT:      -6.9      8.405     14.152
REMARK  Name = pdb/CHEMBL3978304.pdb
REMARK                            x       y       z     vdW  Elec       q    Type
REMARK                         _______ _______ _______ _____ _____    ______ ____
ROOT
ATOM      1  C   LIG    1      -35.019  81.902  29.754  0.00  0.00    +0.149 A 
ATOM      2  N   LIG    1      -34.395  80.714  29.817  0.00  0.00    -0.160 NA
ATOM      3  N   LIG    1      -34.797  80.062  28.688  0.00  0.00    -0.218 N 
ATOM      4  C   LIG    1      -35.765  80.792  27.984  0.00  0.00    +0.129 A 
ATOM      5  C   LIG    1      -35.792  82.026  28.585  0.00  0.00    +0.078 A 
ENDROOT
BRANCH   3   6
ATOM      6  C   LIG    1      -34.210  78.816  28.344  0.00  0.00    +0.067 A 
ATOM      7  C   LIG    1      -34.811  77.611  28.728  0.00  0.00    +0.028 A 
ATOM      8  C   LIG    1      -34.237  76.395  28.342  0.00  0.00    +0.002 A 
ATOM      9  C   LIG    1      -33.063  76.377  27.589  0.00  0.00    +0.000 A 
ATOM     10  C   LIG    1      -32.472  77.576  27.194  0.00  0.00    +0.002 A 
ATOM     11  C   LIG    1      -33.053  78.795  27.551  0.00  0.00    +0.028 A 
ENDBRANCH   3   6
BRANCH   4  12
ATOM     12  N   LIG    1      -36.637  80.333  26.989  0.00  0.00    -0.266 N 
ATOM     13  H   LIG    1      -36.445  80.602  26.037  0.00  0.00    +0.157 HD
ATOM     14  C   LIG    1      -37.758  79.464  27.293  0.00  0.00    +0.251 C 
ATOM     15  O   LIG    1      -38.023  79.155  28.427  0.00  0.00    -0.270 OA
BRANCH  14  16
ATOM     16  C   LIG    1      -38.565  78.948  26.169  0.00  0.00    +0.056 A 
ATOM     17  C   LIG    1      -39.489  79.701  25.448  0.00  0.00    +0.056 A 
ATOM     18 CL   LIG    1      -39.883  81.333  25.843  0.00  0.00    -0.083 Cl
ATOM     19  C   LIG    1      -40.201  79.123  24.396  0.00  0.00    +0.059 A 
ATOM     20  C   LIG    1      -40.035  77.771  24.098  0.00  0.00    +0.134 A 
ATOM     21  F   LIG    1      -40.772  77.270  23.094  0.00  0.00    -0.205 F 
ATOM     22  C   LIG    1      -39.186  76.947  24.843  0.00  0.00    +0.036 A 
ATOM     23  C   LIG    1      -38.433  77.568  25.865  0.00  0.00    +0.027 A 
BRANCH  22  24
ATOM     24  C   LIG    1      -39.144  75.483  24.662  0.00  0.00    +0.074 A 
ATOM     25  N   LIG    1      -37.964  74.908  25.014  0.00  0.00    -0.255 NA
ATOM     26  C   LIG    1      -37.880  73.559  24.980  0.00  0.00    +0.111 A 
ATOM     27  C   LIG    1      -38.920  72.734  24.592  0.00  0.00    +0.020 A 
ATOM     28  C   LIG    1      -40.112  73.329  24.204  0.00  0.00    +0.004 A 
ATOM     29  C   LIG    1      -40.228  74.718  24.234  0.00  0.00    +0.028 A 
ENDBRANCH  22  24
ENDBRANCH  14  16
ENDBRANCH   4  12
BRANCH   1  31
ATOM     30  N   LIG    1      -34.099  83.856  30.719  0.00  0.00    -0.246 NA
ATOM     31  C   LIG    1      -34.925  82.878  30.827  0.00  0.00    +0.236 C 
BRANCH  30  36
ATOM     32  C   LIG    1      -31.199  87.360  32.188  0.00  0.00    +0.041 C 
ATOM     33  C   LIG    1      -31.462  86.262  31.152  0.00  0.00    +0.063 C 
ATOM     34  C   LIG    1      -32.753  86.535  30.367  0.00  0.00    +0.036 C 
ATOM     35  C   LIG    1      -34.021  86.253  31.180  0.00  0.00    +0.029 C 
ATOM     36  C   LIG    1      -34.030  84.841  31.802  0.00  0.00    +0.109 C 
ATOM     37  C   LIG    1      -32.758  84.643  32.634  0.00  0.00    +0.029 C 
ATOM     38  C   LIG    1      -31.500  84.873  31.800  0.00  0.00    +0.036 C 
BRANCH  33  39
ATOM     39  O   LIG    1      -30.375  86.290  30.221  0.00  0.00    -0.389 OA
ATOM     40  H   LIG    1      -30.105  87.217  30.105  0.00  0.00    +0.210 HD
ENDBRANCH  33  39
ENDBRANCH  30  36
BRANCH  31  41
ATOM     41  O   LIG    1      -35.751  82.669  31.875  0.00  0.00    -0.491 OA
ATOM     42  H   LIG    1      -35.456  81.879  32.366  0.00  0.00    +0.294 HD
ENDBRANCH  31  41
ENDBRANCH   1  31
TORSDOF 8
ENDMDL
MODEL 5
REMARK VINA RESULT:      -6.9      5.043     11.022
REMARK  Name = pdb/CHEMBL3978304.pdb
REMARK                            x       y       z     vdW  Elec       q    Type
REMARK                         _______ _______ _______ _____ _____    ______ ____
ROOT
ATOM      1  C   LIG    1      -38.265  78.252  26.251  0.00  0.00    +0.149 A 
ATOM      2  N   LIG    1      -37.320  77.877  27.129  0.00  0.00    -0.160 NA
ATOM      3  N   LIG    1      -36.866  76.684  26.648  0.00  0.00    -0.218 N 
ATOM      4  C   LIG    1      -37.609  76.256  25.539  0.00  0.00    +0.129 A 
ATOM      5  C   LIG    1      -38.398  77.326  25.199  0.00  0.00    +0.078 A 
ENDROOT
BRANCH   3   6
ATOM      6  C   LIG    1      -35.744  76.059  27.251  0.00  0.00    +0.067 A 
ATOM      7  C   LIG    1      -35.872  74.821  27.891  0.00  0.00    +0.028 A 
ATOM      8  C   LIG    1      -34.744  74.203  28.443  0.00  0.00    +0.002 A 
ATOM      9  C   LIG    1      -33.496  74.821  28.370  0.00  0.00    +0.000 A 
ATOM     10  C   LIG    1      -33.364  76.047  27.721  0.00  0.00    +0.002 A 
ATOM     11  C   LIG    1      -34.479  76.658  27.143  0.00  0.00    +0.028 A 
ENDBRANCH   3   6
BRANCH   4  12
ATOM     12  N   LIG    1      -37.667  74.972  24.983  0.00  0.00    -0.266 N 
ATOM     13  H   LIG    1      -37.040  74.761  24.224  0.00  0.00    +0.157 HD
ATOM     14  C   LIG    1      -38.562  73.952  25.498  0.00  0.00    +0.251 C 
ATOM     15  O   LIG    1      -39.342  74.193  26.385  0.00  0.00    -0.270 OA
BRANCH  14  16
ATOM     16  C   LIG    1      -38.485  72.598  24.917  0.00  0.00    +0.056 A 
ATOM     17  C   LIG    1      -39.436  72.050  24.058  0.00  0.00    +0.056 A 
ATOM     18 CL   LIG    1      -40.895  72.864  23.633  0.00  0.00    -0.083 Cl
ATOM     19  C   LIG    1      -39.270  70.759  23.555  0.00  0.00    +0.059 A 
ATOM     20  C   LIG    1      -38.181  69.986  23.956  0.00  0.00    +0.134 A 
ATOM     21  F   LIG    1      -38.097  68.742  23.459  0.00  0.00    -0.205 F 
ATOM     22  C   LIG    1      -37.243  70.452  24.881  0.00  0.00    +0.036 A 
ATOM     23  C   LIG    1      -37.400  71.783  25.331  0.00  0.00    +0.027 A 
BRANCH  22  24
ATOM     24  C   LIG    1      -36.198  69.582  25.456  0.00  0.00    +0.074 A 
ATOM     25  N   LIG    1      -34.929  70.029  25.266  0.00  0.00    -0.255 NA
ATOM     26  C   LIG    1      -33.921  69.347  25.854  0.00  0.00    +0.111 A 
ATOM     27  C   LIG    1      -34.107  68.213  26.623  0.00  0.00    +0.020 A 
ATOM     28  C   LIG    1      -35.402  67.744  26.788  0.00  0.00    +0.004 A 
ATOM     29  C   LIG    1      -36.462  68.431  26.197  0.00  0.00    +0.028 A 
ENDBRANCH  22  24
ENDBRANCH  14  16
ENDBRANCH   4  12
BRANCH   1  31
ATOM     30  N   LIG    1      -39.208  80.280  25.480  0.00  0.00    -0.246 NA
ATOM     31  C   LIG    1      -39.068  79.447  26.447  0.00  0.00    +0.236 C 
BRANCH  30  36
ATOM     32  C   LIG    1      -40.898  83.958  22.937  0.00  0.00    +0.041 C 
ATOM     33  C   LIG    1      -40.063  82.673  22.935  0.00  0.00    +0.063 C 
ATOM     34  C   LIG    1      -40.922  81.450  23.288  0.00  0.00    +0.036 C 
ATOM     35  C   LIG    1      -41.275  81.374  24.777  0.00  0.00    +0.029 C 
ATOM     36  C   LIG    1      -40.036  81.471  25.691  0.00  0.00    +0.109 C 
ATOM     37  C   LIG    1      -39.251  82.742  25.350  0.00  0.00    +0.029 C 
ATOM     38  C   LIG    1      -38.857  82.783  23.876  0.00  0.00    +0.036 C 
BRANCH  33  39
ATOM     39  O   LIG    1      -39.574  82.488  21.603  0.00  0.00    -0.389 OA
ATOM     40  H   LIG    1      -40.341  82.368  21.017  0.00  0.00    +0.210 HD
ENDBRANCH  33  39
ENDBRANCH  30  36
BRANCH  31  41
ATOM     41  O   LIG    1      -39.624  79.576  27.672  0.00  0.00    -0.491 OA
ATOM     42  H   LIG    1      -39.158  78.993  28.301  0.00  0.00    +0.294 HD
ENDBRANCH  31  41
ENDBRANCH   1  31
TORSDOF 8
ENDMDL
MODEL 6
REMARK VINA RESULT:      -6.8      4.679      6.771
REMARK  Name = pdb/CHEMBL3978304.pdb
REMARK                            x       y       z     vdW  Elec       q    Type
REMARK                         _______ _______ _______ _____ _____    ______ ____
ROOT
ATOM      1  C   LIG    1      -37.026  69.963  24.662  0.00  0.00    +0.149 A 
ATOM      2  N   LIG    1      -36.596  68.900  25.362  0.00  0.00    -0.160 NA
ATOM      3  N   LIG    1      -35.778  69.431  26.316  0.00  0.00    -0.218 N 
ATOM      4  C   LIG    1      -35.602  70.811  26.137  0.00  0.00    +0.129 A 
ATOM      5  C   LIG    1      -36.515  71.169  25.177  0.00  0.00    +0.078 A 
ENDROOT
BRANCH   3   6
ATOM      6  C   LIG    1      -35.256  68.602  27.342  0.00  0.00    +0.067 A 
ATOM      7  C   LIG    1      -34.261  67.659  27.063  0.00  0.00    +0.028 A 
ATOM      8  C   LIG    1      -33.731  66.880  28.098  0.00  0.00    +0.002 A 
ATOM      9  C   LIG    1      -34.200  67.030  29.403  0.00  0.00    +0.000 A 
ATOM     10  C   LIG    1      -35.181  67.979  29.685  0.00  0.00    +0.002 A 
ATOM     11  C   LIG    1      -35.696  68.779  28.663  0.00  0.00    +0.028 A 
ENDBRANCH   3   6
BRANCH   4  12
ATOM     12  N   LIG    1      -34.611  71.632  26.688  0.00  0.00    -0.266 N 
ATOM     13  H   LIG    1      -33.733  71.701  26.199  0.00  0.00    +0.157 HD
ATOM     14  C   LIG    1      -34.836  72.401  27.898  0.00  0.00    +0.251 C 
ATOM     15  O   LIG    1      -35.867  72.311  28.516  0.00  0.00    -0.270 OA
BRANCH  14  16
ATOM     16  C   LIG    1      -33.771  73.317  28.351  0.00  0.00    +0.056 A 
ATOM     17  C   LIG    1      -32.767  72.977  29.256  0.00  0.00    +0.056 A 
ATOM     18 CL   LIG    1      -32.697  71.447  30.047  0.00  0.00    -0.083 Cl
ATOM     19  C   LIG    1      -31.799  73.914  29.618  0.00  0.00    +0.059 A 
ATOM     20  C   LIG    1      -31.863  75.216  29.122  0.00  0.00    +0.134 A 
ATOM     21  F   LIG    1      -30.919  76.076  29.534  0.00  0.00    -0.205 F 
ATOM     22  C   LIG    1      -32.896  75.636  28.279  0.00  0.00    +0.036 A 
ATOM     23  C   LIG    1      -33.831  74.655  27.880  0.00  0.00    +0.027 A 
BRANCH  22  24
ATOM     24  C   LIG    1      -33.082  77.051  27.901  0.00  0.00    +0.074 A 
ATOM     25  N   LIG    1      -33.959  77.730  28.686  0.00  0.00    -0.255 NA
ATOM     26  C   LIG    1      -34.106  79.057  28.473  0.00  0.00    +0.111 A 
ATOM     27  C   LIG    1      -33.426  79.758  27.493  0.00  0.00    +0.020 A 
ATOM     28  C   LIG    1      -32.556  79.052  26.675  0.00  0.00    +0.004 A 
ATOM     29  C   LIG    1      -32.381  77.683  26.875  0.00  0.00    +0.028 A 
ENDBRANCH  22  24
ENDBRANCH  14  16
ENDBRANCH   4  12
BRANCH   1  31
ATOM     30  N   LIG    1      -37.468  69.081  22.512  0.00  0.00    -0.246 NA
ATOM     31  C   LIG    1      -37.864  69.821  23.483  0.00  0.00    +0.236 C 
BRANCH  30  36
ATOM     32  C   LIG    1      -38.390  65.836  19.125  0.00  0.00    +0.041 C 
ATOM     33  C   LIG    1      -37.576  66.191  20.374  0.00  0.00    +0.063 C 
ATOM     34  C   LIG    1      -38.487  66.391  21.594  0.00  0.00    +0.036 C 
ATOM     35  C   LIG    1      -39.255  67.717  21.558  0.00  0.00    +0.029 C 
ATOM     36  C   LIG    1      -38.335  68.935  21.339  0.00  0.00    +0.109 C 
ATOM     37  C   LIG    1      -37.500  68.721  20.072  0.00  0.00    +0.029 C 
ATOM     38  C   LIG    1      -36.696  67.425  20.141  0.00  0.00    +0.036 C 
BRANCH  33  39
ATOM     39  O   LIG    1      -36.719  65.078  20.652  0.00  0.00    -0.389 OA
ATOM     40  H   LIG    1      -36.339  65.208  21.537  0.00  0.00    +0.210 HD
ENDBRANCH  33  39
ENDBRANCH  30  36
BRANCH  31  41
ATOM     41  O   LIG    1      -39.033  70.497  23.520  0.00  0.00    -0.491 OA
ATOM     42  H   LIG    1      -39.637  70.136  22.843  0.00  0.00    +0.294 HD
ENDBRANCH  31  41
ENDBRANCH   1  31
TORSDOF 8
ENDMDL
MODEL 7
REMARK VINA RESULT:      -6.8      6.885      9.418
REMARK  Name = pdb/CHEMBL3978304.pdb
REMARK                            x       y       z     vdW  Elec       q    Type
REMARK                         _______ _______ _______ _____ _____    ______ ____
ROOT
ATOM      1  C   LIG    1      -40.179  73.284  24.221  0.00  0.00    +0.149 A 
ATOM      2  N   LIG    1      -40.689  74.520  24.351  0.00  0.00    -0.160 NA
ATOM      3  N   LIG    1      -39.615  75.295  24.680  0.00  0.00    -0.218 N 
ATOM      4  C   LIG    1      -38.459  74.524  24.874  0.00  0.00    +0.129 A 
ATOM      5  C   LIG    1      -38.788  73.266  24.435  0.00  0.00    +0.078 A 
ENDROOT
BRANCH   3   6
ATOM      6  C   LIG    1      -39.755  76.705  24.750  0.00  0.00    +0.067 A 
ATOM      7  C   LIG    1      -39.898  77.349  25.985  0.00  0.00    +0.028 A 
ATOM      8  C   LIG    1      -39.993  78.745  26.034  0.00  0.00    +0.002 A 
ATOM      9  C   LIG    1      -39.961  79.495  24.858  0.00  0.00    +0.000 A 
ATOM     10  C   LIG    1      -39.805  78.856  23.629  0.00  0.00    +0.002 A 
ATOM     11  C   LIG    1      -39.681  77.465  23.573  0.00  0.00    +0.028 A 
ENDBRANCH   3   6
BRANCH   4  12
ATOM     12  N   LIG    1      -37.274  74.895  25.520  0.00  0.00    -0.266 N 
ATOM     13  H   LIG    1      -36.498  75.185  24.946  0.00  0.00    +0.157 HD
ATOM     14  C   LIG    1      -37.160  74.910  26.967  0.00  0.00    +0.251 C 
ATOM     15  O   LIG    1      -38.065  74.538  27.671  0.00  0.00    -0.270 OA
BRANCH  14  16
ATOM     16  C   LIG    1      -35.906  75.411  27.563  0.00  0.00    +0.056 A 
ATOM     17  C   LIG    1      -34.876  74.599  28.036  0.00  0.00    +0.056 A 
ATOM     18 CL   LIG    1      -34.979  72.879  28.072  0.00  0.00    -0.083 Cl
ATOM     19  C   LIG    1      -33.725  75.170  28.579  0.00  0.00    +0.059 A 
ATOM     20  C   LIG    1      -33.621  76.554  28.706  0.00  0.00    +0.134 A 
ATOM     21  F   LIG    1      -32.500  77.037  29.264  0.00  0.00    -0.205 F 
ATOM     22  C   LIG    1      -34.658  77.412  28.327  0.00  0.00    +0.036 A 
ATOM     23  C   LIG    1      -35.790  76.816  27.727  0.00  0.00    +0.027 A 
BRANCH  22  24
ATOM     24  C   LIG    1      -34.640  78.857  28.629  0.00  0.00    +0.074 A 
ATOM     25  N   LIG    1      -34.624  79.658  27.532  0.00  0.00    -0.255 NA
ATOM     26  C   LIG    1      -34.715  80.994  27.719  0.00  0.00    +0.111 A 
ATOM     27  C   LIG    1      -34.809  81.590  28.964  0.00  0.00    +0.020 A 
ATOM     28  C   LIG    1      -34.794  80.768  30.081  0.00  0.00    +0.004 A 
ATOM     29  C   LIG    1      -34.706  79.386  29.917  0.00  0.00    +0.028 A 
ENDBRANCH  22  24
ENDBRANCH  14  16
ENDBRANCH   4  12
BRANCH   1  31
ATOM     30  N   LIG    1      -41.598  72.017  22.815  0.00  0.00    -0.246 NA
ATOM     31  C   LIG    1      -41.020  72.128  23.956  0.00  0.00    +0.236 C 
BRANCH  30  36
ATOM     32  C   LIG    1      -45.046  70.655  19.797  0.00  0.00    +0.041 C 
ATOM     33  C   LIG    1      -44.088  71.770  20.232  0.00  0.00    +0.063 C 
ATOM     34  C   LIG    1      -42.623  71.347  20.055  0.00  0.00    +0.036 C 
ATOM     35  C   LIG    1      -42.154  70.349  21.120  0.00  0.00    +0.029 C 
ATOM     36  C   LIG    1      -42.428  70.837  22.558  0.00  0.00    +0.109 C 
ATOM     37  C   LIG    1      -43.915  71.178  22.705  0.00  0.00    +0.029 C 
ATOM     38  C   LIG    1      -44.359  72.213  21.675  0.00  0.00    +0.036 C 
BRANCH  33  39
ATOM     39  O   LIG    1      -44.322  72.890  19.370  0.00  0.00    -0.389 OA
ATOM     40  H   LIG    1      -43.824  73.646  19.723  0.00  0.00    +0.210 HD
ENDBRANCH  33  39
ENDBRANCH  30  36
BRANCH  31  41
ATOM     41  O   LIG    1      -41.114  71.236  24.966  0.00  0.00    -0.491 OA
ATOM     42  H   LIG    1      -40.366  70.612  24.917  0.00  0.00    +0.294 HD
ENDBRANCH  31  41
ENDBRANCH   1  31
TORSDOF 8
ENDMDL
MODEL 8
REMARK VINA RESULT:      -6.8     22.383     24.872
REMARK  Name = pdb/CHEMBL3978304.pdb
REMARK                            x       y       z     vdW  Elec       q    Type
REMARK                         _______ _______ _______ _____ _____    ______ ____
ROOT
ATOM      1  C   LIG    1      -22.158  85.521  14.742  0.00  0.00    +0.149 A 
ATOM      2  N   LIG    1      -21.232  85.416  13.774  0.00  0.00    -0.160 NA
ATOM      3  N   LIG    1      -21.183  86.661  13.218  0.00  0.00    -0.218 N 
ATOM      4  C   LIG    1      -22.160  87.509  13.757  0.00  0.00    +0.129 A 
ATOM      5  C   LIG    1      -22.678  86.826  14.830  0.00  0.00    +0.078 A 
ENDROOT
BRANCH   3   6
ATOM      6  C   LIG    1      -20.193  86.964  12.247  0.00  0.00    +0.067 A 
ATOM      7  C   LIG    1      -20.395  86.652  10.897  0.00  0.00    +0.028 A 
ATOM      8  C   LIG    1      -19.423  86.996   9.951  0.00  0.00    +0.002 A 
ATOM      9  C   LIG    1      -18.248  87.636  10.348  0.00  0.00    +0.000 A 
ATOM     10  C   LIG    1      -18.052  87.960  11.690  0.00  0.00    +0.002 A 
ATOM     11  C   LIG    1      -19.029  87.644  12.637  0.00  0.00    +0.028 A 
ENDBRANCH   3   6
BRANCH   4  12
ATOM     12  N   LIG    1      -22.634  88.720  13.237  0.00  0.00    -0.266 N 
ATOM     13  H   LIG    1      -22.312  89.573  13.667  0.00  0.00    +0.157 HD
ATOM     14  C   LIG    1      -23.523  88.768  12.092  0.00  0.00    +0.251 C 
ATOM     15  O   LIG    1      -23.944  87.761  11.581  0.00  0.00    -0.270 OA
BRANCH  14  16
ATOM     16  C   LIG    1      -23.891  90.091  11.549  0.00  0.00    +0.056 A 
ATOM     17  C   LIG    1      -23.122  90.815  10.640  0.00  0.00    +0.056 A 
ATOM     18 CL   LIG    1      -21.572  90.292  10.097  0.00  0.00    -0.083 Cl
ATOM     19  C   LIG    1      -23.560  92.058  10.181  0.00  0.00    +0.059 A 
ATOM     20  C   LIG    1      -24.742  92.610  10.673  0.00  0.00    +0.134 A 
ATOM     21  F   LIG    1      -25.090  93.822  10.213  0.00  0.00    -0.205 F 
ATOM     22  C   LIG    1      -25.509  91.968  11.649  0.00  0.00    +0.036 A 
ATOM     23  C   LIG    1      -25.076  90.685  12.056  0.00  0.00    +0.027 A 
BRANCH  22  24
ATOM     24  C   LIG    1      -26.652  92.622  12.315  0.00  0.00    +0.074 A 
ATOM     25  N   LIG    1      -27.760  92.740  11.537  0.00  0.00    -0.255 NA
ATOM     26  C   LIG    1      -28.885  93.230  12.105  0.00  0.00    +0.111 A 
ATOM     27  C   LIG    1      -28.967  93.632  13.426  0.00  0.00    +0.020 A 
ATOM     28  C   LIG    1      -27.823  93.537  14.206  0.00  0.00    +0.004 A 
ATOM     29  C   LIG    1      -26.650  93.030  13.648  0.00  0.00    +0.028 A 
ENDBRANCH  22  24
ENDBRANCH  14  16
ENDBRANCH   4  12
BRANCH   1  31
ATOM     30  N   LIG    1      -22.631  83.216  14.982  0.00  0.00    -0.246 NA
ATOM     31  C   LIG    1      -22.580  84.376  15.530  0.00  0.00    +0.236 C 
BRANCH  30  36
ATOM     32  C   LIG    1      -22.149  78.460  14.969  0.00  0.00    +0.041 C 
ATOM     33  C   LIG    1      -21.831  79.784  14.266  0.00  0.00    +0.063 C 
ATOM     34  C   LIG    1      -20.976  80.697  15.157  0.00  0.00    +0.036 C 
ATOM     35  C   LIG    1      -21.775  81.343  16.294  0.00  0.00    +0.029 C 
ATOM     36  C   LIG    1      -23.042  82.069  15.797  0.00  0.00    +0.109 C 
ATOM     37  C   LIG    1      -23.896  81.098  14.975  0.00  0.00    +0.029 C 
ATOM     38  C   LIG    1      -23.107  80.502  13.812  0.00  0.00    +0.036 C 
BRANCH  33  39
ATOM     39  O   LIG    1      -21.058  79.470  13.102  0.00  0.00    -0.389 OA
ATOM     40  H   LIG    1      -20.254  80.015  13.122  0.00  0.00    +0.210 HD
ENDBRANCH  33  39
ENDBRANCH  30  36
BRANCH  31  41
ATOM     41  O   LIG    1      -22.883  84.641  16.820  0.00  0.00    -0.491 OA
ATOM     42  H   LIG    1      -23.553  85.350  16.855  0.00  0.00    +0.294 HD
ENDBRANCH  31  41
ENDBRANCH   1  31
TORSDOF 8
ENDMDL
MODEL 9
REMARK VINA RESULT:      -6.8      6.155     12.378
REMARK  Name = pdb/CHEMBL3978304.pdb
REMARK                            x       y       z     vdW  Elec       q    Type
REMARK                         _______ _______ _______ _____ _____    ______ ____
ROOT
ATOM      1  C   LIG    1      -37.490  80.063  28.051  0.00  0.00    +0.149 A 
ATOM      2  N   LIG    1      -36.451  79.323  28.475  0.00  0.00    -0.160 NA
ATOM      3  N   LIG    1      -36.593  78.135  27.819  0.00  0.00    -0.218 N 
ATOM      4  C   LIG    1      -37.784  78.090  27.080  0.00  0.00    +0.129 A 
ATOM      5  C   LIG    1      -38.276  79.371  27.111  0.00  0.00    +0.078 A 
ENDROOT
BRANCH   3   6
ATOM      6  C   LIG    1      -35.576  77.150  27.912  0.00  0.00    +0.067 A 
ATOM      7  C   LIG    1      -35.878  75.845  28.319  0.00  0.00    +0.028 A 
ATOM      8  C   LIG    1      -34.867  74.879  28.364  0.00  0.00    +0.002 A 
ATOM      9  C   LIG    1      -33.557  75.213  28.018  0.00  0.00    +0.000 A 
ATOM     10  C   LIG    1      -33.257  76.508  27.599  0.00  0.00    +0.002 A 
ATOM     11  C   LIG    1      -34.266  77.472  27.525  0.00  0.00    +0.028 A 
ENDBRANCH   3   6
BRANCH   4  12
ATOM     12  N   LIG    1      -38.431  76.964  26.555  0.00  0.00    -0.266 N 
ATOM     13  H   LIG    1      -39.201  76.580  27.079  0.00  0.00    +0.157 HD
ATOM     14  C   LIG    1      -38.049  76.383  25.282  0.00  0.00    +0.251 C 
ATOM     15  O   LIG    1      -37.112  76.809  24.654  0.00  0.00    -0.270 OA
BRANCH  14  16
ATOM     16  C   LIG    1      -38.851  75.260  24.759  0.00  0.00    +0.056 A 
ATOM     17  C   LIG    1      -40.121  75.388  24.199  0.00  0.00    +0.056 A 
ATOM     18 CL   LIG    1      -40.970  76.887  24.132  0.00  0.00    -0.083 Cl
ATOM     19  C   LIG    1      -40.798  74.263  23.726  0.00  0.00    +0.059 A 
ATOM     20  C   LIG    1      -40.233  72.996  23.864  0.00  0.00    +0.134 A 
ATOM     21  F   LIG    1      -40.950  71.954  23.416  0.00  0.00    -0.205 F 
ATOM     22  C   LIG    1      -39.001  72.799  24.494  0.00  0.00    +0.036 A 
ATOM     23  C   LIG    1      -38.308  73.958  24.912  0.00  0.00    +0.027 A 
BRANCH  22  24
ATOM     24  C   LIG    1      -38.482  71.455  24.815  0.00  0.00    +0.074 A 
ATOM     25  N   LIG    1      -39.072  70.868  25.889  0.00  0.00    -0.255 NA
ATOM     26  C   LIG    1      -38.729  69.594  26.184  0.00  0.00    +0.111 A 
ATOM     27  C   LIG    1      -37.802  68.862  25.465  0.00  0.00    +0.020 A 
ATOM     28  C   LIG    1      -37.180  69.478  24.389  0.00  0.00    +0.004 A 
ATOM     29  C   LIG    1      -37.518  70.790  24.059  0.00  0.00    +0.028 A 
ENDBRANCH  22  24
ENDBRANCH  14  16
ENDBRANCH   4  12
BRANCH   1  31
ATOM     30  N   LIG    1      -37.443  82.422  27.891  0.00  0.00    -0.246 NA
ATOM     31  C   LIG    1      -37.758  81.388  28.583  0.00  0.00    +0.236 C 
BRANCH  30  36
ATOM     32  C   LIG    1      -35.851  86.907  27.442  0.00  0.00    +0.041 C 
ATOM     33  C   LIG    1      -35.707  85.445  27.006  0.00  0.00    +0.063 C 
ATOM     34  C   LIG    1      -36.978  84.946  26.302  0.00  0.00    +0.036 C 
ATOM     35  C   LIG    1      -38.135  84.680  27.271  0.00  0.00    +0.029 C 
ATOM     36  C   LIG    1      -37.737  83.751  28.436  0.00  0.00    +0.109 C 
ATOM     37  C   LIG    1      -36.511  84.327  29.151  0.00  0.00    +0.029 C 
ATOM     38  C   LIG    1      -35.345  84.537  28.187  0.00  0.00    +0.036 C 
BRANCH  33  39
ATOM     39  O   LIG    1      -34.637  85.390  26.056  0.00  0.00    -0.389 OA
ATOM     40  H   LIG    1      -34.200  84.526  26.150  0.00  0.00    +0.210 HD
ENDBRANCH  33  39
ENDBRANCH  30  36
BRANCH  31  41
ATOM     41  O   LIG    1      -38.347  81.415  29.799  0.00  0.00    -0.491 OA
ATOM     42  H   LIG    1      -37.727  81.795  30.450  0.00  0.00    +0.294 HD
ENDBRANCH  31  41
ENDBRANCH   1  31
TORSDOF 8
ENDMDL
