MODEL 1
REMARK VINA RESULT:      -7.3      0.000      0.000
REMARK  Name = modded_pdb/CHEMBL2037208_nitrogen_modded_with_ethanol_version_3.pdb
REMARK                            x       y       z     vdW  Elec       q    Type
REMARK                         _______ _______ _______ _____ _____    ______ ____
ROOT
ATOM      1  N   LIG    1      -39.768  71.505  24.638  0.00  0.00    -0.314 N 
ATOM      2  H   LIG    1      -40.149  71.137  25.508  0.00  0.00    +0.152 HD
ENDROOT
BRANCH   1   3
ATOM      3  C   LIG    1      -38.955  70.536  24.000  0.00  0.00    +0.033 A 
ATOM      4  C   LIG    1      -37.889  69.930  24.676  0.00  0.00    +0.047 A 
ATOM      5  C   LIG    1      -37.096  69.023  24.003  0.00  0.00    +0.046 A 
ATOM      6  N   LIG    1      -35.951  68.373  24.477  0.00  0.00    -0.265 N 
ATOM      7  C   LIG    1      -35.405  67.542  23.504  0.00  0.00    +0.252 C 
ATOM      8  O   LIG    1      -34.432  66.836  23.624  0.00  0.00    -0.270 OA
ATOM      9  C   LIG    1      -36.300  67.708  22.292  0.00  0.00    +0.048 C 
ATOM     10  C   LIG    1      -36.179  67.169  21.068  0.00  0.00    +0.039 C 
ATOM     11  C   LIG    1      -37.356  68.658  22.679  0.00  0.00    +0.009 A 
ATOM     12  C   LIG    1      -38.433  69.211  22.004  0.00  0.00    +0.012 A 
ATOM     13  C   LIG    1      -39.237  70.148  22.675  0.00  0.00    +0.024 A 
BRANCH  10  14
ATOM     14  C   LIG    1      -35.158  66.294  20.614  0.00  0.00    +0.040 A 
ATOM     15  N   LIG    1      -33.843  66.692  20.534  0.00  0.00    -0.361 N 
ATOM     16  H   LIG    1      -33.509  67.636  20.695  0.00  0.00    +0.165 HD
ATOM     17  C   LIG    1      -33.065  65.666  20.066  0.00  0.00    +0.083 A 
ATOM     18  C   LIG    1      -33.878  64.578  19.864  0.00  0.00    +0.019 A 
ATOM     19  C   LIG    1      -35.192  64.966  20.228  0.00  0.00    +0.027 A 
ENDBRANCH  10  14
BRANCH   6  20
ATOM     20  C   LIG    1      -35.338  68.580  25.775  0.00  0.00    +0.142 C 
BRANCH  20  21
ATOM     21  C   LIG    1      -34.135  69.528  25.710  0.00  0.00    +0.175 C 
BRANCH  21  22
ATOM     22  O   LIG    1      -34.509  70.858  25.341  0.00  0.00    -0.393 OA
ATOM     23  H   LIG    1      -35.462  70.811  25.137  0.00  0.00    +0.209 HD
ENDBRANCH  21  22
ENDBRANCH  20  21
ENDBRANCH   6  20
ENDBRANCH   1   3
BRANCH   1  26
ATOM     24  C   LIG    1      -37.985  74.736  25.314  0.00  0.00    +0.035 A 
ATOM     25  C   LIG    1      -38.296  73.373  25.252  0.00  0.00    +0.046 A 
ATOM     26  C   LIG    1      -39.501  72.896  24.707  0.00  0.00    +0.033 A 
ATOM     27  C   LIG    1      -40.390  73.825  24.168  0.00  0.00    +0.023 A 
ATOM     28  C   LIG    1      -40.094  75.194  24.220  0.00  0.00    +0.004 A 
ATOM     29  C   LIG    1      -38.896  75.649  24.788  0.00  0.00    +0.023 A 
BRANCH  24  31
ATOM     30  C   LIG    1      -36.561  75.516  27.228  0.00  0.00    +0.248 C 
ATOM     31  N   LIG    1      -36.759  75.071  25.933  0.00  0.00    -0.281 N 
ATOM     32  H   LIG    1      -35.958  75.081  25.313  0.00  0.00    +0.155 HD
ATOM     33  O   LIG    1      -37.436  75.730  28.058  0.00  0.00    -0.270 OA
BRANCH  30  36
ATOM     34  C   LIG    1      -33.267  77.406  27.539  0.00  0.00    +0.056 A 
ATOM     35  C   LIG    1      -34.585  77.053  27.189  0.00  0.00    +0.025 A 
ATOM     36  C   LIG    1      -35.137  75.823  27.592  0.00  0.00    +0.038 A 
ATOM     37  C   LIG    1      -34.354  74.940  28.349  0.00  0.00    +0.013 A 
ATOM     38  C   LIG    1      -33.056  75.297  28.726  0.00  0.00    +0.001 A 
ATOM     39  C   LIG    1      -32.519  76.524  28.333  0.00  0.00    +0.012 A 
BRANCH  34  41
ATOM     40  F   LIG    1      -33.524  79.758  27.109  0.00  0.00    -0.166 F 
ATOM     41  C   LIG    1      -32.664  78.702  27.047  0.00  0.00    +0.417 C 
ATOM     42  F   LIG    1      -31.574  79.074  27.775  0.00  0.00    -0.166 F 
ATOM     43  F   LIG    1      -32.249  78.637  25.752  0.00  0.00    -0.166 F 
ENDBRANCH  34  41
ENDBRANCH  30  36
ENDBRANCH  24  31
ENDBRANCH   1  26
TORSDOF 9
ENDMDL
MODEL 2
REMARK VINA RESULT:      -6.8      6.779     14.361
REMARK  Name = modded_pdb/CHEMBL2037208_nitrogen_modded_with_ethanol_version_3.pdb
REMARK                            x       y       z     vdW  Elec       q    Type
REMARK                         _______ _______ _______ _____ _____    ______ ____
ROOT
ATOM      1  N   LIG    1      -36.522  79.691  29.231  0.00  0.00    -0.314 N 
ATOM      2  H   LIG    1      -37.515  79.734  29.007  0.00  0.00    +0.152 HD
ENDROOT
BRANCH   1   3
ATOM      3  C   LIG    1      -36.002  80.992  29.446  0.00  0.00    +0.033 A 
ATOM      4  C   LIG    1      -36.333  82.052  28.592  0.00  0.00    +0.047 A 
ATOM      5  C   LIG    1      -35.770  83.292  28.813  0.00  0.00    +0.046 A 
ATOM      6  N   LIG    1      -35.916  84.446  28.035  0.00  0.00    -0.265 N 
ATOM      7  C   LIG    1      -35.181  85.504  28.561  0.00  0.00    +0.252 C 
ATOM      8  O   LIG    1      -35.127  86.629  28.126  0.00  0.00    -0.270 OA
ATOM      9  C   LIG    1      -34.493  84.938  29.788  0.00  0.00    +0.048 C 
ATOM     10  C   LIG    1      -33.623  85.530  30.621  0.00  0.00    +0.039 C 
ATOM     11  C   LIG    1      -34.914  83.531  29.891  0.00  0.00    +0.009 A 
ATOM     12  C   LIG    1      -34.608  82.509  30.776  0.00  0.00    +0.012 A 
ATOM     13  C   LIG    1      -35.163  81.238  30.551  0.00  0.00    +0.024 A 
BRANCH  10  14
ATOM     14  C   LIG    1      -33.134  86.860  30.546  0.00  0.00    +0.040 A 
ATOM     15  N   LIG    1      -31.942  87.162  29.928  0.00  0.00    -0.361 N 
ATOM     16  H   LIG    1      -31.284  86.479  29.567  0.00  0.00    +0.165 HD
ATOM     17  C   LIG    1      -31.699  88.508  29.995  0.00  0.00    +0.083 A 
ATOM     18  C   LIG    1      -32.759  89.096  30.641  0.00  0.00    +0.019 A 
ATOM     19  C   LIG    1      -33.672  88.062  30.970  0.00  0.00    +0.027 A 
ENDBRANCH  10  14
BRANCH   6  20
ATOM     20  C   LIG    1      -36.659  84.541  26.793  0.00  0.00    +0.142 C 
BRANCH  20  21
ATOM     21  C   LIG    1      -35.788  84.245  25.566  0.00  0.00    +0.175 C 
BRANCH  21  22
ATOM     22  O   LIG    1      -34.809  85.261  25.336  0.00  0.00    -0.393 OA
ATOM     23  H   LIG    1      -34.021  84.980  25.837  0.00  0.00    +0.209 HD
ENDBRANCH  21  22
ENDBRANCH  20  21
ENDBRANCH   6  20
ENDBRANCH   1   3
BRANCH   1  26
ATOM     24  C   LIG    1      -35.964  76.625  27.142  0.00  0.00    +0.035 A 
ATOM     25  C   LIG    1      -36.584  77.669  27.839  0.00  0.00    +0.046 A 
ATOM     26  C   LIG    1      -35.859  78.634  28.558  0.00  0.00    +0.033 A 
ATOM     27  C   LIG    1      -34.465  78.566  28.526  0.00  0.00    +0.023 A 
ATOM     28  C   LIG    1      -33.828  77.530  27.832  0.00  0.00    +0.004 A 
ATOM     29  C   LIG    1      -34.572  76.564  27.139  0.00  0.00    +0.023 A 
BRANCH  24  31
ATOM     30  C   LIG    1      -37.431  75.827  25.270  0.00  0.00    +0.248 C 
ATOM     31  N   LIG    1      -36.823  75.701  26.505  0.00  0.00    -0.281 N 
ATOM     32  H   LIG    1      -37.097  74.911  27.078  0.00  0.00    +0.155 HD
ATOM     33  O   LIG    1      -37.352  76.794  24.523  0.00  0.00    -0.270 OA
BRANCH  30  36
ATOM     34  C   LIG    1      -40.449  73.937  23.911  0.00  0.00    +0.056 A 
ATOM     35  C   LIG    1      -39.591  74.970  24.337  0.00  0.00    +0.025 A 
ATOM     36  C   LIG    1      -38.322  74.685  24.871  0.00  0.00    +0.038 A 
ATOM     37  C   LIG    1      -37.915  73.349  24.983  0.00  0.00    +0.013 A 
ATOM     38  C   LIG    1      -38.748  72.319  24.534  0.00  0.00    +0.001 A 
ATOM     39  C   LIG    1      -40.001  72.610  23.993  0.00  0.00    +0.012 A 
BRANCH  34  41
ATOM     40  F   LIG    1      -41.920  75.467  22.781  0.00  0.00    -0.166 F 
ATOM     41  C   LIG    1      -41.835  74.253  23.398  0.00  0.00    +0.417 C 
ATOM     42  F   LIG    1      -42.265  73.344  22.479  0.00  0.00    -0.166 F 
ATOM     43  F   LIG    1      -42.775  74.270  24.381  0.00  0.00    -0.166 F 
ENDBRANCH  34  41
ENDBRANCH  30  36
ENDBRANCH  24  31
ENDBRANCH   1  26
TORSDOF 9
ENDMDL
MODEL 3
REMARK VINA RESULT:      -6.8      2.069      2.589
REMARK  Name = modded_pdb/CHEMBL2037208_nitrogen_modded_with_ethanol_version_3.pdb
REMARK                            x       y       z     vdW  Elec       q    Type
REMARK                         _______ _______ _______ _____ _____    ______ ____
ROOT
ATOM      1  N   LIG    1      -39.552  70.632  24.328  0.00  0.00    -0.314 N 
ATOM      2  H   LIG    1      -39.632  70.186  25.241  0.00  0.00    +0.152 HD
ENDROOT
BRANCH   1   3
ATOM      3  C   LIG    1      -38.794  69.825  23.444  0.00  0.00    +0.033 A 
ATOM      4  C   LIG    1      -37.603  69.218  23.861  0.00  0.00    +0.047 A 
ATOM      5  C   LIG    1      -36.875  68.476  22.955  0.00  0.00    +0.046 A 
ATOM      6  N   LIG    1      -35.634  67.860  23.157  0.00  0.00    -0.265 N 
ATOM      7  C   LIG    1      -35.199  67.214  22.003  0.00  0.00    +0.252 C 
ATOM      8  O   LIG    1      -34.181  66.577  21.876  0.00  0.00    -0.270 OA
ATOM      9  C   LIG    1      -36.280  67.473  20.972  0.00  0.00    +0.048 C 
ATOM     10  C   LIG    1      -36.320  67.116  19.678  0.00  0.00    +0.039 C 
ATOM     11  C   LIG    1      -37.315  68.276  21.643  0.00  0.00    +0.009 A 
ATOM     12  C   LIG    1      -38.513  68.829  21.221  0.00  0.00    +0.012 A 
ATOM     13  C   LIG    1      -39.255  69.600  22.131  0.00  0.00    +0.024 A 
BRANCH  10  14
ATOM     14  C   LIG    1      -35.334  66.394  18.957  0.00  0.00    +0.040 A 
ATOM     15  N   LIG    1      -35.312  65.018  18.935  0.00  0.00    -0.361 N 
ATOM     16  H   LIG    1      -35.917  64.417  19.485  0.00  0.00    +0.165 HD
ATOM     17  C   LIG    1      -34.264  64.572  18.174  0.00  0.00    +0.083 A 
ATOM     18  C   LIG    1      -33.610  65.670  17.672  0.00  0.00    +0.019 A 
ATOM     19  C   LIG    1      -34.294  66.816  18.148  0.00  0.00    +0.027 A 
ENDBRANCH  10  14
BRANCH   6  20
ATOM     20  C   LIG    1      -34.840  67.935  24.368  0.00  0.00    +0.142 C 
BRANCH  20  21
ATOM     21  C   LIG    1      -35.137  66.782  25.335  0.00  0.00    +0.175 C 
BRANCH  21  22
ATOM     22  O   LIG    1      -33.968  66.336  26.026  0.00  0.00    -0.393 OA
ATOM     23  H   LIG    1      -34.223  66.297  26.967  0.00  0.00    +0.209 HD
ENDBRANCH  21  22
ENDBRANCH  20  21
ENDBRANCH   6  20
ENDBRANCH   1   3
BRANCH   1  26
ATOM     24  C   LIG    1      -38.286  74.079  25.094  0.00  0.00    +0.035 A 
ATOM     25  C   LIG    1      -38.392  72.686  25.010  0.00  0.00    +0.046 A 
ATOM     26  C   LIG    1      -39.493  72.046  24.417  0.00  0.00    +0.033 A 
ATOM     27  C   LIG    1      -40.488  72.842  23.850  0.00  0.00    +0.023 A 
ATOM     28  C   LIG    1      -40.397  74.238  23.923  0.00  0.00    +0.004 A 
ATOM     29  C   LIG    1      -39.300  74.856  24.540  0.00  0.00    +0.023 A 
BRANCH  24  31
ATOM     30  C   LIG    1      -36.983  74.778  27.121  0.00  0.00    +0.248 C 
ATOM     31  N   LIG    1      -37.146  74.581  25.762  0.00  0.00    -0.281 N 
ATOM     32  H   LIG    1      -36.414  74.929  25.153  0.00  0.00    +0.155 HD
ATOM     33  O   LIG    1      -37.828  74.578  27.985  0.00  0.00    -0.270 OA
BRANCH  30  36
ATOM     34  C   LIG    1      -33.465  75.020  28.568  0.00  0.00    +0.056 A 
ATOM     35  C   LIG    1      -34.734  74.535  28.196  0.00  0.00    +0.025 A 
ATOM     36  C   LIG    1      -35.661  75.360  27.533  0.00  0.00    +0.038 A 
ATOM     37  C   LIG    1      -35.309  76.687  27.248  0.00  0.00    +0.013 A 
ATOM     38  C   LIG    1      -34.040  77.167  27.587  0.00  0.00    +0.001 A 
ATOM     39  C   LIG    1      -33.121  76.338  28.233  0.00  0.00    +0.012 A 
BRANCH  34  41
ATOM     40  F   LIG    1      -32.445  72.864  28.867  0.00  0.00    -0.166 F 
ATOM     41  C   LIG    1      -32.503  74.143  29.336  0.00  0.00    +0.417 C 
ATOM     42  F   LIG    1      -31.225  74.610  29.284  0.00  0.00    -0.166 F 
ATOM     43  F   LIG    1      -32.815  74.040  30.656  0.00  0.00    -0.166 F 
ENDBRANCH  34  41
ENDBRANCH  30  36
ENDBRANCH  24  31
ENDBRANCH   1  26
TORSDOF 9
ENDMDL
MODEL 4
REMARK VINA RESULT:      -6.8      5.640     11.371
REMARK  Name = modded_pdb/CHEMBL2037208_nitrogen_modded_with_ethanol_version_3.pdb
REMARK                            x       y       z     vdW  Elec       q    Type
REMARK                         _______ _______ _______ _____ _____    ______ ____
ROOT
ATOM      1  N   LIG    1      -40.800  77.780  24.402  0.00  0.00    -0.314 N 
ATOM      2  H   LIG    1      -41.578  77.652  23.756  0.00  0.00    +0.152 HD
ENDROOT
BRANCH   1   3
ATOM      3  C   LIG    1      -40.306  79.106  24.333  0.00  0.00    +0.033 A 
ATOM      4  C   LIG    1      -40.327  79.943  25.456  0.00  0.00    +0.047 A 
ATOM      5  C   LIG    1      -39.877  81.241  25.334  0.00  0.00    +0.046 A 
ATOM      6  N   LIG    1      -39.885  82.244  26.311  0.00  0.00    -0.265 N 
ATOM      7  C   LIG    1      -39.366  83.435  25.814  0.00  0.00    +0.252 C 
ATOM      8  O   LIG    1      -39.223  84.467  26.424  0.00  0.00    -0.270 OA
ATOM      9  C   LIG    1      -39.013  83.142  24.369  0.00  0.00    +0.048 C 
ATOM     10  C   LIG    1      -38.530  83.971  23.429  0.00  0.00    +0.039 C 
ATOM     11  C   LIG    1      -39.358  81.731  24.132  0.00  0.00    +0.009 A 
ATOM     12  C   LIG    1      -39.286  80.907  23.019  0.00  0.00    +0.012 A 
ATOM     13  C   LIG    1      -39.757  79.588  23.128  0.00  0.00    +0.024 A 
BRANCH  10  14
ATOM     14  C   LIG    1      -38.230  85.350  23.576  0.00  0.00    +0.040 A 
ATOM     15  N   LIG    1      -37.193  85.788  24.368  0.00  0.00    -0.361 N 
ATOM     16  H   LIG    1      -36.630  85.197  24.970  0.00  0.00    +0.165 HD
ATOM     17  C   LIG    1      -37.118  87.156  24.340  0.00  0.00    +0.083 A 
ATOM     18  C   LIG    1      -38.102  87.614  23.498  0.00  0.00    +0.019 A 
ATOM     19  C   LIG    1      -38.788  86.478  23.001  0.00  0.00    +0.027 A 
ENDBRANCH  10  14
BRANCH   6  20
ATOM     20  C   LIG    1      -40.434  82.117  27.647  0.00  0.00    +0.142 C 
BRANCH  20  21
ATOM     21  C   LIG    1      -39.346  81.906  28.708  0.00  0.00    +0.175 C 
BRANCH  21  22
ATOM     22  O   LIG    1      -38.742  80.614  28.619  0.00  0.00    -0.393 OA
ATOM     23  H   LIG    1      -37.815  80.742  28.896  0.00  0.00    +0.209 HD
ENDBRANCH  21  22
ENDBRANCH  20  21
ENDBRANCH   6  20
ENDBRANCH   1   3
BRANCH   1  26
ATOM     24  C   LIG    1      -37.962  75.516  25.349  0.00  0.00    +0.035 A 
ATOM     25  C   LIG    1      -38.756  76.654  25.169  0.00  0.00    +0.046 A 
ATOM     26  C   LIG    1      -40.013  76.609  24.542  0.00  0.00    +0.033 A 
ATOM     27  C   LIG    1      -40.497  75.366  24.132  0.00  0.00    +0.023 A 
ATOM     28  C   LIG    1      -39.716  74.216  24.306  0.00  0.00    +0.004 A 
ATOM     29  C   LIG    1      -38.455  74.288  24.915  0.00  0.00    +0.023 A 
BRANCH  24  31
ATOM     30  C   LIG    1      -36.365  75.561  27.284  0.00  0.00    +0.248 C 
ATOM     31  N   LIG    1      -36.701  75.722  25.952  0.00  0.00    -0.281 N 
ATOM     32  H   LIG    1      -36.002  76.136  25.346  0.00  0.00    +0.155 HD
ATOM     33  O   LIG    1      -37.129  75.238  28.185  0.00  0.00    -0.270 OA
BRANCH  30  36
ATOM     34  C   LIG    1      -33.093  77.497  27.555  0.00  0.00    +0.056 A 
ATOM     35  C   LIG    1      -34.409  77.124  27.219  0.00  0.00    +0.025 A 
ATOM     36  C   LIG    1      -34.942  75.889  27.634  0.00  0.00    +0.038 A 
ATOM     37  C   LIG    1      -34.141  75.021  28.388  0.00  0.00    +0.013 A 
ATOM     38  C   LIG    1      -32.844  75.398  28.752  0.00  0.00    +0.001 A 
ATOM     39  C   LIG    1      -32.327  76.629  28.348  0.00  0.00    +0.012 A 
BRANCH  34  41
ATOM     40  F   LIG    1      -31.366  79.163  27.693  0.00  0.00    -0.166 F 
ATOM     41  C   LIG    1      -32.512  78.797  27.050  0.00  0.00    +0.417 C 
ATOM     42  F   LIG    1      -32.188  78.739  25.729  0.00  0.00    -0.166 F 
ATOM     43  F   LIG    1      -33.365  79.849  27.185  0.00  0.00    -0.166 F 
ENDBRANCH  34  41
ENDBRANCH  30  36
ENDBRANCH  24  31
ENDBRANCH   1  26
TORSDOF 9
ENDMDL
MODEL 5
REMARK VINA RESULT:      -6.7      1.787      2.080
REMARK  Name = modded_pdb/CHEMBL2037208_nitrogen_modded_with_ethanol_version_3.pdb
REMARK                            x       y       z     vdW  Elec       q    Type
REMARK                         _______ _______ _______ _____ _____    ______ ____
ROOT
ATOM      1  N   LIG    1      -40.757  72.709  24.547  0.00  0.00    -0.314 N 
ATOM      2  H   LIG    1      -41.001  72.423  25.494  0.00  0.00    +0.152 HD
ENDROOT
BRANCH   1   3
ATOM      3  C   LIG    1      -40.316  71.597  23.787  0.00  0.00    +0.033 A 
ATOM      4  C   LIG    1      -39.141  70.914  24.124  0.00  0.00    +0.047 A 
ATOM      5  C   LIG    1      -38.725  69.864  23.331  0.00  0.00    +0.046 A 
ATOM      6  N   LIG    1      -37.551  69.112  23.458  0.00  0.00    -0.265 N 
ATOM      7  C   LIG    1      -37.463  68.145  22.460  0.00  0.00    +0.252 C 
ATOM      8  O   LIG    1      -36.581  67.333  22.323  0.00  0.00    -0.270 OA
ATOM      9  C   LIG    1      -38.709  68.331  21.617  0.00  0.00    +0.048 C 
ATOM     10  C   LIG    1      -39.079  67.688  20.498  0.00  0.00    +0.039 C 
ATOM     11  C   LIG    1      -39.467  69.434  22.228  0.00  0.00    +0.009 A 
ATOM     12  C   LIG    1      -40.657  70.067  21.903  0.00  0.00    +0.012 A 
ATOM     13  C   LIG    1      -41.082  71.147  22.693  0.00  0.00    +0.024 A 
BRANCH  10  14
ATOM     14  C   LIG    1      -38.370  66.657  19.828  0.00  0.00    +0.040 A 
ATOM     15  N   LIG    1      -38.238  65.397  20.366  0.00  0.00    -0.361 N 
ATOM     16  H   LIG    1      -38.542  65.126  21.295  0.00  0.00    +0.165 HD
ATOM     17  C   LIG    1      -37.511  64.596  19.526  0.00  0.00    +0.083 A 
ATOM     18  C   LIG    1      -37.187  65.335  18.414  0.00  0.00    +0.019 A 
ATOM     19  C   LIG    1      -37.744  66.625  18.594  0.00  0.00    +0.027 A 
ENDBRANCH  10  14
BRANCH   6  20
ATOM     20  C   LIG    1      -36.503  69.338  24.434  0.00  0.00    +0.142 C 
BRANCH  20  21
ATOM     21  C   LIG    1      -36.695  68.497  25.703  0.00  0.00    +0.175 C 
BRANCH  21  22
ATOM     22  O   LIG    1      -35.512  68.444  26.504  0.00  0.00    -0.393 OA
ATOM     23  H   LIG    1      -34.802  68.808  25.943  0.00  0.00    +0.209 HD
ENDBRANCH  21  22
ENDBRANCH  20  21
ENDBRANCH   6  20
ENDBRANCH   1   3
BRANCH   1  26
ATOM     24  C   LIG    1      -38.359  75.560  24.988  0.00  0.00    +0.035 A 
ATOM     25  C   LIG    1      -38.942  74.289  25.039  0.00  0.00    +0.046 A 
ATOM     26  C   LIG    1      -40.211  74.016  24.499  0.00  0.00    +0.033 A 
ATOM     27  C   LIG    1      -40.882  75.051  23.845  0.00  0.00    +0.023 A 
ATOM     28  C   LIG    1      -40.312  76.329  23.783  0.00  0.00    +0.004 A 
ATOM     29  C   LIG    1      -39.054  76.583  24.348  0.00  0.00    +0.023 A 
BRANCH  24  31
ATOM     30  C   LIG    1      -36.848  75.967  26.948  0.00  0.00    +0.248 C 
ATOM     31  N   LIG    1      -37.100  75.697  25.616  0.00  0.00    -0.281 N 
ATOM     32  H   LIG    1      -36.307  75.699  24.985  0.00  0.00    +0.155 HD
ATOM     33  O   LIG    1      -37.689  76.170  27.815  0.00  0.00    -0.270 OA
BRANCH  30  36
ATOM     34  C   LIG    1      -33.371  77.465  27.392  0.00  0.00    +0.056 A 
ATOM     35  C   LIG    1      -34.721  77.287  27.032  0.00  0.00    +0.025 A 
ATOM     36  C   LIG    1      -35.396  76.087  27.317  0.00  0.00    +0.038 A 
ATOM     37  C   LIG    1      -34.705  75.054  27.966  0.00  0.00    +0.013 A 
ATOM     38  C   LIG    1      -33.374  75.234  28.355  0.00  0.00    +0.001 A 
ATOM     39  C   LIG    1      -32.714  76.433  28.079  0.00  0.00    +0.012 A 
BRANCH  34  41
ATOM     40  F   LIG    1      -33.382  79.863  27.216  0.00  0.00    -0.166 F 
ATOM     41  C   LIG    1      -32.639  78.735  27.024  0.00  0.00    +0.417 C 
ATOM     42  F   LIG    1      -31.508  78.911  27.761  0.00  0.00    -0.166 F 
ATOM     43  F   LIG    1      -32.250  78.765  25.720  0.00  0.00    -0.166 F 
ENDBRANCH  34  41
ENDBRANCH  30  36
ENDBRANCH  24  31
ENDBRANCH   1  26
TORSDOF 9
ENDMDL
MODEL 6
REMARK VINA RESULT:      -6.7      6.475     13.437
REMARK  Name = modded_pdb/CHEMBL2037208_nitrogen_modded_with_ethanol_version_3.pdb
REMARK                            x       y       z     vdW  Elec       q    Type
REMARK                         _______ _______ _______ _____ _____    ______ ____
ROOT
ATOM      1  N   LIG    1      -36.096  79.478  29.315  0.00  0.00    -0.314 N 
ATOM      2  H   LIG    1      -36.895  79.217  29.889  0.00  0.00    +0.152 HD
ENDROOT
BRANCH   1   3
ATOM      3  C   LIG    1      -36.270  80.779  28.779  0.00  0.00    +0.033 A 
ATOM      4  C   LIG    1      -37.341  81.071  27.926  0.00  0.00    +0.047 A 
ATOM      5  C   LIG    1      -37.448  82.338  27.392  0.00  0.00    +0.046 A 
ATOM      6  N   LIG    1      -38.396  82.800  26.471  0.00  0.00    -0.265 N 
ATOM      7  C   LIG    1      -38.175  84.136  26.149  0.00  0.00    +0.252 C 
ATOM      8  O   LIG    1      -38.839  84.815  25.403  0.00  0.00    -0.270 OA
ATOM      9  C   LIG    1      -36.949  84.539  26.945  0.00  0.00    +0.048 C 
ATOM     10  C   LIG    1      -36.289  85.708  26.950  0.00  0.00    +0.039 C 
ATOM     11  C   LIG    1      -36.542  83.353  27.715  0.00  0.00    +0.009 A 
ATOM     12  C   LIG    1      -35.500  83.099  28.593  0.00  0.00    +0.012 A 
ATOM     13  C   LIG    1      -35.372  81.807  29.129  0.00  0.00    +0.024 A 
BRANCH  10  14
ATOM     14  C   LIG    1      -36.593  86.868  26.192  0.00  0.00    +0.040 A 
ATOM     15  N   LIG    1      -36.391  86.921  24.831  0.00  0.00    -0.361 N 
ATOM     16  H   LIG    1      -35.937  86.199  24.281  0.00  0.00    +0.165 HD
ATOM     17  C   LIG    1      -36.761  88.146  24.344  0.00  0.00    +0.083 A 
ATOM     18  C   LIG    1      -37.235  88.892  25.395  0.00  0.00    +0.019 A 
ATOM     19  C   LIG    1      -37.149  88.082  26.554  0.00  0.00    +0.027 A 
ENDBRANCH  10  14
BRANCH   6  20
ATOM     20  C   LIG    1      -39.431  81.998  25.850  0.00  0.00    +0.142 C 
BRANCH  20  21
ATOM     21  C   LIG    1      -38.972  81.370  24.528  0.00  0.00    +0.175 C 
BRANCH  21  22
ATOM     22  O   LIG    1      -38.800  82.342  23.494  0.00  0.00    -0.393 OA
ATOM     23  H   LIG    1      -37.982  82.822  23.724  0.00  0.00    +0.209 HD
ENDBRANCH  21  22
ENDBRANCH  20  21
ENDBRANCH   6  20
ENDBRANCH   1   3
BRANCH   1  26
ATOM     24  C   LIG    1      -35.813  76.398  27.192  0.00  0.00    +0.035 A 
ATOM     25  C   LIG    1      -36.337  77.488  27.897  0.00  0.00    +0.046 A 
ATOM     26  C   LIG    1      -35.530  78.371  28.635  0.00  0.00    +0.033 A 
ATOM     27  C   LIG    1      -34.150  78.169  28.615  0.00  0.00    +0.023 A 
ATOM     28  C   LIG    1      -33.608  77.085  27.913  0.00  0.00    +0.004 A 
ATOM     29  C   LIG    1      -34.434  76.204  27.202  0.00  0.00    +0.023 A 
BRANCH  24  31
ATOM     30  C   LIG    1      -37.346  75.776  25.306  0.00  0.00    +0.248 C 
ATOM     31  N   LIG    1      -36.750  75.568  26.536  0.00  0.00    -0.281 N 
ATOM     32  H   LIG    1      -37.093  74.791  27.090  0.00  0.00    +0.155 HD
ATOM     33  O   LIG    1      -37.182  76.750  24.581  0.00  0.00    -0.270 OA
BRANCH  30  36
ATOM     34  C   LIG    1      -40.529  74.192  23.933  0.00  0.00    +0.056 A 
ATOM     35  C   LIG    1      -39.582  75.134  24.380  0.00  0.00    +0.025 A 
ATOM     36  C   LIG    1      -38.334  74.727  24.883  0.00  0.00    +0.038 A 
ATOM     37  C   LIG    1      -38.037  73.358  24.941  0.00  0.00    +0.013 A 
ATOM     38  C   LIG    1      -38.959  72.417  24.470  0.00  0.00    +0.001 A 
ATOM     39  C   LIG    1      -40.191  72.830  23.961  0.00  0.00    +0.012 A 
BRANCH  34  41
ATOM     40  F   LIG    1      -41.852  75.768  22.690  0.00  0.00    -0.166 F 
ATOM     41  C   LIG    1      -41.891  74.639  23.455  0.00  0.00    +0.417 C 
ATOM     42  F   LIG    1      -42.503  73.697  22.685  0.00  0.00    -0.166 F 
ATOM     43  F   LIG    1      -42.750  74.911  24.475  0.00  0.00    -0.166 F 
ENDBRANCH  34  41
ENDBRANCH  30  36
ENDBRANCH  24  31
ENDBRANCH   1  26
TORSDOF 9
ENDMDL
MODEL 7
REMARK VINA RESULT:      -6.7      3.982      7.451
REMARK  Name = modded_pdb/CHEMBL2037208_nitrogen_modded_with_ethanol_version_3.pdb
REMARK                            x       y       z     vdW  Elec       q    Type
REMARK                         _______ _______ _______ _____ _____    ______ ____
ROOT
ATOM      1  N   LIG    1      -37.731  70.531  24.825  0.00  0.00    -0.314 N 
ATOM      2  H   LIG    1      -37.063  70.376  24.073  0.00  0.00    +0.152 HD
ENDROOT
BRANCH   1   3
ATOM      3  C   LIG    1      -38.722  71.464  24.427  0.00  0.00    +0.033 A 
ATOM      4  C   LIG    1      -38.560  72.834  24.666  0.00  0.00    +0.047 A 
ATOM      5  C   LIG    1      -39.568  73.702  24.301  0.00  0.00    +0.046 A 
ATOM      6  N   LIG    1      -39.627  75.084  24.520  0.00  0.00    -0.265 N 
ATOM      7  C   LIG    1      -40.812  75.621  24.028  0.00  0.00    +0.252 C 
ATOM      8  O   LIG    1      -41.137  76.784  24.048  0.00  0.00    -0.270 OA
ATOM      9  C   LIG    1      -41.576  74.443  23.457  0.00  0.00    +0.048 C 
ATOM     10  C   LIG    1      -42.802  74.412  22.912  0.00  0.00    +0.039 C 
ATOM     11  C   LIG    1      -40.728  73.257  23.659  0.00  0.00    +0.009 A 
ATOM     12  C   LIG    1      -40.889  71.911  23.372  0.00  0.00    +0.012 A 
ATOM     13  C   LIG    1      -39.876  71.016  23.754  0.00  0.00    +0.024 A 
BRANCH  10  14
ATOM     14  C   LIG    1      -43.692  75.504  22.739  0.00  0.00    +0.040 A 
ATOM     15  N   LIG    1      -44.231  76.178  23.810  0.00  0.00    -0.361 N 
ATOM     16  H   LIG    1      -44.123  75.909  24.782  0.00  0.00    +0.165 HD
ATOM     17  C   LIG    1      -45.054  77.182  23.373  0.00  0.00    +0.083 A 
ATOM     18  C   LIG    1      -45.030  77.180  22.000  0.00  0.00    +0.019 A 
ATOM     19  C   LIG    1      -44.158  76.137  21.600  0.00  0.00    +0.027 A 
ENDBRANCH  10  14
BRANCH   6  20
ATOM     20  C   LIG    1      -38.641  75.868  25.237  0.00  0.00    +0.142 C 
BRANCH  20  21
ATOM     21  C   LIG    1      -37.571  76.455  24.308  0.00  0.00    +0.175 C 
BRANCH  21  22
ATOM     22  O   LIG    1      -38.058  77.565  23.550  0.00  0.00    -0.393 OA
ATOM     23  H   LIG    1      -38.929  77.285  23.211  0.00  0.00    +0.209 HD
ENDBRANCH  21  22
ENDBRANCH  20  21
ENDBRANCH   6  20
ENDBRANCH   1   3
BRANCH   1  26
ATOM     24  C   LIG    1      -35.599  71.379  27.793  0.00  0.00    +0.035 A 
ATOM     25  C   LIG    1      -36.191  71.408  26.525  0.00  0.00    +0.046 A 
ATOM     26  C   LIG    1      -37.134  70.453  26.108  0.00  0.00    +0.033 A 
ATOM     27  C   LIG    1      -37.522  69.472  27.022  0.00  0.00    +0.023 A 
ATOM     28  C   LIG    1      -36.941  69.429  28.296  0.00  0.00    +0.004 A 
ATOM     29  C   LIG    1      -35.985  70.379  28.682  0.00  0.00    +0.023 A 
BRANCH  24  31
ATOM     30  C   LIG    1      -34.837  73.627  28.604  0.00  0.00    +0.248 C 
ATOM     31  N   LIG    1      -34.631  72.375  28.055  0.00  0.00    -0.281 N 
ATOM     32  H   LIG    1      -33.705  72.174  27.696  0.00  0.00    +0.155 HD
ATOM     33  O   LIG    1      -35.917  74.102  28.931  0.00  0.00    -0.270 OA
BRANCH  30  36
ATOM     34  C   LIG    1      -32.458  76.573  28.170  0.00  0.00    +0.056 A 
ATOM     35  C   LIG    1      -33.569  75.715  28.052  0.00  0.00    +0.025 A 
ATOM     36  C   LIG    1      -33.610  74.484  28.731  0.00  0.00    +0.038 A 
ATOM     37  C   LIG    1      -32.521  74.112  29.531  0.00  0.00    +0.013 A 
ATOM     38  C   LIG    1      -31.428  74.972  29.678  0.00  0.00    +0.001 A 
ATOM     39  C   LIG    1      -31.400  76.198  29.011  0.00  0.00    +0.012 A 
BRANCH  34  41
ATOM     40  F   LIG    1      -31.695  78.848  28.014  0.00  0.00    -0.166 F 
ATOM     41  C   LIG    1      -32.399  77.864  27.385  0.00  0.00    +0.417 C 
ATOM     42  F   LIG    1      -31.801  77.704  26.172  0.00  0.00    -0.166 F 
ATOM     43  F   LIG    1      -33.629  78.390  27.134  0.00  0.00    -0.166 F 
ENDBRANCH  34  41
ENDBRANCH  30  36
ENDBRANCH  24  31
ENDBRANCH   1  26
TORSDOF 9
ENDMDL
MODEL 8
REMARK VINA RESULT:      -6.6      6.522     12.408
REMARK  Name = modded_pdb/CHEMBL2037208_nitrogen_modded_with_ethanol_version_3.pdb
REMARK                            x       y       z     vdW  Elec       q    Type
REMARK                         _______ _______ _______ _____ _____    ______ ____
ROOT
ATOM      1  N   LIG    1      -37.009  80.627  28.089  0.00  0.00    -0.314 N 
ATOM      2  H   LIG    1      -37.556  80.737  28.941  0.00  0.00    +0.152 HD
ENDROOT
BRANCH   1   3
ATOM      3  C   LIG    1      -37.611  81.330  27.015  0.00  0.00    +0.033 A 
ATOM      4  C   LIG    1      -38.761  80.839  26.385  0.00  0.00    +0.047 A 
ATOM      5  C   LIG    1      -39.289  81.532  25.316  0.00  0.00    +0.046 A 
ATOM      6  N   LIG    1      -40.378  81.168  24.516  0.00  0.00    -0.265 N 
ATOM      7  C   LIG    1      -40.607  82.111  23.518  0.00  0.00    +0.252 C 
ATOM      8  O   LIG    1      -41.488  82.085  22.692  0.00  0.00    -0.270 OA
ATOM      9  C   LIG    1      -39.533  83.163  23.713  0.00  0.00    +0.048 C 
ATOM     10  C   LIG    1      -39.276  84.258  22.978  0.00  0.00    +0.039 C 
ATOM     11  C   LIG    1      -38.735  82.737  24.873  0.00  0.00    +0.009 A 
ATOM     12  C   LIG    1      -37.623  83.266  25.510  0.00  0.00    +0.012 A 
ATOM     13  C   LIG    1      -37.068  82.559  26.590  0.00  0.00    +0.024 A 
BRANCH  10  14
ATOM     14  C   LIG    1      -39.969  84.695  21.820  0.00  0.00    +0.040 A 
ATOM     15  N   LIG    1      -40.826  85.771  21.849  0.00  0.00    -0.361 N 
ATOM     16  H   LIG    1      -41.104  86.272  22.685  0.00  0.00    +0.165 HD
ATOM     17  C   LIG    1      -41.366  85.982  20.607  0.00  0.00    +0.083 A 
ATOM     18  C   LIG    1      -40.832  85.048  19.752  0.00  0.00    +0.019 A 
ATOM     19  C   LIG    1      -39.939  84.251  20.510  0.00  0.00    +0.027 A 
ENDBRANCH  10  14
BRANCH   6  20
ATOM     20  C   LIG    1      -41.137  79.938  24.630  0.00  0.00    +0.142 C 
BRANCH  20  21
ATOM     21  C   LIG    1      -40.641  78.853  23.667  0.00  0.00    +0.175 C 
BRANCH  21  22
ATOM     22  O   LIG    1      -39.230  78.923  23.448  0.00  0.00    -0.393 OA
ATOM     23  H   LIG    1      -38.941  79.745  23.886  0.00  0.00    +0.209 HD
ENDBRANCH  21  22
ENDBRANCH  20  21
ENDBRANCH   6  20
ENDBRANCH   1   3
BRANCH   1  26
ATOM     24  C   LIG    1      -36.426  77.025  27.220  0.00  0.00    +0.035 A 
ATOM     25  C   LIG    1      -37.019  78.286  27.347  0.00  0.00    +0.046 A 
ATOM     26  C   LIG    1      -36.386  79.357  28.002  0.00  0.00    +0.033 A 
ATOM     27  C   LIG    1      -35.097  79.155  28.495  0.00  0.00    +0.023 A 
ATOM     28  C   LIG    1      -34.487  77.899  28.374  0.00  0.00    +0.004 A 
ATOM     29  C   LIG    1      -35.146  76.838  27.737  0.00  0.00    +0.023 A 
BRANCH  24  31
ATOM     30  C   LIG    1      -37.556  75.967  25.245  0.00  0.00    +0.248 C 
ATOM     31  N   LIG    1      -37.201  76.031  26.580  0.00  0.00    -0.281 N 
ATOM     32  H   LIG    1      -37.624  75.353  27.204  0.00  0.00    +0.155 HD
ATOM     33  O   LIG    1      -37.280  76.795  24.386  0.00  0.00    -0.270 OA
BRANCH  30  36
ATOM     34  C   LIG    1      -40.522  73.987  23.901  0.00  0.00    +0.056 A 
ATOM     35  C   LIG    1      -39.689  75.046  24.312  0.00  0.00    +0.025 A 
ATOM     36  C   LIG    1      -38.420  74.799  24.864  0.00  0.00    +0.038 A 
ATOM     37  C   LIG    1      -37.987  73.474  25.009  0.00  0.00    +0.013 A 
ATOM     38  C   LIG    1      -38.795  72.418  24.575  0.00  0.00    +0.001 A 
ATOM     39  C   LIG    1      -40.049  72.672  24.016  0.00  0.00    +0.012 A 
BRANCH  34  41
ATOM     40  F   LIG    1      -42.310  73.374  22.416  0.00  0.00    -0.166 F 
ATOM     41  C   LIG    1      -41.909  74.263  23.369  0.00  0.00    +0.417 C 
ATOM     42  F   LIG    1      -42.858  74.207  24.344  0.00  0.00    -0.166 F 
ATOM     43  F   LIG    1      -42.025  75.494  22.799  0.00  0.00    -0.166 F 
ENDBRANCH  34  41
ENDBRANCH  30  36
ENDBRANCH  24  31
ENDBRANCH   1  26
TORSDOF 9
ENDMDL
MODEL 9
REMARK VINA RESULT:      -6.6      4.877      9.648
REMARK  Name = modded_pdb/CHEMBL2037208_nitrogen_modded_with_ethanol_version_3.pdb
REMARK                            x       y       z     vdW  Elec       q    Type
REMARK                         _______ _______ _______ _____ _____    ______ ____
ROOT
ATOM      1  N   LIG    1      -37.004  66.361  19.072  0.00  0.00    -0.314 N 
ATOM      2  H   LIG    1      -37.925  66.072  18.746  0.00  0.00    +0.152 HD
ENDROOT
BRANCH   1   3
ATOM      3  C   LIG    1      -37.119  67.259  20.162  0.00  0.00    +0.033 A 
ATOM      4  C   LIG    1      -36.312  67.122  21.298  0.00  0.00    +0.047 A 
ATOM      5  C   LIG    1      -36.486  67.992  22.354  0.00  0.00    +0.046 A 
ATOM      6  N   LIG    1      -35.836  67.973  23.593  0.00  0.00    -0.265 N 
ATOM      7  C   LIG    1      -36.289  69.001  24.415  0.00  0.00    +0.252 C 
ATOM      8  O   LIG    1      -35.899  69.254  25.530  0.00  0.00    -0.270 OA
ATOM      9  C   LIG    1      -37.344  69.724  23.603  0.00  0.00    +0.048 C 
ATOM     10  C   LIG    1      -38.128  70.755  23.956  0.00  0.00    +0.039 C 
ATOM     11  C   LIG    1      -37.416  69.035  22.304  0.00  0.00    +0.009 A 
ATOM     12  C   LIG    1      -38.194  69.217  21.171  0.00  0.00    +0.012 A 
ATOM     13  C   LIG    1      -38.036  68.327  20.096  0.00  0.00    +0.024 A 
BRANCH  10  14
ATOM     14  C   LIG    1      -38.148  71.426  25.207  0.00  0.00    +0.040 A 
ATOM     15  N   LIG    1      -37.126  72.258  25.602  0.00  0.00    -0.361 N 
ATOM     16  H   LIG    1      -36.254  72.389  25.099  0.00  0.00    +0.165 HD
ATOM     17  C   LIG    1      -37.387  72.775  26.843  0.00  0.00    +0.083 A 
ATOM     18  C   LIG    1      -38.608  72.296  27.251  0.00  0.00    +0.019 A 
ATOM     19  C   LIG    1      -39.097  71.463  26.213  0.00  0.00    +0.027 A 
ENDBRANCH  10  14
BRANCH   6  20
ATOM     20  C   LIG    1      -34.875  66.978  24.028  0.00  0.00    +0.142 C 
BRANCH  20  21
ATOM     21  C   LIG    1      -35.538  65.801  24.753  0.00  0.00    +0.175 C 
BRANCH  21  22
ATOM     22  O   LIG    1      -34.675  65.203  25.723  0.00  0.00    -0.393 OA
ATOM     23  H   LIG    1      -35.120  64.377  25.992  0.00  0.00    +0.209 HD
ENDBRANCH  21  22
ENDBRANCH  20  21
ENDBRANCH   6  20
ENDBRANCH   1   3
BRANCH   1  26
ATOM     24  C   LIG    1      -33.968  67.385  17.121  0.00  0.00    +0.035 A 
ATOM     25  C   LIG    1      -34.935  67.288  18.128  0.00  0.00    +0.046 A 
ATOM     26  C   LIG    1      -36.059  66.451  18.019  0.00  0.00    +0.033 A 
ATOM     27  C   LIG    1      -36.175  65.654  16.880  0.00  0.00    +0.023 A 
ATOM     28  C   LIG    1      -35.215  65.736  15.864  0.00  0.00    +0.004 A 
ATOM     29  C   LIG    1      -34.113  66.596  15.983  0.00  0.00    +0.023 A 
BRANCH  24  31
ATOM     30  C   LIG    1      -31.767  68.107  18.085  0.00  0.00    +0.248 C 
ATOM     31  N   LIG    1      -32.919  68.306  17.348  0.00  0.00    -0.281 N 
ATOM     32  H   LIG    1      -33.098  69.246  17.014  0.00  0.00    +0.155 HD
ATOM     33  O   LIG    1      -31.473  67.091  18.704  0.00  0.00    -0.270 OA
BRANCH  30  36
ATOM     34  C   LIG    1      -28.606  70.158  18.658  0.00  0.00    +0.056 A 
ATOM     35  C   LIG    1      -29.520  69.088  18.596  0.00  0.00    +0.025 A 
ATOM     36  C   LIG    1      -30.846  69.290  18.173  0.00  0.00    +0.038 A 
ATOM     37  C   LIG    1      -31.257  70.582  17.816  0.00  0.00    +0.013 A 
ATOM     38  C   LIG    1      -30.347  71.643  17.845  0.00  0.00    +0.001 A 
ATOM     39  C   LIG    1      -29.029  71.432  18.254  0.00  0.00    +0.012 A 
BRANCH  34  41
ATOM     40  F   LIG    1      -26.707  68.700  18.888  0.00  0.00    -0.166 F 
ATOM     41  C   LIG    1      -27.202  69.938  19.174  0.00  0.00    +0.417 C 
ATOM     42  F   LIG    1      -26.312  70.820  18.640  0.00  0.00    -0.166 F 
ATOM     43  F   LIG    1      -27.105  70.074  20.525  0.00  0.00    -0.166 F 
ENDBRANCH  34  41
ENDBRANCH  30  36
ENDBRANCH  24  31
ENDBRANCH   1  26
TORSDOF 9
ENDMDL
