MODEL 1
REMARK VINA RESULT:      -6.6      0.000      0.000
REMARK  Name = pdb/CHEMBL3896188.pdb
REMARK                            x       y       z     vdW  Elec       q    Type
REMARK                         _______ _______ _______ _____ _____    ______ ____
ROOT
ATOM      1  C   LIG    1      -26.587  75.980  32.003  0.00  0.00    +0.149 A 
ATOM      2  N   LIG    1      -25.511  75.595  31.301  0.00  0.00    -0.160 NA
ATOM      3  N   LIG    1      -24.518  76.487  31.640  0.00  0.00    -0.218 N 
ATOM      4  C   LIG    1      -25.003  77.485  32.522  0.00  0.00    +0.129 A 
ATOM      5  C   LIG    1      -26.317  77.148  32.732  0.00  0.00    +0.078 A 
ENDROOT
BRANCH   3   6
ATOM      6  C   LIG    1      -23.218  76.304  31.089  0.00  0.00    +0.067 A 
ATOM      7  C   LIG    1      -22.843  76.873  29.867  0.00  0.00    +0.028 A 
ATOM      8  C   LIG    1      -21.528  76.728  29.402  0.00  0.00    +0.002 A 
ATOM      9  C   LIG    1      -20.583  76.024  30.148  0.00  0.00    +0.000 A 
ATOM     10  C   LIG    1      -20.950  75.448  31.360  0.00  0.00    +0.002 A 
ATOM     11  C   LIG    1      -22.259  75.584  31.829  0.00  0.00    +0.028 A 
ENDBRANCH   3   6
BRANCH   4  12
ATOM     12  N   LIG    1      -24.362  78.618  33.053  0.00  0.00    -0.266 N 
ATOM     13  H   LIG    1      -24.536  79.534  32.635  0.00  0.00    +0.157 HD
ATOM     14  C   LIG    1      -23.517  78.518  34.213  0.00  0.00    +0.251 C 
ATOM     15  O   LIG    1      -23.263  77.428  34.701  0.00  0.00    -0.270 OA
BRANCH  14  16
ATOM     16  C   LIG    1      -22.868  79.692  34.830  0.00  0.00    +0.056 A 
ATOM     17  C   LIG    1      -21.524  80.011  34.759  0.00  0.00    +0.054 A 
ATOM     18 CL   LIG    1      -20.385  79.118  33.823  0.00  0.00    -0.083 Cl
ATOM     19  C   LIG    1      -21.057  81.126  35.456  0.00  0.00    +0.041 A 
ATOM     20  C   LIG    1      -21.923  81.931  36.222  0.00  0.00    +0.052 A 
ATOM     21 CL   LIG    1      -21.140  83.191  37.112  0.00  0.00    -0.083 Cl
ATOM     22  C   LIG    1      -23.303  81.673  36.276  0.00  0.00    +0.019 A 
ATOM     23  C   LIG    1      -23.739  80.548  35.548  0.00  0.00    +0.026 A 
BRANCH  22  24
ATOM     24  C   LIG    1      -24.316  82.438  37.049  0.00  0.00    +0.072 A 
ATOM     25  N   LIG    1      -25.262  83.069  36.297  0.00  0.00    -0.255 NA
ATOM     26  C   LIG    1      -26.214  83.793  36.935  0.00  0.00    +0.111 A 
ATOM     27  C   LIG    1      -26.286  83.929  38.308  0.00  0.00    +0.020 A 
ATOM     28  C   LIG    1      -25.316  83.297  39.069  0.00  0.00    +0.004 A 
ATOM     29  C   LIG    1      -24.317  82.561  38.436  0.00  0.00    +0.028 A 
ENDBRANCH  22  24
ENDBRANCH  14  16
ENDBRANCH   4  12
BRANCH   1  31
ATOM     30  N   LIG    1      -28.952  75.894  31.700  0.00  0.00    -0.244 NA
ATOM     31  C   LIG    1      -27.862  75.269  31.968  0.00  0.00    +0.236 C 
BRANCH  31  32
ATOM     32  O   LIG    1      -27.779  73.947  32.228  0.00  0.00    -0.491 OA
ATOM     33  H   LIG    1      -26.844  73.673  32.165  0.00  0.00    +0.294 HD
ENDBRANCH  31  32
BRANCH  30  34
ATOM     34  C   LIG    1      -30.186  75.104  31.702  0.00  0.00    +0.183 C 
BRANCH  34  39
ATOM     35  C   LIG    1      -34.361  77.041  29.621  0.00  0.00    +0.172 C 
ATOM     36  N   LIG    1      -33.021  76.570  29.878  0.00  0.00    -0.274 N 
ATOM     37  N   LIG    1      -32.112  76.623  28.890  0.00  0.00    -0.180 NA
ATOM     38  C   LIG    1      -31.020  76.090  29.443  0.00  0.00    +0.139 A 
ATOM     39  C   LIG    1      -31.213  75.701  30.793  0.00  0.00    +0.011 A 
ATOM     40  C   LIG    1      -32.531  76.044  31.038  0.00  0.00    +0.113 A 
ENDBRANCH  34  39
ENDBRANCH  30  34
ENDBRANCH   1  31
TORSDOF 8
ENDMDL
MODEL 2
REMARK VINA RESULT:      -6.6     12.701     17.007
REMARK  Name = pdb/CHEMBL3896188.pdb
REMARK                            x       y       z     vdW  Elec       q    Type
REMARK                         _______ _______ _______ _____ _____    ______ ____
ROOT
ATOM      1  C   LIG    1      -37.034  80.045  27.570  0.00  0.00    +0.149 A 
ATOM      2  N   LIG    1      -36.081  79.281  28.124  0.00  0.00    -0.160 NA
ATOM      3  N   LIG    1      -36.411  77.988  27.786  0.00  0.00    -0.218 N 
ATOM      4  C   LIG    1      -37.628  77.940  27.060  0.00  0.00    +0.129 A 
ATOM      5  C   LIG    1      -38.008  79.254  26.942  0.00  0.00    +0.078 A 
ENDROOT
BRANCH   3   6
ATOM      6  C   LIG    1      -35.543  76.933  28.189  0.00  0.00    +0.067 A 
ATOM      7  C   LIG    1      -35.718  76.249  29.396  0.00  0.00    +0.028 A 
ATOM      8  C   LIG    1      -34.884  75.168  29.715  0.00  0.00    +0.002 A 
ATOM      9  C   LIG    1      -33.880  74.761  28.837  0.00  0.00    +0.000 A 
ATOM     10  C   LIG    1      -33.692  75.442  27.639  0.00  0.00    +0.002 A 
ATOM     11  C   LIG    1      -34.517  76.523  27.315  0.00  0.00    +0.028 A 
ENDBRANCH   3   6
BRANCH   4  12
ATOM     12  N   LIG    1      -38.364  76.838  26.591  0.00  0.00    -0.266 N 
ATOM     13  H   LIG    1      -39.159  76.497  27.135  0.00  0.00    +0.157 HD
ATOM     14  C   LIG    1      -38.056  76.225  25.326  0.00  0.00    +0.251 C 
ATOM     15  O   LIG    1      -37.086  76.590  24.682  0.00  0.00    -0.270 OA
BRANCH  14  16
ATOM     16  C   LIG    1      -38.837  75.099  24.775  0.00  0.00    +0.056 A 
ATOM     17  C   LIG    1      -40.057  75.191  24.130  0.00  0.00    +0.054 A 
ATOM     18 CL   LIG    1      -40.826  76.690  23.765  0.00  0.00    -0.083 Cl
ATOM     19  C   LIG    1      -40.697  74.019  23.726  0.00  0.00    +0.041 A 
ATOM     20  C   LIG    1      -40.127  72.752  23.956  0.00  0.00    +0.052 A 
ATOM     21 CL   LIG    1      -41.125  71.416  23.496  0.00  0.00    -0.083 Cl
ATOM     22  C   LIG    1      -38.864  72.618  24.559  0.00  0.00    +0.019 A 
ATOM     23  C   LIG    1      -38.243  73.823  24.940  0.00  0.00    +0.026 A 
BRANCH  22  24
ATOM     24  C   LIG    1      -38.161  71.344  24.863  0.00  0.00    +0.072 A 
ATOM     25  N   LIG    1      -38.089  71.026  26.186  0.00  0.00    -0.255 NA
ATOM     26  C   LIG    1      -37.454  69.881  26.540  0.00  0.00    +0.111 A 
ATOM     27  C   LIG    1      -36.876  69.012  25.634  0.00  0.00    +0.020 A 
ATOM     28  C   LIG    1      -36.941  69.344  24.291  0.00  0.00    +0.004 A 
ATOM     29  C   LIG    1      -37.572  70.524  23.905  0.00  0.00    +0.028 A 
ENDBRANCH  22  24
ENDBRANCH  14  16
ENDBRANCH   4  12
BRANCH   1  31
ATOM     30  N   LIG    1      -36.329  82.207  26.846  0.00  0.00    -0.244 NA
ATOM     31  C   LIG    1      -37.039  81.503  27.653  0.00  0.00    +0.236 C 
BRANCH  31  32
ATOM     32  O   LIG    1      -37.835  82.011  28.618  0.00  0.00    -0.491 OA
ATOM     33  H   LIG    1      -38.472  82.627  28.207  0.00  0.00    +0.294 HD
ENDBRANCH  31  32
BRANCH  30  34
ATOM     34  C   LIG    1      -36.383  83.662  27.013  0.00  0.00    +0.183 C 
BRANCH  34  39
ATOM     35  C   LIG    1      -38.572  84.739  22.590  0.00  0.00    +0.172 C 
ATOM     36  N   LIG    1      -37.980  84.804  23.905  0.00  0.00    -0.274 N 
ATOM     37  N   LIG    1      -37.838  86.002  24.497  0.00  0.00    -0.180 NA
ATOM     38  C   LIG    1      -37.240  85.709  25.654  0.00  0.00    +0.139 A 
ATOM     39  C   LIG    1      -37.004  84.321  25.822  0.00  0.00    +0.011 A 
ATOM     40  C   LIG    1      -37.514  83.768  24.660  0.00  0.00    +0.113 A 
ENDBRANCH  34  39
ENDBRANCH  30  34
ENDBRANCH   1  31
TORSDOF 8
ENDMDL
MODEL 3
REMARK VINA RESULT:      -6.6      6.056     13.302
REMARK  Name = pdb/CHEMBL3896188.pdb
REMARK                            x       y       z     vdW  Elec       q    Type
REMARK                         _______ _______ _______ _____ _____    ______ ____
ROOT
ATOM      1  C   LIG    1      -29.350  75.686  31.297  0.00  0.00    +0.149 A 
ATOM      2  N   LIG    1      -30.222  76.184  30.407  0.00  0.00    -0.160 NA
ATOM      3  N   LIG    1      -31.121  75.169  30.171  0.00  0.00    -0.218 N 
ATOM      4  C   LIG    1      -30.766  73.993  30.878  0.00  0.00    +0.129 A 
ATOM      5  C   LIG    1      -29.637  74.341  31.578  0.00  0.00    +0.078 A 
ENDROOT
BRANCH   3   6
ATOM      6  C   LIG    1      -32.216  75.415  29.296  0.00  0.00    +0.067 A 
ATOM      7  C   LIG    1      -32.390  76.645  28.652  0.00  0.00    +0.028 A 
ATOM      8  C   LIG    1      -33.442  76.816  27.741  0.00  0.00    +0.002 A 
ATOM      9  C   LIG    1      -34.321  75.768  27.465  0.00  0.00    +0.000 A 
ATOM     10  C   LIG    1      -34.162  74.545  28.108  0.00  0.00    +0.002 A 
ATOM     11  C   LIG    1      -33.118  74.368  29.020  0.00  0.00    +0.028 A 
ENDBRANCH   3   6
BRANCH   4  12
ATOM     12  N   LIG    1      -31.350  72.714  30.869  0.00  0.00    -0.266 N 
ATOM     13  H   LIG    1      -32.134  72.517  31.495  0.00  0.00    +0.157 HD
ATOM     14  C   LIG    1      -30.906  71.702  29.948  0.00  0.00    +0.251 C 
ATOM     15  O   LIG    1      -29.946  71.905  29.222  0.00  0.00    -0.270 OA
BRANCH  14  16
ATOM     16  C   LIG    1      -31.529  70.365  29.873  0.00  0.00    +0.056 A 
ATOM     17  C   LIG    1      -31.199  69.268  30.648  0.00  0.00    +0.054 A 
ATOM     18 CL   LIG    1      -30.051  69.324  31.933  0.00  0.00    -0.083 Cl
ATOM     19  C   LIG    1      -31.841  68.052  30.405  0.00  0.00    +0.041 A 
ATOM     20  C   LIG    1      -32.815  67.923  29.396  0.00  0.00    +0.052 A 
ATOM     21 CL   LIG    1      -33.405  66.314  29.164  0.00  0.00    -0.083 Cl
ATOM     22  C   LIG    1      -33.217  69.026  28.623  0.00  0.00    +0.019 A 
ATOM     23  C   LIG    1      -32.557  70.238  28.907  0.00  0.00    +0.026 A 
BRANCH  22  24
ATOM     24  C   LIG    1      -34.222  69.018  27.528  0.00  0.00    +0.072 A 
ATOM     25  N   LIG    1      -35.518  69.142  27.933  0.00  0.00    -0.255 NA
ATOM     26  C   LIG    1      -36.491  69.136  26.989  0.00  0.00    +0.111 A 
ATOM     27  C   LIG    1      -36.247  69.013  25.635  0.00  0.00    +0.020 A 
ATOM     28  C   LIG    1      -34.931  68.874  25.228  0.00  0.00    +0.004 A 
ATOM     29  C   LIG    1      -33.914  68.861  26.180  0.00  0.00    +0.028 A 
ENDBRANCH  22  24
ENDBRANCH  14  16
ENDBRANCH   4  12
BRANCH   1  31
ATOM     30  N   LIG    1      -27.038  76.251  31.468  0.00  0.00    -0.244 NA
ATOM     31  C   LIG    1      -28.245  76.460  31.855  0.00  0.00    +0.236 C 
BRANCH  31  32
ATOM     32  O   LIG    1      -28.608  77.379  32.774  0.00  0.00    -0.491 OA
ATOM     33  H   LIG    1      -29.339  77.017  33.310  0.00  0.00    +0.294 HD
ENDBRANCH  31  32
BRANCH  30  34
ATOM     34  C   LIG    1      -25.992  77.062  32.094  0.00  0.00    +0.183 C 
BRANCH  34  39
ATOM     35  C   LIG    1      -21.732  76.510  29.436  0.00  0.00    +0.172 C 
ATOM     36  N   LIG    1      -22.971  76.989  29.998  0.00  0.00    -0.274 N 
ATOM     37  N   LIG    1      -23.443  78.186  29.610  0.00  0.00    -0.180 NA
ATOM     38  C   LIG    1      -24.556  78.332  30.333  0.00  0.00    +0.139 A 
ATOM     39  C   LIG    1      -24.816  77.227  31.182  0.00  0.00    +0.011 A 
ATOM     40  C   LIG    1      -23.761  76.369  30.922  0.00  0.00    +0.113 A 
ENDBRANCH  34  39
ENDBRANCH  30  34
ENDBRANCH   1  31
TORSDOF 8
ENDMDL
MODEL 4
REMARK VINA RESULT:      -6.4     18.618     19.979
REMARK  Name = pdb/CHEMBL3896188.pdb
REMARK                            x       y       z     vdW  Elec       q    Type
REMARK                         _______ _______ _______ _____ _____    ______ ____
ROOT
ATOM      1  C   LIG    1      -24.377  78.338  14.676  0.00  0.00    +0.149 A 
ATOM      2  N   LIG    1      -23.364  77.575  15.115  0.00  0.00    -0.160 NA
ATOM      3  N   LIG    1      -22.228  78.323  14.903  0.00  0.00    -0.218 N 
ATOM      4  C   LIG    1      -22.532  79.550  14.261  0.00  0.00    +0.129 A 
ATOM      5  C   LIG    1      -23.898  79.534  14.120  0.00  0.00    +0.078 A 
ENDROOT
BRANCH   3   6
ATOM      6  C   LIG    1      -20.974  77.797  15.325  0.00  0.00    +0.067 A 
ATOM      7  C   LIG    1      -19.988  78.602  15.904  0.00  0.00    +0.028 A 
ATOM      8  C   LIG    1      -18.799  78.025  16.373  0.00  0.00    +0.002 A 
ATOM      9  C   LIG    1      -18.589  76.650  16.272  0.00  0.00    +0.000 A 
ATOM     10  C   LIG    1      -19.560  75.842  15.689  0.00  0.00    +0.002 A 
ATOM     11  C   LIG    1      -20.746  76.410  15.216  0.00  0.00    +0.028 A 
ENDBRANCH   3   6
BRANCH   4  12
ATOM     12  N   LIG    1      -21.682  80.567  13.794  0.00  0.00    -0.266 N 
ATOM     13  H   LIG    1      -21.347  80.537  12.829  0.00  0.00    +0.157 HD
ATOM     14  C   LIG    1      -21.328  81.681  14.633  0.00  0.00    +0.251 C 
ATOM     15  O   LIG    1      -21.683  81.714  15.800  0.00  0.00    -0.270 OA
BRANCH  14  16
ATOM     16  C   LIG    1      -20.478  82.795  14.163  0.00  0.00    +0.056 A 
ATOM     17  C   LIG    1      -19.117  82.738  13.928  0.00  0.00    +0.054 A 
ATOM     18 CL   LIG    1      -18.193  81.288  14.048  0.00  0.00    -0.083 Cl
ATOM     19  C   LIG    1      -18.448  83.902  13.547  0.00  0.00    +0.041 A 
ATOM     20  C   LIG    1      -19.129  85.125  13.394  0.00  0.00    +0.052 A 
ATOM     21 CL   LIG    1      -18.112  86.479  13.041  0.00  0.00    -0.083 Cl
ATOM     22  C   LIG    1      -20.521  85.213  13.571  0.00  0.00    +0.019 A 
ATOM     23  C   LIG    1      -21.163  84.015  13.940  0.00  0.00    +0.026 A 
BRANCH  22  24
ATOM     24  C   LIG    1      -21.352  86.440  13.448  0.00  0.00    +0.072 A 
ATOM     25  N   LIG    1      -21.657  86.805  12.170  0.00  0.00    -0.255 NA
ATOM     26  C   LIG    1      -22.406  87.919  11.980  0.00  0.00    +0.111 A 
ATOM     27  C   LIG    1      -22.882  88.709  13.008  0.00  0.00    +0.020 A 
ATOM     28  C   LIG    1      -22.560  88.343  14.304  0.00  0.00    +0.004 A 
ATOM     29  C   LIG    1      -21.777  87.212  14.525  0.00  0.00    +0.028 A 
ENDBRANCH  22  24
ENDBRANCH  14  16
ENDBRANCH   4  12
BRANCH   1  31
ATOM     30  N   LIG    1      -26.225  76.979  14.020  0.00  0.00    -0.244 NA
ATOM     31  C   LIG    1      -25.777  77.932  14.756  0.00  0.00    +0.236 C 
BRANCH  31  32
ATOM     32  O   LIG    1      -26.517  78.627  15.645  0.00  0.00    -0.491 OA
ATOM     33  H   LIG    1      -26.304  79.576  15.557  0.00  0.00    +0.294 HD
ENDBRANCH  31  32
BRANCH  30  34
ATOM     34  C   LIG    1      -27.647  76.650  14.155  0.00  0.00    +0.183 C 
BRANCH  34  39
ATOM     35  C   LIG    1      -30.087  76.124   9.763  0.00  0.00    +0.172 C 
ATOM     36  N   LIG    1      -29.462  76.640  10.957  0.00  0.00    -0.274 N 
ATOM     37  N   LIG    1      -29.430  77.969  11.154  0.00  0.00    -0.180 NA
ATOM     38  C   LIG    1      -28.765  78.098  12.304  0.00  0.00    +0.139 A 
ATOM     39  C   LIG    1      -28.375  76.855  12.863  0.00  0.00    +0.011 A 
ATOM     40  C   LIG    1      -28.861  75.930  11.956  0.00  0.00    +0.113 A 
ENDBRANCH  34  39
ENDBRANCH  30  34
ENDBRANCH   1  31
TORSDOF 8
ENDMDL
MODEL 5
REMARK VINA RESULT:      -6.4     10.083     13.999
REMARK  Name = pdb/CHEMBL3896188.pdb
REMARK                            x       y       z     vdW  Elec       q    Type
REMARK                         _______ _______ _______ _____ _____    ______ ____
ROOT
ATOM      1  C   LIG    1      -37.553  70.459  24.999  0.00  0.00    +0.149 A 
ATOM      2  N   LIG    1      -37.026  69.273  25.336  0.00  0.00    -0.160 NA
ATOM      3  N   LIG    1      -35.881  69.570  26.039  0.00  0.00    -0.218 N 
ATOM      4  C   LIG    1      -35.656  70.969  26.087  0.00  0.00    +0.129 A 
ATOM      5  C   LIG    1      -36.723  71.512  25.416  0.00  0.00    +0.078 A 
ENDROOT
BRANCH   3   6
ATOM      6  C   LIG    1      -35.117  68.501  26.587  0.00  0.00    +0.067 A 
ATOM      7  C   LIG    1      -34.413  68.631  27.788  0.00  0.00    +0.028 A 
ATOM      8  C   LIG    1      -33.737  67.526  28.327  0.00  0.00    +0.002 A 
ATOM      9  C   LIG    1      -33.762  66.292  27.678  0.00  0.00    +0.000 A 
ATOM     10  C   LIG    1      -34.452  66.156  26.477  0.00  0.00    +0.002 A 
ATOM     11  C   LIG    1      -35.125  67.253  25.932  0.00  0.00    +0.028 A 
ENDBRANCH   3   6
BRANCH   4  12
ATOM     12  N   LIG    1      -34.583  71.699  26.627  0.00  0.00    -0.266 N 
ATOM     13  H   LIG    1      -33.697  71.740  26.118  0.00  0.00    +0.157 HD
ATOM     14  C   LIG    1      -34.732  72.442  27.850  0.00  0.00    +0.251 C 
ATOM     15  O   LIG    1      -35.766  72.373  28.494  0.00  0.00    -0.270 OA
BRANCH  14  16
ATOM     16  C   LIG    1      -33.644  73.262  28.422  0.00  0.00    +0.056 A 
ATOM     17  C   LIG    1      -32.643  72.814  29.266  0.00  0.00    +0.054 A 
ATOM     18 CL   LIG    1      -32.443  71.160  29.707  0.00  0.00    -0.083 Cl
ATOM     19  C   LIG    1      -31.725  73.735  29.773  0.00  0.00    +0.041 A 
ATOM     20  C   LIG    1      -31.795  75.102  29.441  0.00  0.00    +0.052 A 
ATOM     21 CL   LIG    1      -30.650  76.104  30.264  0.00  0.00    -0.083 Cl
ATOM     22  C   LIG    1      -32.762  75.588  28.545  0.00  0.00    +0.019 A 
ATOM     23  C   LIG    1      -33.661  74.627  28.042  0.00  0.00    +0.026 A 
BRANCH  22  24
ATOM     24  C   LIG    1      -32.945  77.001  28.122  0.00  0.00    +0.072 A 
ATOM     25  N   LIG    1      -33.875  77.701  28.831  0.00  0.00    -0.255 NA
ATOM     26  C   LIG    1      -34.101  78.995  28.496  0.00  0.00    +0.111 A 
ATOM     27  C   LIG    1      -33.439  79.651  27.476  0.00  0.00    +0.020 A 
ATOM     28  C   LIG    1      -32.504  78.934  26.749  0.00  0.00    +0.004 A 
ATOM     29  C   LIG    1      -32.267  77.598  27.063  0.00  0.00    +0.028 A 
ENDBRANCH  22  24
ENDBRANCH  14  16
ENDBRANCH   4  12
BRANCH   1  31
ATOM     30  N   LIG    1      -39.535  71.652  24.410  0.00  0.00    -0.244 NA
ATOM     31  C   LIG    1      -38.811  70.598  24.271  0.00  0.00    +0.236 C 
BRANCH  31  32
ATOM     32  O   LIG    1      -39.119  69.556  23.471  0.00  0.00    -0.491 OA
ATOM     33  H   LIG    1      -39.593  69.893  22.686  0.00  0.00    +0.294 HD
ENDBRANCH  31  32
BRANCH  30  34
ATOM     34  C   LIG    1      -40.788  71.698  23.654  0.00  0.00    +0.183 C 
BRANCH  34  39
ATOM     35  C   LIG    1      -41.285  76.722  23.487  0.00  0.00    +0.172 C 
ATOM     36  N   LIG    1      -41.489  75.297  23.383  0.00  0.00    -0.274 N 
ATOM     37  N   LIG    1      -42.663  74.839  22.917  0.00  0.00    -0.180 NA
ATOM     38  C   LIG    1      -42.530  73.513  22.986  0.00  0.00    +0.139 A 
ATOM     39  C   LIG    1      -41.266  73.106  23.483  0.00  0.00    +0.011 A 
ATOM     40  C   LIG    1      -40.615  74.304  23.719  0.00  0.00    +0.113 A 
ENDBRANCH  34  39
ENDBRANCH  30  34
ENDBRANCH   1  31
TORSDOF 8
ENDMDL
MODEL 6
REMARK VINA RESULT:      -6.4      8.933     14.386
REMARK  Name = pdb/CHEMBL3896188.pdb
REMARK                            x       y       z     vdW  Elec       q    Type
REMARK                         _______ _______ _______ _____ _____    ______ ____
ROOT
ATOM      1  C   LIG    1      -31.775  74.346  29.944  0.00  0.00    +0.149 A 
ATOM      2  N   LIG    1      -31.683  75.653  29.656  0.00  0.00    -0.160 NA
ATOM      3  N   LIG    1      -32.696  75.900  28.758  0.00  0.00    -0.218 N 
ATOM      4  C   LIG    1      -33.394  74.710  28.430  0.00  0.00    +0.129 A 
ATOM      5  C   LIG    1      -32.789  73.738  29.187  0.00  0.00    +0.078 A 
ENDROOT
BRANCH   3   6
ATOM      6  C   LIG    1      -32.894  77.233  28.300  0.00  0.00    +0.067 A 
ATOM      7  C   LIG    1      -32.243  77.732  27.166  0.00  0.00    +0.028 A 
ATOM      8  C   LIG    1      -32.528  79.028  26.709  0.00  0.00    +0.002 A 
ATOM      9  C   LIG    1      -33.458  79.827  27.373  0.00  0.00    +0.000 A 
ATOM     10  C   LIG    1      -34.103  79.342  28.506  0.00  0.00    +0.002 A 
ATOM     11  C   LIG    1      -33.822  78.054  28.970  0.00  0.00    +0.028 A 
ENDBRANCH   3   6
BRANCH   4  12
ATOM     12  N   LIG    1      -34.435  74.490  27.511  0.00  0.00    -0.266 N 
ATOM     13  H   LIG    1      -34.210  74.176  26.565  0.00  0.00    +0.157 HD
ATOM     14  C   LIG    1      -35.812  74.639  27.899  0.00  0.00    +0.251 C 
ATOM     15  O   LIG    1      -36.100  75.054  29.010  0.00  0.00    -0.270 OA
BRANCH  14  16
ATOM     16  C   LIG    1      -36.934  74.369  26.977  0.00  0.00    +0.056 A 
ATOM     17  C   LIG    1      -37.356  73.122  26.551  0.00  0.00    +0.054 A 
ATOM     18 CL   LIG    1      -36.688  71.644  27.132  0.00  0.00    -0.083 Cl
ATOM     19  C   LIG    1      -38.395  73.043  25.623  0.00  0.00    +0.041 A 
ATOM     20  C   LIG    1      -39.021  74.199  25.118  0.00  0.00    +0.052 A 
ATOM     21 CL   LIG    1      -40.200  73.903  23.887  0.00  0.00    -0.083 Cl
ATOM     22  C   LIG    1      -38.658  75.481  25.566  0.00  0.00    +0.019 A 
ATOM     23  C   LIG    1      -37.616  75.520  26.513  0.00  0.00    +0.026 A 
BRANCH  22  24
ATOM     24  C   LIG    1      -39.233  76.773  25.107  0.00  0.00    +0.072 A 
ATOM     25  N   LIG    1      -40.014  77.415  26.022  0.00  0.00    -0.255 NA
ATOM     26  C   LIG    1      -40.579  78.596  25.671  0.00  0.00    +0.111 A 
ATOM     27  C   LIG    1      -40.407  79.193  24.437  0.00  0.00    +0.020 A 
ATOM     28  C   LIG    1      -39.624  78.533  23.505  0.00  0.00    +0.004 A 
ATOM     29  C   LIG    1      -39.047  77.309  23.836  0.00  0.00    +0.028 A 
ENDBRANCH  22  24
ENDBRANCH  14  16
ENDBRANCH   4  12
BRANCH   1  31
ATOM     30  N   LIG    1      -30.816  72.391  30.921  0.00  0.00    -0.244 NA
ATOM     31  C   LIG    1      -30.902  73.673  30.902  0.00  0.00    +0.236 C 
BRANCH  31  32
ATOM     32  O   LIG    1      -30.223  74.500  31.724  0.00  0.00    -0.491 OA
ATOM     33  H   LIG    1      -29.986  75.309  31.230  0.00  0.00    +0.294 HD
ENDBRANCH  31  32
BRANCH  30  34
ATOM     34  C   LIG    1      -29.928  71.802  31.926  0.00  0.00    +0.183 C 
BRANCH  34  39
ATOM     35  C   LIG    1      -25.012  71.748  30.764  0.00  0.00    +0.172 C 
ATOM     36  N   LIG    1      -26.426  71.473  30.855  0.00  0.00    -0.274 N 
ATOM     37  N   LIG    1      -26.951  70.499  30.092  0.00  0.00    -0.180 NA
ATOM     38  C   LIG    1      -28.251  70.536  30.390  0.00  0.00    +0.139 A 
ATOM     39  C   LIG    1      -28.573  71.524  31.355  0.00  0.00    +0.011 A 
ATOM     40  C   LIG    1      -27.349  72.104  31.638  0.00  0.00    +0.113 A 
ENDBRANCH  34  39
ENDBRANCH  30  34
ENDBRANCH   1  31
TORSDOF 8
ENDMDL
MODEL 7
REMARK VINA RESULT:      -6.4      2.470      4.378
REMARK  Name = pdb/CHEMBL3896188.pdb
REMARK                            x       y       z     vdW  Elec       q    Type
REMARK                         _______ _______ _______ _____ _____    ______ ____
ROOT
ATOM      1  C   LIG    1      -28.149  76.521  32.296  0.00  0.00    +0.149 A 
ATOM      2  N   LIG    1      -27.244  76.292  31.332  0.00  0.00    -0.160 NA
ATOM      3  N   LIG    1      -26.027  76.602  31.895  0.00  0.00    -0.218 N 
ATOM      4  C   LIG    1      -26.182  77.093  33.216  0.00  0.00    +0.129 A 
ATOM      5  C   LIG    1      -27.534  77.040  33.446  0.00  0.00    +0.078 A 
ENDROOT
BRANCH   3   6
ATOM      6  C   LIG    1      -24.847  76.406  31.124  0.00  0.00    +0.067 A 
ATOM      7  C   LIG    1      -24.424  77.332  30.165  0.00  0.00    +0.028 A 
ATOM      8  C   LIG    1      -23.215  77.133  29.483  0.00  0.00    +0.002 A 
ATOM      9  C   LIG    1      -22.422  76.018  29.754  0.00  0.00    +0.000 A 
ATOM     10  C   LIG    1      -22.839  75.086  30.699  0.00  0.00    +0.002 A 
ATOM     11  C   LIG    1      -24.045  75.275  31.380  0.00  0.00    +0.028 A 
ENDBRANCH   3   6
BRANCH   4  12
ATOM     12  N   LIG    1      -25.226  77.592  34.118  0.00  0.00    -0.266 N 
ATOM     13  H   LIG    1      -25.124  77.152  35.035  0.00  0.00    +0.157 HD
ATOM     14  C   LIG    1      -24.347  78.669  33.748  0.00  0.00    +0.251 C 
ATOM     15  O   LIG    1      -24.480  79.236  32.675  0.00  0.00    -0.270 OA
BRANCH  14  16
ATOM     16  C   LIG    1      -23.297  79.187  34.649  0.00  0.00    +0.056 A 
ATOM     17  C   LIG    1      -23.500  79.963  35.776  0.00  0.00    +0.054 A 
ATOM     18 CL   LIG    1      -25.063  80.368  36.380  0.00  0.00    -0.083 Cl
ATOM     19  C   LIG    1      -22.391  80.427  36.485  0.00  0.00    +0.041 A 
ATOM     20  C   LIG    1      -21.077  80.118  36.081  0.00  0.00    +0.052 A 
ATOM     21 CL   LIG    1      -19.837  80.885  37.010  0.00  0.00    -0.083 Cl
ATOM     22  C   LIG    1      -20.830  79.288  34.974  0.00  0.00    +0.019 A 
ATOM     23  C   LIG    1      -21.974  78.827  34.293  0.00  0.00    +0.026 A 
BRANCH  22  24
ATOM     24  C   LIG    1      -19.497  78.896  34.443  0.00  0.00    +0.072 A 
ATOM     25  N   LIG    1      -18.684  78.265  35.336  0.00  0.00    -0.255 NA
ATOM     26  C   LIG    1      -17.449  77.884  34.925  0.00  0.00    +0.111 A 
ATOM     27  C   LIG    1      -16.965  78.097  33.649  0.00  0.00    +0.020 A 
ATOM     28  C   LIG    1      -17.789  78.750  32.748  0.00  0.00    +0.004 A 
ATOM     29  C   LIG    1      -19.056  79.166  33.152  0.00  0.00    +0.028 A 
ENDBRANCH  22  24
ENDBRANCH  14  16
ENDBRANCH   4  12
BRANCH   1  31
ATOM     30  N   LIG    1      -30.015  75.632  31.103  0.00  0.00    -0.244 NA
ATOM     31  C   LIG    1      -29.578  76.276  32.126  0.00  0.00    +0.236 C 
BRANCH  31  32
ATOM     32  O   LIG    1      -30.357  76.769  33.112  0.00  0.00    -0.491 OA
ATOM     33  H   LIG    1      -30.649  77.666  32.862  0.00  0.00    +0.294 HD
ENDBRANCH  31  32
BRANCH  30  34
ATOM     34  C   LIG    1      -31.465  75.448  31.007  0.00  0.00    +0.183 C 
BRANCH  34  39
ATOM     35  C   LIG    1      -32.219  77.712  26.554  0.00  0.00    +0.172 C 
ATOM     36  N   LIG    1      -32.312  76.872  27.724  0.00  0.00    -0.274 N 
ATOM     37  N   LIG    1      -33.337  76.010  27.828  0.00  0.00    -0.180 NA
ATOM     38  C   LIG    1      -33.141  75.433  29.016  0.00  0.00    +0.139 A 
ATOM     39  C   LIG    1      -31.982  75.909  29.680  0.00  0.00    +0.011 A 
ATOM     40  C   LIG    1      -31.466  76.838  28.795  0.00  0.00    +0.113 A 
ENDBRANCH  34  39
ENDBRANCH  30  34
ENDBRANCH   1  31
TORSDOF 8
ENDMDL
MODEL 8
REMARK VINA RESULT:      -6.3     11.243     16.463
REMARK  Name = pdb/CHEMBL3896188.pdb
REMARK                            x       y       z     vdW  Elec       q    Type
REMARK                         _______ _______ _______ _____ _____    ______ ____
ROOT
ATOM      1  C   LIG    1      -37.002  80.035  27.728  0.00  0.00    +0.149 A 
ATOM      2  N   LIG    1      -35.939  79.385  28.226  0.00  0.00    -0.160 NA
ATOM      3  N   LIG    1      -36.135  78.063  27.899  0.00  0.00    -0.218 N 
ATOM      4  C   LIG    1      -37.376  77.874  27.240  0.00  0.00    +0.129 A 
ATOM      5  C   LIG    1      -37.911  79.135  27.149  0.00  0.00    +0.078 A 
ENDROOT
BRANCH   3   6
ATOM      6  C   LIG    1      -35.132  77.116  28.250  0.00  0.00    +0.067 A 
ATOM      7  C   LIG    1      -34.612  77.029  29.545  0.00  0.00    +0.028 A 
ATOM      8  C   LIG    1      -33.680  76.030  29.861  0.00  0.00    +0.002 A 
ATOM      9  C   LIG    1      -33.265  75.114  28.895  0.00  0.00    +0.000 A 
ATOM     10  C   LIG    1      -33.769  75.198  27.601  0.00  0.00    +0.002 A 
ATOM     11  C   LIG    1      -34.695  76.193  27.277  0.00  0.00    +0.028 A 
ENDBRANCH   3   6
BRANCH   4  12
ATOM     12  N   LIG    1      -38.004  76.695  26.804  0.00  0.00    -0.266 N 
ATOM     13  H   LIG    1      -38.604  76.178  27.450  0.00  0.00    +0.157 HD
ATOM     14  C   LIG    1      -37.868  76.241  25.446  0.00  0.00    +0.251 C 
ATOM     15  O   LIG    1      -37.124  76.820  24.671  0.00  0.00    -0.270 OA
BRANCH  14  16
ATOM     16  C   LIG    1      -38.553  75.034  24.936  0.00  0.00    +0.056 A 
ATOM     17  C   LIG    1      -39.748  75.008  24.240  0.00  0.00    +0.054 A 
ATOM     18 CL   LIG    1      -40.593  76.429  23.753  0.00  0.00    -0.083 Cl
ATOM     19  C   LIG    1      -40.296  73.775  23.886  0.00  0.00    +0.041 A 
ATOM     20  C   LIG    1      -39.657  72.564  24.216  0.00  0.00    +0.052 A 
ATOM     21 CL   LIG    1      -40.549  71.141  23.802  0.00  0.00    -0.083 Cl
ATOM     22  C   LIG    1      -38.415  72.548  24.875  0.00  0.00    +0.019 A 
ATOM     23  C   LIG    1      -37.887  73.813  25.203  0.00  0.00    +0.026 A 
BRANCH  22  24
ATOM     24  C   LIG    1      -37.647  71.344  25.284  0.00  0.00    +0.072 A 
ATOM     25  N   LIG    1      -37.124  70.615  24.257  0.00  0.00    -0.255 NA
ATOM     26  C   LIG    1      -36.417  69.497  24.555  0.00  0.00    +0.111 A 
ATOM     27  C   LIG    1      -36.191  69.052  25.843  0.00  0.00    +0.020 A 
ATOM     28  C   LIG    1      -36.734  69.787  26.883  0.00  0.00    +0.004 A 
ATOM     29  C   LIG    1      -37.479  70.930  26.602  0.00  0.00    +0.028 A 
ENDBRANCH  22  24
ENDBRANCH  14  16
ENDBRANCH   4  12
BRANCH   1  31
ATOM     30  N   LIG    1      -36.184  82.236  28.151  0.00  0.00    -0.244 NA
ATOM     31  C   LIG    1      -37.171  81.482  27.820  0.00  0.00    +0.236 C 
BRANCH  31  32
ATOM     32  O   LIG    1      -38.412  81.926  27.530  0.00  0.00    -0.491 OA
ATOM     33  H   LIG    1      -38.368  82.479  26.726  0.00  0.00    +0.294 HD
ENDBRANCH  31  32
BRANCH  30  34
ATOM     34  C   LIG    1      -36.449  83.675  28.234  0.00  0.00    +0.183 C 
BRANCH  34  39
ATOM     35  C   LIG    1      -32.217  85.147  30.568  0.00  0.00    +0.172 C 
ATOM     36  N   LIG    1      -33.394  85.064  29.736  0.00  0.00    -0.274 N 
ATOM     37  N   LIG    1      -33.724  86.116  28.968  0.00  0.00    -0.180 NA
ATOM     38  C   LIG    1      -34.853  85.726  28.373  0.00  0.00    +0.139 A 
ATOM     39  C   LIG    1      -35.252  84.417  28.742  0.00  0.00    +0.011 A 
ATOM     40  C   LIG    1      -34.264  84.019  29.625  0.00  0.00    +0.113 A 
ENDBRANCH  34  39
ENDBRANCH  30  34
ENDBRANCH   1  31
TORSDOF 8
ENDMDL
MODEL 9
REMARK VINA RESULT:      -6.3     18.659     20.924
REMARK  Name = pdb/CHEMBL3896188.pdb
REMARK                            x       y       z     vdW  Elec       q    Type
REMARK                         _______ _______ _______ _____ _____    ______ ____
ROOT
ATOM      1  C   LIG    1      -26.234  77.843  13.846  0.00  0.00    +0.149 A 
ATOM      2  N   LIG    1      -25.076  77.891  14.520  0.00  0.00    -0.160 NA
ATOM      3  N   LIG    1      -24.614  79.178  14.361  0.00  0.00    -0.218 N 
ATOM      4  C   LIG    1      -25.470  79.930  13.517  0.00  0.00    +0.129 A 
ATOM      5  C   LIG    1      -26.485  79.062  13.197  0.00  0.00    +0.078 A 
ENDROOT
BRANCH   3   6
ATOM      6  C   LIG    1      -23.410  79.559  15.017  0.00  0.00    +0.067 A 
ATOM      7  C   LIG    1      -23.360  80.633  15.912  0.00  0.00    +0.028 A 
ATOM      8  C   LIG    1      -22.169  80.923  16.592  0.00  0.00    +0.002 A 
ATOM      9  C   LIG    1      -21.028  80.148  16.389  0.00  0.00    +0.000 A 
ATOM     10  C   LIG    1      -21.065  79.083  15.494  0.00  0.00    +0.002 A 
ATOM     11  C   LIG    1      -22.247  78.790  14.810  0.00  0.00    +0.028 A 
ENDBRANCH   3   6
BRANCH   4  12
ATOM     12  N   LIG    1      -25.344  81.243  13.031  0.00  0.00    -0.266 N 
ATOM     13  H   LIG    1      -25.972  81.969  13.380  0.00  0.00    +0.157 HD
ATOM     14  C   LIG    1      -24.304  81.592  12.101  0.00  0.00    +0.251 C 
ATOM     15  O   LIG    1      -23.570  80.732  11.641  0.00  0.00    -0.270 OA
BRANCH  14  16
ATOM     16  C   LIG    1      -24.107  82.971  11.606  0.00  0.00    +0.056 A 
ATOM     17  C   LIG    1      -24.560  83.477  10.402  0.00  0.00    +0.054 A 
ATOM     18 CL   LIG    1      -25.546  82.581   9.307  0.00  0.00    -0.083 Cl
ATOM     19  C   LIG    1      -24.232  84.787  10.054  0.00  0.00    +0.041 A 
ATOM     20  C   LIG    1      -23.456  85.602  10.902  0.00  0.00    +0.052 A 
ATOM     21 CL   LIG    1      -23.050  87.149  10.245  0.00  0.00    -0.083 Cl
ATOM     22  C   LIG    1      -23.023  85.144  12.158  0.00  0.00    +0.019 A 
ATOM     23  C   LIG    1      -23.386  83.821  12.481  0.00  0.00    +0.026 A 
BRANCH  22  24
ATOM     24  C   LIG    1      -22.197  85.898  13.137  0.00  0.00    +0.072 A 
ATOM     25  N   LIG    1      -20.849  85.754  12.989  0.00  0.00    -0.255 NA
ATOM     26  C   LIG    1      -20.032  86.407  13.851  0.00  0.00    +0.111 A 
ATOM     27  C   LIG    1      -20.486  87.216  14.875  0.00  0.00    +0.020 A 
ATOM     28  C   LIG    1      -21.855  87.351  15.031  0.00  0.00    +0.004 A 
ATOM     29  C   LIG    1      -22.715  86.676  14.168  0.00  0.00    +0.028 A 
ENDBRANCH  22  24
ENDBRANCH  14  16
ENDBRANCH   4  12
BRANCH   1  31
ATOM     30  N   LIG    1      -27.000  75.837  12.806  0.00  0.00    -0.244 NA
ATOM     31  C   LIG    1      -27.082  76.655  13.793  0.00  0.00    +0.236 C 
BRANCH  31  32
ATOM     32  O   LIG    1      -27.918  76.511  14.842  0.00  0.00    -0.491 OA
ATOM     33  H   LIG    1      -28.838  76.542  14.517  0.00  0.00    +0.294 HD
ENDBRANCH  31  32
BRANCH  30  34
ATOM     34  C   LIG    1      -27.900  74.681  12.828  0.00  0.00    +0.183 C 
BRANCH  34  39
ATOM     35  C   LIG    1      -31.470  76.524   9.766  0.00  0.00    +0.172 C 
ATOM     36  N   LIG    1      -30.713  75.735  10.708  0.00  0.00    -0.274 N 
ATOM     37  N   LIG    1      -31.295  74.667  11.279  0.00  0.00    -0.180 NA
ATOM     38  C   LIG    1      -30.352  74.200  12.101  0.00  0.00    +0.139 A 
ATOM     39  C   LIG    1      -29.153  74.956  12.057  0.00  0.00    +0.011 A 
ATOM     40  C   LIG    1      -29.430  75.941  11.126  0.00  0.00    +0.113 A 
ENDBRANCH  34  39
ENDBRANCH  30  34
ENDBRANCH   1  31
TORSDOF 8
ENDMDL
