MODEL 1
REMARK VINA RESULT:      -5.9      0.000      0.000
REMARK  Name = pdb/CHEMBL3977762.pdb
REMARK                            x       y       z     vdW  Elec       q    Type
REMARK                         _______ _______ _______ _____ _____    ______ ____
ROOT
ATOM      1  C   LIG    1      -19.834  81.958  13.772  0.00  0.00    +0.163 A 
ATOM      2  N   LIG    1      -20.196  83.157  13.153  0.00  0.00    -0.196 N 
ATOM      3  N   LIG    1      -20.497  84.369  13.761  0.00  0.00    -0.148 NA
ATOM      4  C   LIG    1      -20.728  85.351  12.930  0.00  0.00    +0.143 A 
ATOM      5  C   LIG    1      -20.636  85.193  11.442  0.00  0.00    +0.049 A 
ATOM      6  C   LIG    1      -20.349  83.999  10.924  0.00  0.00    +0.051 A 
ATOM      7  C   LIG    1      -20.157  82.908  11.786  0.00  0.00    +0.156 A 
ATOM      8  N   LIG    1      -19.909  81.650  11.502  0.00  0.00    -0.233 NA
ATOM      9  C   LIG    1      -19.687  81.067  12.715  0.00  0.00    +0.158 A 
ENDROOT
BRANCH   4  10
ATOM     10  N   LIG    1      -21.026  86.635  13.372  0.00  0.00    -0.307 N 
ATOM     11  C   LIG    1      -22.431  87.082  13.473  0.00  0.00    +0.108 C 
ATOM     12  C   LIG    1      -22.529  87.844  14.811  0.00  0.00    +0.029 C 
ATOM     13  C   LIG    1      -21.233  87.542  15.543  0.00  0.00    +0.021 C 
ATOM     14  C   LIG    1      -20.242  87.260  14.433  0.00  0.00    +0.107 C 
BRANCH  11  15
ATOM     15  C   LIG    1      -22.791  88.004  12.319  0.00  0.00    +0.011 A 
ATOM     16  C   LIG    1      -23.880  87.697  11.495  0.00  0.00    +0.129 A 
ATOM     17  F   LIG    1      -24.578  86.572  11.705  0.00  0.00    -0.205 F 
ATOM     18  C   LIG    1      -24.279  88.548  10.462  0.00  0.00    +0.041 A 
ATOM     19  C   LIG    1      -23.592  89.741  10.242  0.00  0.00    +0.041 A 
ATOM     20  C   LIG    1      -22.517  90.064  11.058  0.00  0.00    +0.124 A 
ATOM     21  F   LIG    1      -21.860  91.214  10.864  0.00  0.00    -0.205 F 
ATOM     22  C   LIG    1      -22.117  89.215  12.086  0.00  0.00    +0.046 A 
ENDBRANCH  11  15
ENDBRANCH   4  10
BRANCH   1  23
ATOM     23  N   LIG    1      -19.553  81.863  15.099  0.00  0.00    -0.177 NA
BRANCH  23  24
ATOM     24  C   LIG    1      -20.312  81.164  15.873  0.00  0.00    +0.275 C 
BRANCH  24  31
ATOM     25  C   LIG    1      -24.975  81.296  13.839  0.00  0.00    +0.404 C 
ATOM     26  N   LIG    1      -23.989  81.355  14.854  0.00  0.00    -0.260 N 
ATOM     27  C   LIG    1      -23.395  80.047  15.331  0.00  0.00    +0.048 C 
ATOM     28  C   LIG    1      -22.561  79.409  14.194  0.00  0.00    +0.033 C 
ATOM     29  C   LIG    1      -24.477  79.020  15.757  0.00  0.00    +0.033 C 
ATOM     30  C   LIG    1      -22.488  80.265  16.579  0.00  0.00    +0.114 C 
ATOM     31  N   LIG    1      -21.570  81.407  16.385  0.00  0.00    -0.249 NA
ATOM     32  C   LIG    1      -22.329  82.648  16.232  0.00  0.00    +0.108 C 
ATOM     33  C   LIG    1      -23.230  82.586  14.992  0.00  0.00    +0.127 C 
ATOM     34  O   LIG    1      -25.793  80.410  13.732  0.00  0.00    -0.226 OA
BRANCH  25  35
ATOM     35  O   LIG    1      -24.857  82.326  12.948  0.00  0.00    -0.445 OA
BRANCH  35  37
ATOM     36  C   LIG    1      -25.905  81.688  10.845  0.00  0.00    +0.055 C 
ATOM     37  C   LIG    1      -24.601  82.060  11.553  0.00  0.00    +0.107 C 
ATOM     38  C   LIG    1      -24.048  83.352  10.927  0.00  0.00    +0.055 C 
ATOM     39  C   LIG    1      -23.511  80.985  11.384  0.00  0.00    +0.055 C 
ENDBRANCH  35  37
ENDBRANCH  25  35
ENDBRANCH  24  31
BRANCH  24  40
ATOM     40  O   LIG    1      -19.770  79.994  16.255  0.00  0.00    -0.353 OA
ATOM     41  H   LIG    1      -19.683  79.912  17.205  0.00  0.00    +0.214 HD
ENDBRANCH  24  40
ENDBRANCH  23  24
ENDBRANCH   1  23
TORSDOF 8
ENDMDL
MODEL 2
REMARK VINA RESULT:      -5.7     18.660     21.928
REMARK  Name = pdb/CHEMBL3977762.pdb
REMARK                            x       y       z     vdW  Elec       q    Type
REMARK                         _______ _______ _______ _____ _____    ______ ____
ROOT
ATOM      1  C   LIG    1      -20.202  77.540  30.461  0.00  0.00    +0.163 A 
ATOM      2  N   LIG    1      -19.327  77.674  31.541  0.00  0.00    -0.196 N 
ATOM      3  N   LIG    1      -19.544  78.361  32.729  0.00  0.00    -0.148 NA
ATOM      4  C   LIG    1      -18.577  78.255  33.602  0.00  0.00    +0.143 A 
ATOM      5  C   LIG    1      -17.351  77.428  33.359  0.00  0.00    +0.049 A 
ATOM      6  C   LIG    1      -17.203  76.800  32.192  0.00  0.00    +0.051 A 
ATOM      7  C   LIG    1      -18.193  76.943  31.208  0.00  0.00    +0.156 A 
ATOM      8  N   LIG    1      -18.238  76.457  29.988  0.00  0.00    -0.233 NA
ATOM      9  C   LIG    1      -19.478  76.800  29.534  0.00  0.00    +0.158 A 
ENDROOT
BRANCH   4  10
ATOM     10  N   LIG    1      -18.642  78.865  34.850  0.00  0.00    -0.307 N 
ATOM     11  C   LIG    1      -19.817  78.656  35.721  0.00  0.00    +0.108 C 
ATOM     12  C   LIG    1      -19.248  78.439  37.139  0.00  0.00    +0.029 C 
ATOM     13  C   LIG    1      -17.754  78.249  36.949  0.00  0.00    +0.021 C 
ATOM     14  C   LIG    1      -17.447  79.007  35.675  0.00  0.00    +0.107 C 
BRANCH  11  15
ATOM     15  C   LIG    1      -20.728  79.872  35.705  0.00  0.00    +0.011 A 
ATOM     16  C   LIG    1      -21.962  79.811  35.046  0.00  0.00    +0.129 A 
ATOM     17  F   LIG    1      -22.317  78.691  34.402  0.00  0.00    -0.205 F 
ATOM     18  C   LIG    1      -22.853  80.886  35.057  0.00  0.00    +0.041 A 
ATOM     19  C   LIG    1      -22.523  82.051  35.748  0.00  0.00    +0.041 A 
ATOM     20  C   LIG    1      -21.308  82.124  36.416  0.00  0.00    +0.124 A 
ATOM     21  F   LIG    1      -20.989  83.233  37.093  0.00  0.00    -0.205 F 
ATOM     22  C   LIG    1      -20.418  81.053  36.402  0.00  0.00    +0.046 A 
ENDBRANCH  11  15
ENDBRANCH   4  10
BRANCH   1  23
ATOM     23  N   LIG    1      -21.502  77.939  30.503  0.00  0.00    -0.177 NA
BRANCH  23  24
ATOM     24  C   LIG    1      -22.435  77.148  30.095  0.00  0.00    +0.275 C 
BRANCH  24  31
ATOM     25  C   LIG    1      -24.288  75.820  34.645  0.00  0.00    +0.404 C 
ATOM     26  N   LIG    1      -23.918  75.662  33.287  0.00  0.00    -0.260 N 
ATOM     27  C   LIG    1      -24.821  76.277  32.239  0.00  0.00    +0.048 C 
ATOM     28  C   LIG    1      -24.768  77.820  32.346  0.00  0.00    +0.033 C 
ATOM     29  C   LIG    1      -26.302  75.842  32.397  0.00  0.00    +0.033 C 
ATOM     30  C   LIG    1      -24.393  75.842  30.805  0.00  0.00    +0.114 C 
ATOM     31  N   LIG    1      -22.933  75.971  30.616  0.00  0.00    -0.249 NA
ATOM     32  C   LIG    1      -22.221  75.073  31.526  0.00  0.00    +0.108 C 
ATOM     33  C   LIG    1      -22.514  75.434  32.987  0.00  0.00    +0.127 C 
ATOM     34  O   LIG    1      -25.430  75.834  35.044  0.00  0.00    -0.226 OA
BRANCH  25  35
ATOM     35  O   LIG    1      -23.203  76.020  35.452  0.00  0.00    -0.445 OA
BRANCH  35  37
ATOM     36  C   LIG    1      -23.771  75.569  37.777  0.00  0.00    +0.055 C 
ATOM     37  C   LIG    1      -22.947  75.135  36.564  0.00  0.00    +0.107 C 
ATOM     38  C   LIG    1      -23.391  73.722  36.144  0.00  0.00    +0.055 C 
ATOM     39  C   LIG    1      -21.441  75.053  36.872  0.00  0.00    +0.055 C 
ENDBRANCH  35  37
ENDBRANCH  25  35
ENDBRANCH  24  31
BRANCH  24  40
ATOM     40  O   LIG    1      -23.018  77.541  28.948  0.00  0.00    -0.353 OA
ATOM     41  H   LIG    1      -23.966  77.406  28.943  0.00  0.00    +0.214 HD
ENDBRANCH  24  40
ENDBRANCH  23  24
ENDBRANCH   1  23
TORSDOF 8
ENDMDL
MODEL 3
REMARK VINA RESULT:      -5.6      2.626      5.332
REMARK  Name = pdb/CHEMBL3977762.pdb
REMARK                            x       y       z     vdW  Elec       q    Type
REMARK                         _______ _______ _______ _____ _____    ______ ____
ROOT
ATOM      1  C   LIG    1      -24.820  83.158  11.012  0.00  0.00    +0.163 A 
ATOM      2  N   LIG    1      -24.385  84.442  11.347  0.00  0.00    -0.196 N 
ATOM      3  N   LIG    1      -23.482  84.800  12.340  0.00  0.00    -0.148 NA
ATOM      4  C   LIG    1      -23.197  86.076  12.381  0.00  0.00    +0.143 A 
ATOM      5  C   LIG    1      -23.767  87.066  11.411  0.00  0.00    +0.049 A 
ATOM      6  C   LIG    1      -24.636  86.655  10.485  0.00  0.00    +0.051 A 
ATOM      7  C   LIG    1      -25.011  85.303  10.453  0.00  0.00    +0.156 A 
ATOM      8  N   LIG    1      -25.868  84.691   9.668  0.00  0.00    -0.233 NA
ATOM      9  C   LIG    1      -25.738  83.372   9.990  0.00  0.00    +0.158 A 
ENDROOT
BRANCH   4  10
ATOM     10  N   LIG    1      -22.297  86.599  13.302  0.00  0.00    -0.307 N 
ATOM     11  C   LIG    1      -21.220  87.508  12.858  0.00  0.00    +0.108 C 
ATOM     12  C   LIG    1      -21.174  88.639  13.906  0.00  0.00    +0.029 C 
ATOM     13  C   LIG    1      -22.428  88.465  14.743  0.00  0.00    +0.021 C 
ATOM     14  C   LIG    1      -22.737  86.987  14.639  0.00  0.00    +0.107 C 
BRANCH  11  15
ATOM     15  C   LIG    1      -19.884  86.785  12.811  0.00  0.00    +0.011 A 
ATOM     16  C   LIG    1      -18.772  87.410  12.236  0.00  0.00    +0.129 A 
ATOM     17  F   LIG    1      -18.899  88.629  11.695  0.00  0.00    -0.205 F 
ATOM     18  C   LIG    1      -17.514  86.802  12.225  0.00  0.00    +0.041 A 
ATOM     19  C   LIG    1      -17.346  85.548  12.810  0.00  0.00    +0.041 A 
ATOM     20  C   LIG    1      -18.437  84.920  13.395  0.00  0.00    +0.124 A 
ATOM     21  F   LIG    1      -18.281  83.722  13.971  0.00  0.00    -0.205 F 
ATOM     22  C   LIG    1      -19.691  85.523  13.402  0.00  0.00    +0.046 A 
ENDBRANCH  11  15
ENDBRANCH   4  10
BRANCH   1  23
ATOM     23  N   LIG    1      -24.264  82.027  11.524  0.00  0.00    -0.177 NA
BRANCH  23  24
ATOM     24  C   LIG    1      -24.546  81.655  12.726  0.00  0.00    +0.275 C 
BRANCH  24  31
ATOM     25  C   LIG    1      -20.052  80.844  14.970  0.00  0.00    +0.404 C 
ATOM     26  N   LIG    1      -21.400  80.594  14.615  0.00  0.00    -0.260 N 
ATOM     27  C   LIG    1      -22.469  81.409  15.310  0.00  0.00    +0.048 C 
ATOM     28  C   LIG    1      -22.356  82.891  14.878  0.00  0.00    +0.033 C 
ATOM     29  C   LIG    1      -22.352  81.356  16.856  0.00  0.00    +0.033 C 
ATOM     30  C   LIG    1      -23.892  80.877  14.964  0.00  0.00    +0.114 C 
ATOM     31  N   LIG    1      -24.042  80.640  13.514  0.00  0.00    -0.249 NA
ATOM     32  C   LIG    1      -23.117  79.596  13.071  0.00  0.00    +0.108 C 
ATOM     33  C   LIG    1      -21.662  80.024  13.305  0.00  0.00    +0.127 C 
ATOM     34  O   LIG    1      -19.683  81.142  16.084  0.00  0.00    -0.226 OA
BRANCH  25  35
ATOM     35  O   LIG    1      -19.215  80.771  13.891  0.00  0.00    -0.445 OA
BRANCH  35  37
ATOM     36  C   LIG    1      -17.776  79.406  12.478  0.00  0.00    +0.055 C 
ATOM     37  C   LIG    1      -18.087  79.871  13.902  0.00  0.00    +0.107 C 
ATOM     38  C   LIG    1      -16.876  80.650  14.444  0.00  0.00    +0.055 C 
ATOM     39  C   LIG    1      -18.325  78.695  14.867  0.00  0.00    +0.055 C 
ENDBRANCH  35  37
ENDBRANCH  25  35
ENDBRANCH  24  31
BRANCH  24  40
ATOM     40  O   LIG    1      -25.515  82.383  13.308  0.00  0.00    -0.353 OA
ATOM     41  H   LIG    1      -25.435  83.322  13.137  0.00  0.00    +0.214 HD
ENDBRANCH  24  40
ENDBRANCH  23  24
ENDBRANCH   1  23
TORSDOF 8
ENDMDL
MODEL 4
REMARK VINA RESULT:      -5.6     19.716     22.121
REMARK  Name = pdb/CHEMBL3977762.pdb
REMARK                            x       y       z     vdW  Elec       q    Type
REMARK                         _______ _______ _______ _____ _____    ______ ____
ROOT
ATOM      1  C   LIG    1      -35.041  77.754  28.156  0.00  0.00    +0.163 A 
ATOM      2  N   LIG    1      -35.550  76.464  27.990  0.00  0.00    -0.196 N 
ATOM      3  N   LIG    1      -36.719  76.090  27.340  0.00  0.00    -0.148 NA
ATOM      4  C   LIG    1      -36.911  74.798  27.268  0.00  0.00    +0.143 A 
ATOM      5  C   LIG    1      -35.930  73.801  27.808  0.00  0.00    +0.049 A 
ATOM      6  C   LIG    1      -34.830  74.230  28.428  0.00  0.00    +0.051 A 
ATOM      7  C   LIG    1      -34.624  75.610  28.577  0.00  0.00    +0.156 A 
ATOM      8  N   LIG    1      -33.647  76.250  29.180  0.00  0.00    -0.233 NA
ATOM      9  C   LIG    1      -33.885  77.565  28.905  0.00  0.00    +0.158 A 
ENDROOT
BRANCH   4  10
ATOM     10  N   LIG    1      -38.021  74.253  26.635  0.00  0.00    -0.307 N 
ATOM     11  C   LIG    1      -38.069  74.163  25.160  0.00  0.00    +0.108 C 
ATOM     12  C   LIG    1      -38.646  72.767  24.848  0.00  0.00    +0.029 C 
ATOM     13  C   LIG    1      -38.629  72.019  26.170  0.00  0.00    +0.021 C 
ATOM     14  C   LIG    1      -38.727  73.113  27.212  0.00  0.00    +0.107 C 
BRANCH  11  15
ATOM     15  C   LIG    1      -38.969  75.242  24.579  0.00  0.00    +0.011 A 
ATOM     16  C   LIG    1      -38.440  76.502  24.275  0.00  0.00    +0.129 A 
ATOM     17  F   LIG    1      -37.151  76.762  24.532  0.00  0.00    -0.205 F 
ATOM     18  C   LIG    1      -39.220  77.500  23.686  0.00  0.00    +0.041 A 
ATOM     19  C   LIG    1      -40.555  77.245  23.378  0.00  0.00    +0.041 A 
ATOM     20  C   LIG    1      -41.090  75.996  23.663  0.00  0.00    +0.124 A 
ATOM     21  F   LIG    1      -42.368  75.738  23.358  0.00  0.00    -0.205 F 
ATOM     22  C   LIG    1      -40.315  75.002  24.253  0.00  0.00    +0.046 A 
ENDBRANCH  11  15
ENDBRANCH   4  10
BRANCH   1  23
ATOM     23  N   LIG    1      -35.560  78.844  27.529  0.00  0.00    -0.177 NA
BRANCH  23  24
ATOM     24  C   LIG    1      -35.229  80.030  27.911  0.00  0.00    +0.275 C 
BRANCH  24  31
ATOM     25  C   LIG    1      -35.358  85.053  28.716  0.00  0.00    +0.404 C 
ATOM     26  N   LIG    1      -35.583  83.680  28.981  0.00  0.00    -0.260 N 
ATOM     27  C   LIG    1      -36.699  82.995  28.222  0.00  0.00    +0.048 C 
ATOM     28  C   LIG    1      -36.335  82.914  26.720  0.00  0.00    +0.033 C 
ATOM     29  C   LIG    1      -38.052  83.746  28.341  0.00  0.00    +0.033 C 
ATOM     30  C   LIG    1      -36.951  81.558  28.771  0.00  0.00    +0.114 C 
ATOM     31  N   LIG    1      -35.684  80.819  28.948  0.00  0.00    -0.249 NA
ATOM     32  C   LIG    1      -34.845  81.479  29.949  0.00  0.00    +0.108 C 
ATOM     33  C   LIG    1      -34.474  82.897  29.498  0.00  0.00    +0.127 C 
ATOM     34  O   LIG    1      -36.231  85.851  28.459  0.00  0.00    -0.226 OA
BRANCH  25  35
ATOM     35  O   LIG    1      -34.027  85.365  28.720  0.00  0.00    -0.445 OA
BRANCH  35  37
ATOM     36  C   LIG    1      -34.301  86.312  30.947  0.00  0.00    +0.055 C 
ATOM     37  C   LIG    1      -33.512  86.353  29.638  0.00  0.00    +0.107 C 
ATOM     38  C   LIG    1      -32.044  85.994  29.932  0.00  0.00    +0.055 C 
ATOM     39  C   LIG    1      -33.504  87.753  28.997  0.00  0.00    +0.055 C 
ENDBRANCH  35  37
ENDBRANCH  25  35
ENDBRANCH  24  31
BRANCH  24  40
ATOM     40  O   LIG    1      -34.275  80.599  27.153  0.00  0.00    -0.353 OA
ATOM     41  H   LIG    1      -33.551  80.958  27.667  0.00  0.00    +0.214 HD
ENDBRANCH  24  40
ENDBRANCH  23  24
ENDBRANCH   1  23
TORSDOF 8
ENDMDL
MODEL 5
REMARK VINA RESULT:      -5.5     19.311     22.754
REMARK  Name = pdb/CHEMBL3977762.pdb
REMARK                            x       y       z     vdW  Elec       q    Type
REMARK                         _______ _______ _______ _____ _____    ______ ____
ROOT
ATOM      1  C   LIG    1      -23.248  80.829  35.329  0.00  0.00    +0.163 A 
ATOM      2  N   LIG    1      -23.749  79.728  34.630  0.00  0.00    -0.196 N 
ATOM      3  N   LIG    1      -23.144  79.038  33.587  0.00  0.00    -0.148 NA
ATOM      4  C   LIG    1      -23.809  77.992  33.169  0.00  0.00    +0.143 A 
ATOM      5  C   LIG    1      -25.100  77.551  33.790  0.00  0.00    +0.049 A 
ATOM      6  C   LIG    1      -25.629  78.265  34.784  0.00  0.00    +0.051 A 
ATOM      7  C   LIG    1      -24.973  79.428  35.216  0.00  0.00    +0.156 A 
ATOM      8  N   LIG    1      -25.326  80.296  36.136  0.00  0.00    -0.233 NA
ATOM      9  C   LIG    1      -24.261  81.144  36.227  0.00  0.00    +0.158 A 
ENDROOT
BRANCH   4  10
ATOM     10  N   LIG    1      -23.336  77.180  32.146  0.00  0.00    -0.307 N 
ATOM     11  C   LIG    1      -24.250  76.707  31.085  0.00  0.00    +0.108 C 
ATOM     12  C   LIG    1      -23.466  76.859  29.765  0.00  0.00    +0.029 C 
ATOM     13  C   LIG    1      -22.241  77.685  30.116  0.00  0.00    +0.021 C 
ATOM     14  C   LIG    1      -22.006  77.388  31.581  0.00  0.00    +0.107 C 
BRANCH  11  15
ATOM     15  C   LIG    1      -24.628  75.252  31.303  0.00  0.00    +0.011 A 
ATOM     16  C   LIG    1      -25.949  74.914  31.620  0.00  0.00    +0.129 A 
ATOM     17  F   LIG    1      -26.866  75.881  31.766  0.00  0.00    -0.205 F 
ATOM     18  C   LIG    1      -26.350  73.585  31.771  0.00  0.00    +0.041 A 
ATOM     19  C   LIG    1      -25.424  72.558  31.593  0.00  0.00    +0.041 A 
ATOM     20  C   LIG    1      -24.112  72.876  31.267  0.00  0.00    +0.124 A 
ATOM     21  F   LIG    1      -23.220  71.896  31.080  0.00  0.00    -0.205 F 
ATOM     22  C   LIG    1      -23.712  74.201  31.120  0.00  0.00    +0.046 A 
ENDBRANCH  11  15
ENDBRANCH   4  10
BRANCH   1  23
ATOM     23  N   LIG    1      -21.974  81.282  35.186  0.00  0.00    -0.177 NA
BRANCH  23  24
ATOM     24  C   LIG    1      -21.153  81.230  36.179  0.00  0.00    +0.275 C 
BRANCH  24  31
ATOM     25  C   LIG    1      -20.207  76.400  34.883  0.00  0.00    +0.404 C 
ATOM     26  N   LIG    1      -20.207  77.560  35.696  0.00  0.00    -0.260 N 
ATOM     27  C   LIG    1      -19.220  78.655  35.353  0.00  0.00    +0.048 C 
ATOM     28  C   LIG    1      -19.598  79.290  33.993  0.00  0.00    +0.033 C 
ATOM     29  C   LIG    1      -17.763  78.133  35.243  0.00  0.00    +0.033 C 
ATOM     30  C   LIG    1      -19.203  79.759  36.453  0.00  0.00    +0.114 C 
ATOM     31  N   LIG    1      -20.572  80.162  36.833  0.00  0.00    -0.249 NA
ATOM     32  C   LIG    1      -21.289  79.032  37.425  0.00  0.00    +0.108 C 
ATOM     33  C   LIG    1      -21.427  77.886  36.415  0.00  0.00    +0.127 C 
ATOM     34  O   LIG    1      -19.217  75.919  34.380  0.00  0.00    -0.226 OA
BRANCH  25  35
ATOM     35  O   LIG    1      -21.470  75.919  34.676  0.00  0.00    -0.445 OA
BRANCH  35  37
ATOM     36  C   LIG    1      -21.262  74.097  36.278  0.00  0.00    +0.055 C 
ATOM     37  C   LIG    1      -21.765  74.524  34.898  0.00  0.00    +0.107 C 
ATOM     38  C   LIG    1      -23.295  74.360  34.855  0.00  0.00    +0.055 C 
ATOM     39  C   LIG    1      -21.195  73.650  33.766  0.00  0.00    +0.055 C 
ENDBRANCH  35  37
ENDBRANCH  25  35
ENDBRANCH  24  31
BRANCH  24  40
ATOM     40  O   LIG    1      -20.813  82.435  36.669  0.00  0.00    -0.353 OA
ATOM     41  H   LIG    1      -19.867  82.551  36.762  0.00  0.00    +0.214 HD
ENDBRANCH  24  40
ENDBRANCH  23  24
ENDBRANCH   1  23
TORSDOF 8
ENDMDL
MODEL 6
REMARK VINA RESULT:      -5.5      3.315      7.136
REMARK  Name = pdb/CHEMBL3977762.pdb
REMARK                            x       y       z     vdW  Elec       q    Type
REMARK                         _______ _______ _______ _____ _____    ______ ____
ROOT
ATOM      1  C   LIG    1      -18.924  86.456  13.083  0.00  0.00    +0.163 A 
ATOM      2  N   LIG    1      -19.126  85.132  13.477  0.00  0.00    -0.196 N 
ATOM      3  N   LIG    1      -20.258  84.584  14.068  0.00  0.00    -0.148 NA
ATOM      4  C   LIG    1      -20.199  83.292  14.261  0.00  0.00    +0.143 A 
ATOM      5  C   LIG    1      -19.024  82.462  13.842  0.00  0.00    +0.049 A 
ATOM      6  C   LIG    1      -17.966  83.053  13.286  0.00  0.00    +0.051 A 
ATOM      7  C   LIG    1      -17.970  84.447  13.122  0.00  0.00    +0.156 A 
ATOM      8  N   LIG    1      -17.035  85.236  12.643  0.00  0.00    -0.233 NA
ATOM      9  C   LIG    1      -17.623  86.466  12.595  0.00  0.00    +0.158 A 
ENDROOT
BRANCH   4  10
ATOM     10  N   LIG    1      -21.254  82.584  14.824  0.00  0.00    -0.307 N 
ATOM     11  C   LIG    1      -21.019  81.681  15.970  0.00  0.00    +0.108 C 
ATOM     12  C   LIG    1      -22.186  81.938  16.946  0.00  0.00    +0.029 C 
ATOM     13  C   LIG    1      -22.875  83.189  16.431  0.00  0.00    +0.021 C 
ATOM     14  C   LIG    1      -22.578  83.187  14.946  0.00  0.00    +0.107 C 
BRANCH  11  15
ATOM     15  C   LIG    1      -21.020  80.228  15.526  0.00  0.00    +0.011 A 
ATOM     16  C   LIG    1      -19.929  79.405  15.831  0.00  0.00    +0.129 A 
ATOM     17  F   LIG    1      -18.873  79.913  16.482  0.00  0.00    -0.205 F 
ATOM     18  C   LIG    1      -19.917  78.050  15.492  0.00  0.00    +0.041 A 
ATOM     19  C   LIG    1      -21.016  77.488  14.845  0.00  0.00    +0.041 A 
ATOM     20  C   LIG    1      -22.110  78.289  14.546  0.00  0.00    +0.124 A 
ATOM     21  F   LIG    1      -23.175  77.754  13.937  0.00  0.00    -0.205 F 
ATOM     22  C   LIG    1      -22.121  79.640  14.880  0.00  0.00    +0.046 A 
ENDBRANCH  11  15
ENDBRANCH   4  10
BRANCH   1  23
ATOM     23  N   LIG    1      -19.917  87.387  13.072  0.00  0.00    -0.177 NA
BRANCH  23  24
ATOM     24  C   LIG    1      -20.295  87.915  11.958  0.00  0.00    +0.275 C 
BRANCH  24  31
ATOM     25  C   LIG    1      -23.477  83.978  11.435  0.00  0.00    +0.404 C 
ATOM     26  N   LIG    1      -22.745  85.128  11.050  0.00  0.00    -0.260 N 
ATOM     27  C   LIG    1      -23.258  86.473  11.517  0.00  0.00    +0.048 C 
ATOM     28  C   LIG    1      -23.118  86.578  13.055  0.00  0.00    +0.033 C 
ATOM     29  C   LIG    1      -24.750  86.700  11.161  0.00  0.00    +0.033 C 
ATOM     30  C   LIG    1      -22.469  87.637  10.845  0.00  0.00    +0.114 C 
ATOM     31  N   LIG    1      -21.012  87.401  10.896  0.00  0.00    -0.249 NA
ATOM     32  C   LIG    1      -20.664  86.202  10.133  0.00  0.00    +0.108 C 
ATOM     33  C   LIG    1      -21.337  84.961  10.732  0.00  0.00    +0.127 C 
ATOM     34  O   LIG    1      -24.682  83.942  11.549  0.00  0.00    -0.226 OA
BRANCH  25  35
ATOM     35  O   LIG    1      -22.659  82.923  11.727  0.00  0.00    -0.445 OA
BRANCH  35  37
ATOM     36  C   LIG    1      -23.209  81.758   9.661  0.00  0.00    +0.055 C 
ATOM     37  C   LIG    1      -22.912  81.622  11.155  0.00  0.00    +0.107 C 
ATOM     38  C   LIG    1      -21.636  80.780  11.333  0.00  0.00    +0.055 C 
ATOM     39  C   LIG    1      -24.034  80.892  11.916  0.00  0.00    +0.055 C 
ENDBRANCH  35  37
ENDBRANCH  25  35
ENDBRANCH  24  31
BRANCH  24  40
ATOM     40  O   LIG    1      -19.911  89.195  11.804  0.00  0.00    -0.353 OA
ATOM     41  H   LIG    1      -19.349  89.506  12.513  0.00  0.00    +0.214 HD
ENDBRANCH  24  40
ENDBRANCH  23  24
ENDBRANCH   1  23
TORSDOF 8
ENDMDL
MODEL 7
REMARK VINA RESULT:      -5.4      2.271      4.398
REMARK  Name = pdb/CHEMBL3977762.pdb
REMARK                            x       y       z     vdW  Elec       q    Type
REMARK                         _______ _______ _______ _____ _____    ______ ____
ROOT
ATOM      1  C   LIG    1      -20.537  85.296  13.205  0.00  0.00    +0.163 A 
ATOM      2  N   LIG    1      -21.127  86.505  12.830  0.00  0.00    -0.196 N 
ATOM      3  N   LIG    1      -22.336  86.691  12.170  0.00  0.00    -0.148 NA
ATOM      4  C   LIG    1      -22.683  87.943  12.015  0.00  0.00    +0.143 A 
ATOM      5  C   LIG    1      -21.864  89.083  12.540  0.00  0.00    +0.049 A 
ATOM      6  C   LIG    1      -20.709  88.833  13.158  0.00  0.00    +0.051 A 
ATOM      7  C   LIG    1      -20.276  87.504  13.287  0.00  0.00    +0.156 A 
ATOM      8  N   LIG    1      -19.169  87.031  13.814  0.00  0.00    -0.233 NA
ATOM      9  C   LIG    1      -19.334  85.677  13.787  0.00  0.00    +0.158 A 
ENDROOT
BRANCH   4  10
ATOM     10  N   LIG    1      -23.872  88.304  11.393  0.00  0.00    -0.307 N 
ATOM     11  C   LIG    1      -23.884  89.370  10.369  0.00  0.00    +0.108 C 
ATOM     12  C   LIG    1      -24.796  88.849   9.239  0.00  0.00    +0.029 C 
ATOM     13  C   LIG    1      -25.028  87.382   9.552  0.00  0.00    +0.021 C 
ATOM     14  C   LIG    1      -24.875  87.299  11.056  0.00  0.00    +0.107 C 
BRANCH  11  15
ATOM     15  C   LIG    1      -24.445  90.663  10.938  0.00  0.00    +0.011 A 
ATOM     16  C   LIG    1      -23.991  91.895  10.451  0.00  0.00    +0.129 A 
ATOM     17  F   LIG    1      -23.037  91.927   9.510  0.00  0.00    -0.205 F 
ATOM     18  C   LIG    1      -24.523  93.103  10.906  0.00  0.00    +0.041 A 
ATOM     19  C   LIG    1      -25.539  93.097  11.860  0.00  0.00    +0.041 A 
ATOM     20  C   LIG    1      -26.007  91.884  12.345  0.00  0.00    +0.124 A 
ATOM     21  F   LIG    1      -26.993  91.868  13.251  0.00  0.00    -0.205 F 
ATOM     22  C   LIG    1      -25.476  90.679  11.895  0.00  0.00    +0.046 A 
ENDBRANCH  11  15
ENDBRANCH   4  10
BRANCH   1  23
ATOM     23  N   LIG    1      -21.177  84.099  13.120  0.00  0.00    -0.177 NA
BRANCH  23  24
ATOM     24  C   LIG    1      -21.891  83.675  14.107  0.00  0.00    +0.275 C 
BRANCH  24  31
ATOM     25  C   LIG    1      -22.562  78.771  15.290  0.00  0.00    +0.404 C 
ATOM     26  N   LIG    1      -22.122  80.108  15.454  0.00  0.00    -0.260 N 
ATOM     27  C   LIG    1      -20.910  80.547  14.661  0.00  0.00    +0.048 C 
ATOM     28  C   LIG    1      -21.255  80.570  13.153  0.00  0.00    +0.033 C 
ATOM     29  C   LIG    1      -19.694  79.604  14.855  0.00  0.00    +0.033 C 
ATOM     30  C   LIG    1      -20.435  81.964  15.104  0.00  0.00    +0.114 C 
ATOM     31  N   LIG    1      -21.569  82.906  15.207  0.00  0.00    -0.249 NA
ATOM     32  C   LIG    1      -22.503  82.465  16.243  0.00  0.00    +0.108 C 
ATOM     33  C   LIG    1      -23.094  81.093  15.895  0.00  0.00    +0.127 C 
ATOM     34  O   LIG    1      -21.827  77.828  15.106  0.00  0.00    -0.226 OA
BRANCH  25  35
ATOM     35  O   LIG    1      -23.926  78.676  15.300  0.00  0.00    -0.445 OA
BRANCH  35  37
ATOM     36  C   LIG    1      -24.407  76.628  14.072  0.00  0.00    +0.055 C 
ATOM     37  C   LIG    1      -24.628  78.139  14.158  0.00  0.00    +0.107 C 
ATOM     38  C   LIG    1      -26.129  78.409  14.367  0.00  0.00    +0.055 C 
ATOM     39  C   LIG    1      -24.223  78.870  12.865  0.00  0.00    +0.055 C 
ENDBRANCH  35  37
ENDBRANCH  25  35
ENDBRANCH  24  31
BRANCH  24  40
ATOM     40  O   LIG    1      -23.182  84.044  14.043  0.00  0.00    -0.353 OA
ATOM     41  H   LIG    1      -23.576  83.887  13.185  0.00  0.00    +0.214 HD
ENDBRANCH  24  40
ENDBRANCH  23  24
ENDBRANCH   1  23
TORSDOF 8
ENDMDL
MODEL 8
REMARK VINA RESULT:      -5.4     14.362     18.478
REMARK  Name = pdb/CHEMBL3977762.pdb
REMARK                            x       y       z     vdW  Elec       q    Type
REMARK                         _______ _______ _______ _____ _____    ______ ____
ROOT
ATOM      1  C   LIG    1      -33.845  67.994  13.290  0.00  0.00    +0.163 A 
ATOM      2  N   LIG    1      -33.483  67.619  14.586  0.00  0.00    -0.196 N 
ATOM      3  N   LIG    1      -32.202  67.527  15.115  0.00  0.00    -0.148 NA
ATOM      4  C   LIG    1      -32.160  67.224  16.387  0.00  0.00    +0.143 A 
ATOM      5  C   LIG    1      -33.394  67.031  17.216  0.00  0.00    +0.049 A 
ATOM      6  C   LIG    1      -34.594  67.127  16.641  0.00  0.00    +0.051 A 
ATOM      7  C   LIG    1      -34.673  67.389  15.264  0.00  0.00    +0.156 A 
ATOM      8  N   LIG    1      -35.730  67.483  14.490  0.00  0.00    -0.233 NA
ATOM      9  C   LIG    1      -35.230  67.877  13.283  0.00  0.00    +0.158 A 
ENDROOT
BRANCH   4  10
ATOM     10  N   LIG    1      -30.960  67.112  17.078  0.00  0.00    -0.307 N 
ATOM     11  C   LIG    1      -30.823  67.682  18.434  0.00  0.00    +0.108 C 
ATOM     12  C   LIG    1      -30.063  66.620  19.256  0.00  0.00    +0.029 C 
ATOM     13  C   LIG    1      -30.059  65.370  18.394  0.00  0.00    +0.021 C 
ATOM     14  C   LIG    1      -30.152  65.900  16.979  0.00  0.00    +0.107 C 
BRANCH  11  15
ATOM     15  C   LIG    1      -30.032  68.979  18.400  0.00  0.00    +0.011 A 
ATOM     16  C   LIG    1      -30.657  70.168  18.006  0.00  0.00    +0.129 A 
ATOM     17  F   LIG    1      -31.942  70.149  17.625  0.00  0.00    -0.205 F 
ATOM     18  C   LIG    1      -29.982  71.390  18.017  0.00  0.00    +0.041 A 
ATOM     19  C   LIG    1      -28.655  71.444  18.441  0.00  0.00    +0.041 A 
ATOM     20  C   LIG    1      -28.024  70.276  18.845  0.00  0.00    +0.124 A 
ATOM     21  F   LIG    1      -26.754  70.321  19.267  0.00  0.00    -0.205 F 
ATOM     22  C   LIG    1      -28.695  69.057  18.831  0.00  0.00    +0.046 A 
ENDBRANCH  11  15
ENDBRANCH   4  10
BRANCH   1  23
ATOM     23  N   LIG    1      -32.962  68.504  12.390  0.00  0.00    -0.177 NA
BRANCH  23  24
ATOM     24  C   LIG    1      -33.088  69.720  11.978  0.00  0.00    +0.275 C 
BRANCH  24  31
ATOM     25  C   LIG    1      -28.806  71.707  13.880  0.00  0.00    +0.404 C 
ATOM     26  N   LIG    1      -30.169  71.661  13.498  0.00  0.00    -0.260 N 
ATOM     27  C   LIG    1      -30.487  71.790  12.024  0.00  0.00    +0.048 C 
ATOM     28  C   LIG    1      -29.962  70.547  11.267  0.00  0.00    +0.033 C 
ATOM     29  C   LIG    1      -29.839  73.045  11.381  0.00  0.00    +0.033 C 
ATOM     30  C   LIG    1      -32.022  71.927  11.792  0.00  0.00    +0.114 C 
ATOM     31  N   LIG    1      -32.777  70.926  12.574  0.00  0.00    -0.249 NA
ATOM     32  C   LIG    1      -32.577  71.144  14.007  0.00  0.00    +0.108 C 
ATOM     33  C   LIG    1      -31.099  70.978  14.381  0.00  0.00    +0.127 C 
ATOM     34  O   LIG    1      -27.967  72.389  13.337  0.00  0.00    -0.226 OA
BRANCH  25  35
ATOM     35  O   LIG    1      -28.529  70.838  14.900  0.00  0.00    -0.445 OA
BRANCH  35  37
ATOM     36  C   LIG    1      -26.260  70.246  15.558  0.00  0.00    +0.055 C 
ATOM     37  C   LIG    1      -27.495  69.843  14.750  0.00  0.00    +0.107 C 
ATOM     38  C   LIG    1      -28.042  68.517  15.309  0.00  0.00    +0.055 C 
ATOM     39  C   LIG    1      -27.174  69.597  13.264  0.00  0.00    +0.055 C 
ENDBRANCH  35  37
ENDBRANCH  25  35
ENDBRANCH  24  31
BRANCH  24  40
ATOM     40  O   LIG    1      -33.629  69.827  10.752  0.00  0.00    -0.353 OA
ATOM     41  H   LIG    1      -33.538  70.702  10.375  0.00  0.00    +0.214 HD
ENDBRANCH  24  40
ENDBRANCH  23  24
ENDBRANCH   1  23
TORSDOF 8
ENDMDL
MODEL 9
REMARK VINA RESULT:      -5.3     16.971     22.051
REMARK  Name = pdb/CHEMBL3977762.pdb
REMARK                            x       y       z     vdW  Elec       q    Type
REMARK                         _______ _______ _______ _____ _____    ______ ____
ROOT
ATOM      1  C   LIG    1      -34.227  66.753  18.402  0.00  0.00    +0.163 A 
ATOM      2  N   LIG    1      -35.332  67.060  19.199  0.00  0.00    -0.196 N 
ATOM      3  N   LIG    1      -35.388  67.119  20.586  0.00  0.00    -0.148 NA
ATOM      4  C   LIG    1      -36.540  67.509  21.067  0.00  0.00    +0.143 A 
ATOM      5  C   LIG    1      -37.694  67.900  20.193  0.00  0.00    +0.049 A 
ATOM      6  C   LIG    1      -37.574  67.812  18.868  0.00  0.00    +0.051 A 
ATOM      7  C   LIG    1      -36.372  67.338  18.320  0.00  0.00    +0.156 A 
ATOM      8  N   LIG    1      -36.049  67.132  17.063  0.00  0.00    -0.233 NA
ATOM      9  C   LIG    1      -34.727  66.796  17.106  0.00  0.00    +0.158 A 
ENDROOT
BRANCH   4  10
ATOM     10  N   LIG    1      -36.760  67.641  22.433  0.00  0.00    -0.307 N 
ATOM     11  C   LIG    1      -38.137  67.740  22.961  0.00  0.00    +0.108 C 
ATOM     12  C   LIG    1      -38.166  66.839  24.214  0.00  0.00    +0.029 C 
ATOM     13  C   LIG    1      -36.873  66.045  24.169  0.00  0.00    +0.021 C 
ATOM     14  C   LIG    1      -35.922  66.934  23.396  0.00  0.00    +0.107 C 
BRANCH  11  15
ATOM     15  C   LIG    1      -38.472  69.173  23.339  0.00  0.00    +0.011 A 
ATOM     16  C   LIG    1      -39.750  69.682  23.080  0.00  0.00    +0.129 A 
ATOM     17  F   LIG    1      -40.660  68.915  22.464  0.00  0.00    -0.205 F 
ATOM     18  C   LIG    1      -40.116  70.974  23.465  0.00  0.00    +0.041 A 
ATOM     19  C   LIG    1      -39.199  71.782  24.136  0.00  0.00    +0.041 A 
ATOM     20  C   LIG    1      -37.932  71.287  24.411  0.00  0.00    +0.124 A 
ATOM     21  F   LIG    1      -37.050  72.051  25.067  0.00  0.00    -0.205 F 
ATOM     22  C   LIG    1      -37.566  70.001  24.024  0.00  0.00    +0.046 A 
ENDBRANCH  11  15
ENDBRANCH   4  10
BRANCH   1  23
ATOM     23  N   LIG    1      -32.965  66.633  18.896  0.00  0.00    -0.177 NA
BRANCH  23  24
ATOM     24  C   LIG    1      -32.214  65.654  18.522  0.00  0.00    +0.275 C 
BRANCH  24  31
ATOM     25  C   LIG    1      -27.680  67.796  17.655  0.00  0.00    +0.404 C 
ATOM     26  N   LIG    1      -28.791  66.948  17.426  0.00  0.00    -0.260 N 
ATOM     27  C   LIG    1      -28.900  65.694  18.266  0.00  0.00    +0.048 C 
ATOM     28  C   LIG    1      -29.166  66.078  19.742  0.00  0.00    +0.033 C 
ATOM     29  C   LIG    1      -27.610  64.833  18.226  0.00  0.00    +0.033 C 
ATOM     30  C   LIG    1      -30.051  64.775  17.755  0.00  0.00    +0.114 C 
ATOM     31  N   LIG    1      -31.286  65.546  17.506  0.00  0.00    -0.249 NA
ATOM     32  C   LIG    1      -31.068  66.527  16.442  0.00  0.00    +0.108 C 
ATOM     33  C   LIG    1      -29.987  67.537  16.847  0.00  0.00    +0.127 C 
ATOM     34  O   LIG    1      -26.575  67.406  17.958  0.00  0.00    -0.226 OA
BRANCH  25  35
ATOM     35  O   LIG    1      -28.015  69.118  17.558  0.00  0.00    -0.445 OA
BRANCH  35  37
ATOM     36  C   LIG    1      -26.136  70.517  18.223  0.00  0.00    +0.055 C 
ATOM     37  C   LIG    1      -27.559  70.061  18.550  0.00  0.00    +0.107 C 
ATOM     38  C   LIG    1      -28.495  71.282  18.495  0.00  0.00    +0.055 C 
ATOM     39  C   LIG    1      -27.679  69.475  19.969  0.00  0.00    +0.055 C 
ENDBRANCH  35  37
ENDBRANCH  25  35
ENDBRANCH  24  31
BRANCH  24  40
ATOM     40  O   LIG    1      -32.377  64.535  19.250  0.00  0.00    -0.353 OA
ATOM     41  H   LIG    1      -31.616  63.954  19.221  0.00  0.00    +0.214 HD
ENDBRANCH  24  40
ENDBRANCH  23  24
ENDBRANCH   1  23
TORSDOF 8
ENDMDL
