MODEL 1
REMARK VINA RESULT:      -6.8      0.000      0.000
REMARK  Name = pdb/CHEMBL3921392.pdb
REMARK                            x       y       z     vdW  Elec       q    Type
REMARK                         _______ _______ _______ _____ _____    ______ ____
ROOT
ATOM      1  N   LIG    1      -38.280  76.744  26.415  0.00  0.00    -0.279 N 
ATOM      2  H   LIG    1      -38.925  76.241  27.015  0.00  0.00    +0.155 HD
ATOM      3  C   LIG    1      -37.995  76.208  25.171  0.00  0.00    +0.248 C 
ATOM      4  O   LIG    1      -37.194  76.677  24.361  0.00  0.00    -0.270 OA
ENDROOT
BRANCH   1   8
ATOM      5  C   LIG    1      -36.519  80.261  27.799  0.00  0.00    +0.147 A 
ATOM      6  N   LIG    1      -35.857  79.103  27.966  0.00  0.00    -0.229 NA
ATOM      7  C   LIG    1      -36.460  77.940  27.592  0.00  0.00    +0.096 A 
ATOM      8  C   LIG    1      -37.726  77.924  26.992  0.00  0.00    +0.078 A 
ATOM      9  C   LIG    1      -38.345  79.163  26.934  0.00  0.00    +0.138 A 
ATOM     10  N   LIG    1      -37.766  80.333  27.309  0.00  0.00    -0.237 NA
BRANCH   7  11
ATOM     11  C   LIG    1      -35.645  76.744  27.949  0.00  0.00    +0.002 A 
ATOM     12  C   LIG    1      -35.937  75.909  29.044  0.00  0.00    +0.010 A 
ATOM     13  C   LIG    1      -35.116  74.822  29.376  0.00  0.00    +0.001 A 
ATOM     14  C   LIG    1      -33.956  74.572  28.650  0.00  0.00    +0.000 A 
ATOM     15  C   LIG    1      -33.619  75.400  27.587  0.00  0.00    +0.001 A 
ATOM     16  C   LIG    1      -34.457  76.463  27.239  0.00  0.00    +0.010 A 
ENDBRANCH   7  11
BRANCH   5  17
ATOM     17  C   LIG    1      -35.774  81.547  28.120  0.00  0.00    +0.180 C 
BRANCH  17  20
ATOM     18  C   LIG    1      -35.940  84.268  25.447  0.00  0.00    +0.109 C 
ATOM     19  C   LIG    1      -36.270  83.560  26.739  0.00  0.00    +0.210 C 
ATOM     20  N   LIG    1      -35.573  82.398  26.942  0.00  0.00    -0.308 N 
ATOM     21  H   LIG    1      -34.865  82.114  26.279  0.00  0.00    +0.149 HD
ATOM     22  O   LIG    1      -37.112  83.994  27.520  0.00  0.00    -0.276 OA
ENDBRANCH  17  20
ENDBRANCH   5  17
ENDBRANCH   1   8
BRANCH   3  23
ATOM     23  C   LIG    1      -38.768  74.984  24.776  0.00  0.00    +0.038 A 
ATOM     24  C   LIG    1      -38.208  73.709  24.981  0.00  0.00    +0.023 A 
ATOM     25  C   LIG    1      -38.869  72.525  24.569  0.00  0.00    +0.014 A 
ATOM     26  C   LIG    1      -40.141  72.636  23.960  0.00  0.00    +0.064 A 
ATOM     27  C   LIG    1      -40.681  73.924  23.748  0.00  0.00    +0.014 A 
ATOM     28  C   LIG    1      -40.005  75.080  24.139  0.00  0.00    +0.013 A 
BRANCH  25  29
ATOM     29  C   LIG    1      -38.202  71.227  24.771  0.00  0.00    +0.093 A 
ATOM     30  N   LIG    1      -38.292  70.568  25.933  0.00  0.00    -0.171 NA
ATOM     31  N   LIG    1      -37.605  69.431  25.756  0.00  0.00    -0.274 N 
ATOM     32  C   LIG    1      -37.532  68.465  26.825  0.00  0.00    +0.172 C 
ATOM     33  C   LIG    1      -37.048  69.328  24.519  0.00  0.00    +0.108 A 
ATOM     34  C   LIG    1      -37.408  70.479  23.855  0.00  0.00    +0.049 A 
ENDBRANCH  25  29
BRANCH  26  35
ATOM     35  C   LIG    1      -40.962  71.446  23.482  0.00  0.00    +0.418 C 
ATOM     36  F   LIG    1      -41.304  70.561  24.455  0.00  0.00    -0.166 F 
ATOM     37  F   LIG    1      -40.388  70.752  22.460  0.00  0.00    -0.166 F 
ATOM     38  F   LIG    1      -42.173  71.848  22.973  0.00  0.00    -0.166 F 
ENDBRANCH  26  35
ENDBRANCH   3  23
TORSDOF 7
ENDMDL
MODEL 2
REMARK VINA RESULT:      -6.6      1.513      1.939
REMARK  Name = pdb/CHEMBL3921392.pdb
REMARK                            x       y       z     vdW  Elec       q    Type
REMARK                         _______ _______ _______ _____ _____    ______ ____
ROOT
ATOM      1  N   LIG    1      -37.569  76.057  26.577  0.00  0.00    -0.279 N 
ATOM      2  H   LIG    1      -38.021  75.393  27.197  0.00  0.00    +0.155 HD
ATOM      3  C   LIG    1      -37.729  75.888  25.213  0.00  0.00    +0.248 C 
ATOM      4  O   LIG    1      -37.198  76.580  24.343  0.00  0.00    -0.270 OA
ENDROOT
BRANCH   1   8
ATOM      5  C   LIG    1      -35.124  79.016  28.205  0.00  0.00    +0.147 A 
ATOM      6  N   LIG    1      -34.711  77.738  28.263  0.00  0.00    -0.229 NA
ATOM      7  C   LIG    1      -35.539  76.757  27.810  0.00  0.00    +0.096 A 
ATOM      8  C   LIG    1      -36.784  77.047  27.237  0.00  0.00    +0.078 A 
ATOM      9  C   LIG    1      -37.139  78.387  27.292  0.00  0.00    +0.138 A 
ATOM     10  N   LIG    1      -36.333  79.380  27.749  0.00  0.00    -0.237 NA
BRANCH   7  11
ATOM     11  C   LIG    1      -34.983  75.396  28.051  0.00  0.00    +0.002 A 
ATOM     12  C   LIG    1      -33.610  75.144  28.234  0.00  0.00    +0.010 A 
ATOM     13  C   LIG    1      -33.120  73.842  28.409  0.00  0.00    +0.001 A 
ATOM     14  C   LIG    1      -33.986  72.754  28.356  0.00  0.00    +0.000 A 
ATOM     15  C   LIG    1      -35.342  72.965  28.138  0.00  0.00    +0.001 A 
ATOM     16  C   LIG    1      -35.830  74.268  27.997  0.00  0.00    +0.010 A 
ENDBRANCH   7  11
BRANCH   5  17
ATOM     17  C   LIG    1      -34.132  80.094  28.613  0.00  0.00    +0.180 C 
BRANCH  17  20
ATOM     18  C   LIG    1      -35.339  83.697  28.986  0.00  0.00    +0.109 C 
ATOM     19  C   LIG    1      -34.752  82.372  29.409  0.00  0.00    +0.210 C 
ATOM     20  N   LIG    1      -34.645  81.451  28.399  0.00  0.00    -0.308 N 
ATOM     21  H   LIG    1      -34.898  81.709  27.455  0.00  0.00    +0.149 HD
ATOM     22  O   LIG    1      -34.424  82.148  30.571  0.00  0.00    -0.276 OA
ENDBRANCH  17  20
ENDBRANCH   5  17
ENDBRANCH   1   8
BRANCH   3  23
ATOM     23  C   LIG    1      -38.665  74.799  24.778  0.00  0.00    +0.038 A 
ATOM     24  C   LIG    1      -38.278  73.452  24.908  0.00  0.00    +0.023 A 
ATOM     25  C   LIG    1      -39.099  72.389  24.455  0.00  0.00    +0.014 A 
ATOM     26  C   LIG    1      -40.354  72.698  23.882  0.00  0.00    +0.064 A 
ATOM     27  C   LIG    1      -40.720  74.057  23.746  0.00  0.00    +0.014 A 
ATOM     28  C   LIG    1      -39.889  75.091  24.175  0.00  0.00    +0.013 A 
BRANCH  25  29
ATOM     29  C   LIG    1      -38.608  71.005  24.579  0.00  0.00    +0.093 A 
ATOM     30  N   LIG    1      -37.828  70.453  23.640  0.00  0.00    -0.171 NA
ATOM     31  N   LIG    1      -37.549  69.221  24.085  0.00  0.00    -0.274 N 
ATOM     32  C   LIG    1      -36.688  68.359  23.312  0.00  0.00    +0.172 C 
ATOM     33  C   LIG    1      -38.134  68.935  25.279  0.00  0.00    +0.108 A 
ATOM     34  C   LIG    1      -38.836  70.067  25.626  0.00  0.00    +0.049 A 
ENDBRANCH  25  29
BRANCH  26  35
ATOM     35  C   LIG    1      -41.334  71.655  23.367  0.00  0.00    +0.418 C 
ATOM     36  F   LIG    1      -41.866  70.849  24.325  0.00  0.00    -0.166 F 
ATOM     37  F   LIG    1      -40.832  70.863  22.379  0.00  0.00    -0.166 F 
ATOM     38  F   LIG    1      -42.436  72.244  22.795  0.00  0.00    -0.166 F 
ENDBRANCH  26  35
ENDBRANCH   3  23
TORSDOF 7
ENDMDL
MODEL 3
REMARK VINA RESULT:      -6.4      4.055      7.187
REMARK  Name = pdb/CHEMBL3921392.pdb
REMARK                            x       y       z     vdW  Elec       q    Type
REMARK                         _______ _______ _______ _____ _____    ______ ____
ROOT
ATOM      1  N   LIG    1      -35.034  74.802  27.306  0.00  0.00    -0.279 N 
ATOM      2  H   LIG    1      -34.917  74.673  26.306  0.00  0.00    +0.155 HD
ATOM      3  C   LIG    1      -36.283  75.173  27.774  0.00  0.00    +0.248 C 
ATOM      4  O   LIG    1      -36.558  75.416  28.949  0.00  0.00    -0.270 OA
ENDROOT
BRANCH   1   8
ATOM      5  C   LIG    1      -31.752  74.298  29.827  0.00  0.00    +0.147 A 
ATOM      6  N   LIG    1      -32.035  75.534  29.382  0.00  0.00    -0.229 NA
ATOM      7  C   LIG    1      -33.054  75.696  28.492  0.00  0.00    +0.096 A 
ATOM      8  C   LIG    1      -33.846  74.620  28.071  0.00  0.00    +0.078 A 
ATOM      9  C   LIG    1      -33.422  73.384  28.536  0.00  0.00    +0.138 A 
ATOM     10  N   LIG    1      -32.403  73.199  29.415  0.00  0.00    -0.237 NA
BRANCH   7  11
ATOM     11  C   LIG    1      -33.163  77.103  28.012  0.00  0.00    +0.002 A 
ATOM     12  C   LIG    1      -32.375  77.626  26.969  0.00  0.00    +0.010 A 
ATOM     13  C   LIG    1      -32.472  78.969  26.579  0.00  0.00    +0.001 A 
ATOM     14  C   LIG    1      -33.324  79.835  27.257  0.00  0.00    +0.000 A 
ATOM     15  C   LIG    1      -34.087  79.360  28.317  0.00  0.00    +0.001 A 
ATOM     16  C   LIG    1      -34.011  78.012  28.679  0.00  0.00    +0.010 A 
ENDBRANCH   7  11
BRANCH   5  17
ATOM     17  C   LIG    1      -30.686  74.166  30.903  0.00  0.00    +0.180 C 
BRANCH  17  20
ATOM     18  C   LIG    1      -28.594  77.021  32.334  0.00  0.00    +0.109 C 
ATOM     19  C   LIG    1      -28.920  75.612  31.903  0.00  0.00    +0.210 C 
ATOM     20  N   LIG    1      -30.167  75.462  31.352  0.00  0.00    -0.308 N 
ATOM     21  H   LIG    1      -30.756  76.272  31.215  0.00  0.00    +0.149 HD
ATOM     22  O   LIG    1      -28.131  74.684  32.061  0.00  0.00    -0.276 OA
ENDBRANCH  17  20
ENDBRANCH   5  17
ENDBRANCH   1   8
BRANCH   3  23
ATOM     23  C   LIG    1      -37.387  75.234  26.759  0.00  0.00    +0.038 A 
ATOM     24  C   LIG    1      -37.937  76.479  26.400  0.00  0.00    +0.023 A 
ATOM     25  C   LIG    1      -39.022  76.585  25.495  0.00  0.00    +0.014 A 
ATOM     26  C   LIG    1      -39.544  75.404  24.920  0.00  0.00    +0.064 A 
ATOM     27  C   LIG    1      -38.990  74.162  25.304  0.00  0.00    +0.014 A 
ATOM     28  C   LIG    1      -37.937  74.074  26.215  0.00  0.00    +0.013 A 
BRANCH  25  29
ATOM     29  C   LIG    1      -39.580  77.918  25.202  0.00  0.00    +0.093 A 
ATOM     30  N   LIG    1      -39.102  78.671  24.202  0.00  0.00    -0.171 NA
ATOM     31  N   LIG    1      -39.850  79.783  24.202  0.00  0.00    -0.274 N 
ATOM     32  C   LIG    1      -39.613  80.804  23.211  0.00  0.00    +0.172 C 
ATOM     33  C   LIG    1      -40.793  79.795  25.182  0.00  0.00    +0.108 A 
ATOM     34  C   LIG    1      -40.642  78.605  25.855  0.00  0.00    +0.049 A 
ENDBRANCH  25  29
BRANCH  26  35
ATOM     35  C   LIG    1      -40.698  75.378  23.928  0.00  0.00    +0.418 C 
ATOM     36  F   LIG    1      -40.578  76.249  22.891  0.00  0.00    -0.166 F 
ATOM     37  F   LIG    1      -41.922  75.562  24.497  0.00  0.00    -0.166 F 
ATOM     38  F   LIG    1      -40.798  74.154  23.310  0.00  0.00    -0.166 F 
ENDBRANCH  26  35
ENDBRANCH   3  23
TORSDOF 7
ENDMDL
MODEL 4
REMARK VINA RESULT:      -6.4      3.815      6.023
REMARK  Name = pdb/CHEMBL3921392.pdb
REMARK                            x       y       z     vdW  Elec       q    Type
REMARK                         _______ _______ _______ _____ _____    ______ ____
ROOT
ATOM      1  N   LIG    1      -37.517  73.690  24.969  0.00  0.00    -0.279 N 
ATOM      2  H   LIG    1      -37.263  73.415  24.025  0.00  0.00    +0.155 HD
ATOM      3  C   LIG    1      -37.418  72.742  25.972  0.00  0.00    +0.248 C 
ATOM      4  O   LIG    1      -37.741  72.914  27.148  0.00  0.00    -0.270 OA
ENDROOT
BRANCH   1   8
ATOM      5  C   LIG    1      -38.985  77.531  25.652  0.00  0.00    +0.147 A 
ATOM      6  N   LIG    1      -39.815  76.611  25.132  0.00  0.00    -0.229 NA
ATOM      7  C   LIG    1      -39.322  75.378  24.828  0.00  0.00    +0.096 A 
ATOM      8  C   LIG    1      -37.991  75.028  25.091  0.00  0.00    +0.078 A 
ATOM      9  C   LIG    1      -37.210  76.073  25.561  0.00  0.00    +0.138 A 
ATOM     10  N   LIG    1      -37.678  77.312  25.861  0.00  0.00    -0.237 NA
BRANCH   7  11
ATOM     11  C   LIG    1      -40.337  74.517  24.157  0.00  0.00    +0.002 A 
ATOM     12  C   LIG    1      -40.177  73.129  23.980  0.00  0.00    +0.010 A 
ATOM     13  C   LIG    1      -41.133  72.362  23.299  0.00  0.00    +0.001 A 
ATOM     14  C   LIG    1      -42.248  72.972  22.734  0.00  0.00    +0.000 A 
ATOM     15  C   LIG    1      -42.416  74.346  22.856  0.00  0.00    +0.001 A 
ATOM     16  C   LIG    1      -41.478  75.101  23.565  0.00  0.00    +0.010 A 
ENDBRANCH   7  11
BRANCH   5  17
ATOM     17  C   LIG    1      -39.591  78.857  26.085  0.00  0.00    +0.180 C 
BRANCH  17  20
ATOM     18  C   LIG    1      -39.821  81.285  23.148  0.00  0.00    +0.109 C 
ATOM     19  C   LIG    1      -40.240  80.162  24.064  0.00  0.00    +0.210 C 
ATOM     20  N   LIG    1      -39.380  79.928  25.105  0.00  0.00    -0.308 N 
ATOM     21  H   LIG    1      -38.575  80.526  25.236  0.00  0.00    +0.149 HD
ATOM     22  O   LIG    1      -41.261  79.508  23.865  0.00  0.00    -0.276 OA
ENDBRANCH  17  20
ENDBRANCH   5  17
ENDBRANCH   1   8
BRANCH   3  23
ATOM     23  C   LIG    1      -36.824  71.419  25.587  0.00  0.00    +0.038 A 
ATOM     24  C   LIG    1      -37.299  70.746  24.447  0.00  0.00    +0.023 A 
ATOM     25  C   LIG    1      -36.815  69.466  24.076  0.00  0.00    +0.014 A 
ATOM     26  C   LIG    1      -35.807  68.867  24.866  0.00  0.00    +0.064 A 
ATOM     27  C   LIG    1      -35.353  69.550  26.016  0.00  0.00    +0.014 A 
ATOM     28  C   LIG    1      -35.857  70.799  26.380  0.00  0.00    +0.013 A 
BRANCH  25  29
ATOM     29  C   LIG    1      -37.393  68.798  22.895  0.00  0.00    +0.093 A 
ATOM     30  N   LIG    1      -36.877  68.971  21.672  0.00  0.00    -0.171 NA
ATOM     31  N   LIG    1      -37.616  68.205  20.859  0.00  0.00    -0.274 N 
ATOM     32  C   LIG    1      -37.297  68.137  19.453  0.00  0.00    +0.172 C 
ATOM     33  C   LIG    1      -38.615  67.545  21.504  0.00  0.00    +0.108 A 
ATOM     34  C   LIG    1      -38.506  67.912  22.826  0.00  0.00    +0.049 A 
ENDBRANCH  25  29
BRANCH  26  35
ATOM     35  C   LIG    1      -35.193  67.505  24.574  0.00  0.00    +0.418 C 
ATOM     36  F   LIG    1      -34.559  67.410  23.375  0.00  0.00    -0.166 F 
ATOM     37  F   LIG    1      -36.073  66.469  24.670  0.00  0.00    -0.166 F 
ATOM     38  F   LIG    1      -34.211  67.194  25.483  0.00  0.00    -0.166 F 
ENDBRANCH  26  35
ENDBRANCH   3  23
TORSDOF 7
ENDMDL
MODEL 5
REMARK VINA RESULT:      -6.3      4.592      9.836
REMARK  Name = pdb/CHEMBL3921392.pdb
REMARK                            x       y       z     vdW  Elec       q    Type
REMARK                         _______ _______ _______ _____ _____    ______ ____
ROOT
ATOM      1  N   LIG    1      -36.852  72.497  26.224  0.00  0.00    -0.279 N 
ATOM      2  H   LIG    1      -35.982  72.564  25.707  0.00  0.00    +0.155 HD
ATOM      3  C   LIG    1      -36.890  73.011  27.508  0.00  0.00    +0.248 C 
ATOM      4  O   LIG    1      -37.855  72.952  28.271  0.00  0.00    -0.270 OA
ENDROOT
BRANCH   1   8
ATOM      5  C   LIG    1      -39.704  70.477  23.950  0.00  0.00    +0.147 A 
ATOM      6  N   LIG    1      -39.674  71.820  23.895  0.00  0.00    -0.229 NA
ATOM      7  C   LIG    1      -38.802  72.491  24.698  0.00  0.00    +0.096 A 
ATOM      8  C   LIG    1      -37.902  71.820  25.536  0.00  0.00    +0.078 A 
ATOM      9  C   LIG    1      -38.068  70.444  25.565  0.00  0.00    +0.138 A 
ATOM     10  N   LIG    1      -38.937  69.755  24.782  0.00  0.00    -0.237 NA
BRANCH   7  11
ATOM     11  C   LIG    1      -38.974  73.968  24.602  0.00  0.00    +0.002 A 
ATOM     12  C   LIG    1      -40.166  74.581  24.173  0.00  0.00    +0.010 A 
ATOM     13  C   LIG    1      -40.272  75.973  24.049  0.00  0.00    +0.001 A 
ATOM     14  C   LIG    1      -39.172  76.786  24.305  0.00  0.00    +0.000 A 
ATOM     15  C   LIG    1      -37.968  76.210  24.693  0.00  0.00    +0.001 A 
ATOM     16  C   LIG    1      -37.878  74.824  24.847  0.00  0.00    +0.010 A 
ENDBRANCH   7  11
BRANCH   5  17
ATOM     17  C   LIG    1      -40.607  69.755  22.962  0.00  0.00    +0.180 C 
BRANCH  17  20
ATOM     18  C   LIG    1      -42.593  71.358  20.123  0.00  0.00    +0.109 C 
ATOM     19  C   LIG    1      -41.949  70.252  20.923  0.00  0.00    +0.210 C 
ATOM     20  N   LIG    1      -41.320  70.671  22.067  0.00  0.00    -0.308 N 
ATOM     21  H   LIG    1      -41.364  71.645  22.336  0.00  0.00    +0.149 HD
ATOM     22  O   LIG    1      -41.979  69.081  20.553  0.00  0.00    -0.276 OA
ENDBRANCH  17  20
ENDBRANCH   5  17
ENDBRANCH   1   8
BRANCH   3  23
ATOM     23  C   LIG    1      -35.661  73.735  27.975  0.00  0.00    +0.038 A 
ATOM     24  C   LIG    1      -35.722  75.117  28.236  0.00  0.00    +0.023 A 
ATOM     25  C   LIG    1      -34.576  75.859  28.618  0.00  0.00    +0.014 A 
ATOM     26  C   LIG    1      -33.346  75.178  28.765  0.00  0.00    +0.064 A 
ATOM     27  C   LIG    1      -33.300  73.794  28.483  0.00  0.00    +0.014 A 
ATOM     28  C   LIG    1      -34.433  73.084  28.085  0.00  0.00    +0.013 A 
BRANCH  25  29
ATOM     29  C   LIG    1      -34.704  77.312  28.829  0.00  0.00    +0.093 A 
ATOM     30  N   LIG    1      -34.520  78.183  27.828  0.00  0.00    -0.171 NA
ATOM     31  N   LIG    1      -34.742  79.392  28.359  0.00  0.00    -0.274 N 
ATOM     32  C   LIG    1      -34.657  80.567  27.524  0.00  0.00    +0.172 C 
ATOM     33  C   LIG    1      -35.049  79.349  29.683  0.00  0.00    +0.108 A 
ATOM     34  C   LIG    1      -35.026  78.017  30.024  0.00  0.00    +0.049 A 
ENDBRANCH  25  29
BRANCH  26  35
ATOM     35  C   LIG    1      -32.045  75.852  29.180  0.00  0.00    +0.418 C 
ATOM     36  F   LIG    1      -31.664  76.891  28.391  0.00  0.00    -0.166 F 
ATOM     37  F   LIG    1      -30.991  74.997  29.293  0.00  0.00    -0.166 F 
ATOM     38  F   LIG    1      -32.152  76.417  30.428  0.00  0.00    -0.166 F 
ENDBRANCH  26  35
ENDBRANCH   3  23
TORSDOF 7
ENDMDL
MODEL 6
REMARK VINA RESULT:      -6.2     15.176     18.738
REMARK  Name = pdb/CHEMBL3921392.pdb
REMARK                            x       y       z     vdW  Elec       q    Type
REMARK                         _______ _______ _______ _____ _____    ______ ____
ROOT
ATOM      1  N   LIG    1      -23.923  76.445  33.324  0.00  0.00    -0.279 N 
ATOM      2  H   LIG    1      -23.485  76.190  34.203  0.00  0.00    +0.155 HD
ATOM      3  C   LIG    1      -24.067  77.791  33.033  0.00  0.00    +0.248 C 
ATOM      4  O   LIG    1      -24.624  78.248  32.035  0.00  0.00    -0.270 OA
ENDROOT
BRANCH   1   8
ATOM      5  C   LIG    1      -25.096  73.013  31.268  0.00  0.00    +0.147 A 
ATOM      6  N   LIG    1      -23.923  73.585  30.945  0.00  0.00    -0.229 NA
ATOM      7  C   LIG    1      -23.571  74.752  31.552  0.00  0.00    +0.096 A 
ATOM      8  C   LIG    1      -24.371  75.342  32.539  0.00  0.00    +0.078 A 
ATOM      9  C   LIG    1      -25.587  74.708  32.742  0.00  0.00    +0.138 A 
ATOM     10  N   LIG    1      -25.962  73.550  32.141  0.00  0.00    -0.237 NA
BRANCH   7  11
ATOM     11  C   LIG    1      -22.305  75.313  31.001  0.00  0.00    +0.002 A 
ATOM     12  C   LIG    1      -21.040  75.066  31.568  0.00  0.00    +0.010 A 
ATOM     13  C   LIG    1      -19.877  75.652  31.050  0.00  0.00    +0.001 A 
ATOM     14  C   LIG    1      -19.955  76.539  29.981  0.00  0.00    +0.000 A 
ATOM     15  C   LIG    1      -21.193  76.835  29.422  0.00  0.00    +0.001 A 
ATOM     16  C   LIG    1      -22.346  76.222  29.922  0.00  0.00    +0.010 A 
ENDBRANCH   7  11
BRANCH   5  17
ATOM     17  C   LIG    1      -25.406  71.655  30.657  0.00  0.00    +0.180 C 
BRANCH  17  20
ATOM     18  C   LIG    1      -23.182  69.712  28.239  0.00  0.00    +0.109 C 
ATOM     19  C   LIG    1      -24.460  70.159  28.904  0.00  0.00    +0.210 C 
ATOM     20  N   LIG    1      -24.292  71.116  29.871  0.00  0.00    -0.308 N 
ATOM     21  H   LIG    1      -23.372  71.499  30.044  0.00  0.00    +0.149 HD
ATOM     22  O   LIG    1      -25.551  69.679  28.605  0.00  0.00    -0.276 OA
ENDBRANCH  17  20
ENDBRANCH   5  17
ENDBRANCH   1   8
BRANCH   3  23
ATOM     23  C   LIG    1      -23.447  78.755  34.002  0.00  0.00    +0.038 A 
ATOM     24  C   LIG    1      -24.261  79.436  34.927  0.00  0.00    +0.023 A 
ATOM     25  C   LIG    1      -23.733  80.402  35.821  0.00  0.00    +0.014 A 
ATOM     26  C   LIG    1      -22.344  80.663  35.794  0.00  0.00    +0.064 A 
ATOM     27  C   LIG    1      -21.545  79.981  34.848  0.00  0.00    +0.014 A 
ATOM     28  C   LIG    1      -22.085  79.051  33.960  0.00  0.00    +0.013 A 
BRANCH  25  29
ATOM     29  C   LIG    1      -24.652  81.111  36.729  0.00  0.00    +0.093 A 
ATOM     30  N   LIG    1      -25.225  82.270  36.378  0.00  0.00    -0.171 NA
ATOM     31  N   LIG    1      -26.009  82.609  37.410  0.00  0.00    -0.274 N 
ATOM     32  C   LIG    1      -26.806  83.810  37.339  0.00  0.00    +0.172 C 
ATOM     33  C   LIG    1      -25.957  81.720  38.439  0.00  0.00    +0.108 A 
ATOM     34  C   LIG    1      -25.080  80.739  38.035  0.00  0.00    +0.049 A 
ENDBRANCH  25  29
BRANCH  26  35
ATOM     35  C   LIG    1      -21.649  81.665  36.704  0.00  0.00    +0.418 C 
ATOM     36  F   LIG    1      -22.147  82.929  36.647  0.00  0.00    -0.166 F 
ATOM     37  F   LIG    1      -20.300  81.733  36.526  0.00  0.00    -0.166 F 
ATOM     38  F   LIG    1      -21.794  81.322  38.027  0.00  0.00    -0.166 F 
ENDBRANCH  26  35
ENDBRANCH   3  23
TORSDOF 7
ENDMDL
MODEL 7
REMARK VINA RESULT:      -6.1      1.935      3.290
REMARK  Name = pdb/CHEMBL3921392.pdb
REMARK                            x       y       z     vdW  Elec       q    Type
REMARK                         _______ _______ _______ _____ _____    ______ ____
ROOT
ATOM      1  N   LIG    1      -38.142  76.719  26.481  0.00  0.00    -0.279 N 
ATOM      2  H   LIG    1      -38.715  76.152  27.096  0.00  0.00    +0.155 HD
ATOM      3  C   LIG    1      -37.889  76.247  25.205  0.00  0.00    +0.248 C 
ATOM      4  O   LIG    1      -37.169  76.798  24.371  0.00  0.00    -0.270 OA
ENDROOT
BRANCH   1   8
ATOM      5  C   LIG    1      -36.525  80.287  27.908  0.00  0.00    +0.147 A 
ATOM      6  N   LIG    1      -35.845  79.147  28.117  0.00  0.00    -0.229 NA
ATOM      7  C   LIG    1      -36.405  77.967  27.728  0.00  0.00    +0.096 A 
ATOM      8  C   LIG    1      -37.641  77.916  27.071  0.00  0.00    +0.078 A 
ATOM      9  C   LIG    1      -38.285  79.141  26.972  0.00  0.00    +0.138 A 
ATOM     10  N   LIG    1      -37.750  80.326  27.362  0.00  0.00    -0.237 NA
BRANCH   7  11
ATOM     11  C   LIG    1      -35.580  76.794  28.133  0.00  0.00    +0.002 A 
ATOM     12  C   LIG    1      -35.730  76.133  29.367  0.00  0.00    +0.010 A 
ATOM     13  C   LIG    1      -34.901  75.063  29.732  0.00  0.00    +0.001 A 
ATOM     14  C   LIG    1      -33.868  74.659  28.892  0.00  0.00    +0.000 A 
ATOM     15  C   LIG    1      -33.669  75.315  27.683  0.00  0.00    +0.001 A 
ATOM     16  C   LIG    1      -34.519  76.359  27.309  0.00  0.00    +0.010 A 
ENDBRANCH   7  11
BRANCH   5  17
ATOM     17  C   LIG    1      -35.825  81.593  28.250  0.00  0.00    +0.180 C 
BRANCH  17  20
ATOM     18  C   LIG    1      -35.909  84.259  25.518  0.00  0.00    +0.109 C 
ATOM     19  C   LIG    1      -36.301  83.561  26.798  0.00  0.00    +0.210 C 
ATOM     20  N   LIG    1      -35.575  82.431  27.073  0.00  0.00    -0.308 N 
ATOM     21  H   LIG    1      -34.813  82.164  26.465  0.00  0.00    +0.149 HD
ATOM     22  O   LIG    1      -37.211  83.975  27.511  0.00  0.00    -0.276 OA
ENDBRANCH  17  20
ENDBRANCH   5  17
ENDBRANCH   1   8
BRANCH   3  23
ATOM     23  C   LIG    1      -38.594  74.983  24.807  0.00  0.00    +0.038 A 
ATOM     24  C   LIG    1      -39.947  75.030  24.423  0.00  0.00    +0.023 A 
ATOM     25  C   LIG    1      -40.675  73.857  24.098  0.00  0.00    +0.014 A 
ATOM     26  C   LIG    1      -40.007  72.612  24.139  0.00  0.00    +0.064 A 
ATOM     27  C   LIG    1      -38.653  72.582  24.542  0.00  0.00    +0.014 A 
ATOM     28  C   LIG    1      -37.958  73.744  24.881  0.00  0.00    +0.013 A 
BRANCH  25  29
ATOM     29  C   LIG    1      -42.102  73.976  23.751  0.00  0.00    +0.093 A 
ATOM     30  N   LIG    1      -43.060  73.848  24.678  0.00  0.00    -0.171 NA
ATOM     31  N   LIG    1      -44.216  74.043  24.029  0.00  0.00    -0.274 N 
ATOM     32  C   LIG    1      -45.461  74.006  24.758  0.00  0.00    +0.172 C 
ATOM     33  C   LIG    1      -44.052  74.277  22.700  0.00  0.00    +0.108 A 
ATOM     34  C   LIG    1      -42.694  74.233  22.481  0.00  0.00    +0.049 A 
ENDBRANCH  25  29
BRANCH  26  35
ATOM     35  C   LIG    1      -40.666  71.281  23.805  0.00  0.00    +0.418 C 
ATOM     36  F   LIG    1      -41.196  71.205  22.555  0.00  0.00    -0.166 F 
ATOM     37  F   LIG    1      -41.624  70.899  24.695  0.00  0.00    -0.166 F 
ATOM     38  F   LIG    1      -39.756  70.252  23.832  0.00  0.00    -0.166 F 
ENDBRANCH  26  35
ENDBRANCH   3  23
TORSDOF 7
ENDMDL
MODEL 8
REMARK VINA RESULT:      -5.9      4.476     10.290
REMARK  Name = pdb/CHEMBL3921392.pdb
REMARK                            x       y       z     vdW  Elec       q    Type
REMARK                         _______ _______ _______ _____ _____    ______ ____
ROOT
ATOM      1  N   LIG    1      -37.395  69.759  23.246  0.00  0.00    -0.279 N 
ATOM      2  H   LIG    1      -36.909  70.609  22.982  0.00  0.00    +0.155 HD
ATOM      3  C   LIG    1      -38.652  69.876  23.815  0.00  0.00    +0.248 C 
ATOM      4  O   LIG    1      -39.334  68.940  24.233  0.00  0.00    -0.270 OA
ENDROOT
BRANCH   1   8
ATOM      5  C   LIG    1      -35.523  66.076  22.685  0.00  0.00    +0.147 A 
ATOM      6  N   LIG    1      -35.401  66.683  23.878  0.00  0.00    -0.229 NA
ATOM      7  C   LIG    1      -35.939  67.923  24.044  0.00  0.00    +0.096 A 
ATOM      8  C   LIG    1      -36.659  68.559  23.024  0.00  0.00    +0.078 A 
ATOM      9  C   LIG    1      -36.661  67.876  21.817  0.00  0.00    +0.138 A 
ATOM     10  N   LIG    1      -36.123  66.644  21.627  0.00  0.00    -0.237 NA
BRANCH   7  11
ATOM     11  C   LIG    1      -35.618  68.500  25.380  0.00  0.00    +0.002 A 
ATOM     12  C   LIG    1      -36.517  68.487  26.464  0.00  0.00    +0.010 A 
ATOM     13  C   LIG    1      -36.196  69.084  27.690  0.00  0.00    +0.001 A 
ATOM     14  C   LIG    1      -34.987  69.755  27.849  0.00  0.00    +0.000 A 
ATOM     15  C   LIG    1      -34.093  69.820  26.786  0.00  0.00    +0.001 A 
ATOM     16  C   LIG    1      -34.404  69.194  25.576  0.00  0.00    +0.010 A 
ENDBRANCH   7  11
BRANCH   5  17
ATOM     17  C   LIG    1      -35.012  64.649  22.567  0.00  0.00    +0.180 C 
BRANCH  17  20
ATOM     18  C   LIG    1      -34.997  62.607  25.792  0.00  0.00    +0.109 C 
ATOM     19  C   LIG    1      -35.469  63.064  24.434  0.00  0.00    +0.210 C 
ATOM     20  N   LIG    1      -34.700  64.047  23.867  0.00  0.00    -0.308 N 
ATOM     21  H   LIG    1      -33.861  64.361  24.336  0.00  0.00    +0.149 HD
ATOM     22  O   LIG    1      -36.476  62.599  23.906  0.00  0.00    -0.276 OA
ENDBRANCH  17  20
ENDBRANCH   5  17
ENDBRANCH   1   8
BRANCH   3  23
ATOM     23  C   LIG    1      -39.232  71.259  23.877  0.00  0.00    +0.038 A 
ATOM     24  C   LIG    1      -38.527  72.282  24.537  0.00  0.00    +0.023 A 
ATOM     25  C   LIG    1      -39.060  73.589  24.678  0.00  0.00    +0.014 A 
ATOM     26  C   LIG    1      -40.325  73.870  24.113  0.00  0.00    +0.064 A 
ATOM     27  C   LIG    1      -41.025  72.825  23.467  0.00  0.00    +0.014 A 
ATOM     28  C   LIG    1      -40.496  71.539  23.359  0.00  0.00    +0.013 A 
BRANCH  25  29
ATOM     29  C   LIG    1      -38.288  74.599  25.424  0.00  0.00    +0.093 A 
ATOM     30  N   LIG    1      -38.249  74.601  26.762  0.00  0.00    -0.171 NA
ATOM     31  N   LIG    1      -37.443  75.617  27.096  0.00  0.00    -0.274 N 
ATOM     32  C   LIG    1      -37.158  75.878  28.487  0.00  0.00    +0.172 C 
ATOM     33  C   LIG    1      -36.962  76.297  26.021  0.00  0.00    +0.108 A 
ATOM     34  C   LIG    1      -37.496  75.669  24.919  0.00  0.00    +0.049 A 
ENDBRANCH  25  29
BRANCH  26  35
ATOM     35  C   LIG    1      -41.005  75.229  24.182  0.00  0.00    +0.418 C 
ATOM     36  F   LIG    1      -42.310  75.235  23.801  0.00  0.00    -0.166 F 
ATOM     37  F   LIG    1      -40.358  76.208  23.490  0.00  0.00    -0.166 F 
ATOM     38  F   LIG    1      -41.045  75.703  25.471  0.00  0.00    -0.166 F 
ENDBRANCH  26  35
ENDBRANCH   3  23
TORSDOF 7
ENDMDL
MODEL 9
REMARK VINA RESULT:      -5.8      2.266      2.654
REMARK  Name = pdb/CHEMBL3921392.pdb
REMARK                            x       y       z     vdW  Elec       q    Type
REMARK                         _______ _______ _______ _____ _____    ______ ____
ROOT
ATOM      1  N   LIG    1      -38.360  75.177  26.681  0.00  0.00    -0.279 N 
ATOM      2  H   LIG    1      -38.966  74.540  27.188  0.00  0.00    +0.155 HD
ATOM      3  C   LIG    1      -38.290  75.053  25.304  0.00  0.00    +0.248 C 
ATOM      4  O   LIG    1      -37.560  75.717  24.567  0.00  0.00    -0.270 OA
ENDROOT
BRANCH   1   8
ATOM      5  C   LIG    1      -36.078  77.949  28.800  0.00  0.00    +0.147 A 
ATOM      6  N   LIG    1      -35.591  76.707  28.638  0.00  0.00    -0.229 NA
ATOM      7  C   LIG    1      -36.365  75.772  28.020  0.00  0.00    +0.096 A 
ATOM      8  C   LIG    1      -37.629  76.083  27.504  0.00  0.00    +0.078 A 
ATOM      9  C   LIG    1      -38.060  77.370  27.789  0.00  0.00    +0.138 A 
ATOM     10  N   LIG    1      -37.310  78.314  28.412  0.00  0.00    -0.237 NA
BRANCH   7  11
ATOM     11  C   LIG    1      -35.728  74.425  28.023  0.00  0.00    +0.002 A 
ATOM     12  C   LIG    1      -36.462  73.224  28.067  0.00  0.00    +0.010 A 
ATOM     13  C   LIG    1      -35.824  71.976  28.118  0.00  0.00    +0.001 A 
ATOM     14  C   LIG    1      -34.436  71.900  28.176  0.00  0.00    +0.000 A 
ATOM     15  C   LIG    1      -33.683  73.068  28.174  0.00  0.00    +0.001 A 
ATOM     16  C   LIG    1      -34.323  74.308  28.089  0.00  0.00    +0.010 A 
ENDBRANCH   7  11
BRANCH   5  17
ATOM     17  C   LIG    1      -35.147  78.997  29.391  0.00  0.00    +0.180 C 
BRANCH  17  20
ATOM     18  C   LIG    1      -31.904  79.181  27.385  0.00  0.00    +0.109 C 
ATOM     19  C   LIG    1      -33.348  79.455  27.730  0.00  0.00    +0.210 C 
ATOM     20  N   LIG    1      -33.771  78.878  28.899  0.00  0.00    -0.308 N 
ATOM     21  H   LIG    1      -33.113  78.370  29.475  0.00  0.00    +0.149 HD
ATOM     22  O   LIG    1      -34.075  80.123  26.999  0.00  0.00    -0.276 OA
ENDBRANCH  17  20
ENDBRANCH   5  17
ENDBRANCH   1   8
BRANCH   3  23
ATOM     23  C   LIG    1      -39.217  74.057  24.674  0.00  0.00    +0.038 A 
ATOM     24  C   LIG    1      -38.870  72.693  24.657  0.00  0.00    +0.023 A 
ATOM     25  C   LIG    1      -39.681  71.721  24.019  0.00  0.00    +0.014 A 
ATOM     26  C   LIG    1      -40.886  72.138  23.407  0.00  0.00    +0.064 A 
ATOM     27  C   LIG    1      -41.210  73.514  23.420  0.00  0.00    +0.014 A 
ATOM     28  C   LIG    1      -40.388  74.460  24.032  0.00  0.00    +0.013 A 
BRANCH  25  29
ATOM     29  C   LIG    1      -39.232  70.317  23.999  0.00  0.00    +0.093 A 
ATOM     30  N   LIG    1      -39.558  69.465  24.979  0.00  0.00    -0.171 NA
ATOM     31  N   LIG    1      -39.019  68.290  24.627  0.00  0.00    -0.274 N 
ATOM     32  C   LIG    1      -39.216  67.132  25.465  0.00  0.00    +0.172 C 
ATOM     33  C   LIG    1      -38.331  68.345  23.455  0.00  0.00    +0.108 A 
ATOM     34  C   LIG    1      -38.441  69.647  23.023  0.00  0.00    +0.049 A 
ENDBRANCH  25  29
BRANCH  26  35
ATOM     35  C   LIG    1      -41.851  71.198  22.699  0.00  0.00    +0.418 C 
ATOM     36  F   LIG    1      -42.946  71.801  22.166  0.00  0.00    -0.166 F 
ATOM     37  F   LIG    1      -42.273  70.156  23.468  0.00  0.00    -0.166 F 
ATOM     38  F   LIG    1      -41.257  70.595  21.617  0.00  0.00    -0.166 F 
ENDBRANCH  26  35
ENDBRANCH   3  23
TORSDOF 7
ENDMDL
