MODEL 1
REMARK VINA RESULT:      -5.8      0.000      0.000
REMARK  Name = pdb/CHEMBL3900180.pdb
REMARK                            x       y       z     vdW  Elec       q    Type
REMARK                         _______ _______ _______ _____ _____    ______ ____
ROOT
ATOM      1  C   LIG    1      -23.455  81.115  15.472  0.00  0.00    +0.042 A 
ATOM      2  C   LIG    1      -23.307  79.749  15.766  0.00  0.00    +0.042 A 
ATOM      3  C   LIG    1      -24.160  78.792  15.197  0.00  0.00    +0.086 A 
ATOM      4  C   LIG    1      -25.118  79.275  14.301  0.00  0.00    +0.138 A 
ATOM      5  N   LIG    1      -25.286  80.583  13.972  0.00  0.00    -0.260 NA
ATOM      6  C   LIG    1      -24.442  81.463  14.552  0.00  0.00    +0.122 A 
ENDROOT
BRANCH   1   7
ATOM      7  C   LIG    1      -22.565  82.153  16.073  0.00  0.00    +0.197 C 
ATOM      8  O   LIG    1      -22.445  82.190  17.305  0.00  0.00    -0.287 OA
BRANCH   7  17
ATOM      9  N   LIG    1      -21.328  84.950  14.003  0.00  0.00    -0.336 N 
ATOM     10  C   LIG    1      -20.334  84.017  13.728  0.00  0.00    +0.089 A 
ATOM     11  C   LIG    1      -19.227  84.013  12.869  0.00  0.00    +0.165 A 
ATOM     12  F   LIG    1      -18.976  84.987  11.989  0.00  0.00    -0.202 F 
ATOM     13  C   LIG    1      -18.366  82.931  12.947  0.00  0.00    +0.151 A 
ATOM     14  N   LIG    1      -18.524  81.886  13.782  0.00  0.00    -0.260 NA
ATOM     15  C   LIG    1      -19.621  81.856  14.579  0.00  0.00    +0.121 A 
ATOM     16  C   LIG    1      -20.566  82.898  14.557  0.00  0.00    +0.032 A 
ATOM     17  C   LIG    1      -21.829  83.084  15.205  0.00  0.00    +0.049 A 
ATOM     18  C   LIG    1      -22.219  84.371  14.897  0.00  0.00    +0.099 A 
BRANCH   9  20
ATOM     19  C   LIG    1      -22.713  87.042  14.046  0.00  0.00    +0.036 C 
ATOM     20  C   LIG    1      -21.431  86.358  13.518  0.00  0.00    +0.063 C 
ATOM     21  C   LIG    1      -21.556  86.408  11.965  0.00  0.00    +0.036 C 
BRANCH  20  22
ATOM     22  C   LIG    1      -20.195  87.190  13.952  0.00  0.00    +0.183 C 
BRANCH  22  23
ATOM     23  O   LIG    1      -20.511  88.579  14.070  0.00  0.00    -0.393 OA
ATOM     24  H   LIG    1      -21.173  88.783  13.386  0.00  0.00    +0.209 HD
ENDBRANCH  22  23
ENDBRANCH  20  22
ENDBRANCH   9  20
ENDBRANCH   7  17
ENDBRANCH   1   7
BRANCH   3  25
ATOM     25  N   LIG    1      -23.940  77.429  15.505  0.00  0.00    -0.214 NA
ATOM     26  C   LIG    1      -23.118  76.689  14.830  0.00  0.00    +0.210 C 
BRANCH  26  27
ATOM     27  O   LIG    1      -22.476  77.143  13.730  0.00  0.00    -0.494 OA
ATOM     28  H   LIG    1      -22.034  76.425  13.236  0.00  0.00    +0.293 HD
ENDBRANCH  26  27
BRANCH  26  29
ATOM     29  C   LIG    1      -22.909  75.226  15.175  0.00  0.00    +0.238 C 
BRANCH  29  30
ATOM     30  N   LIG    1      -21.667  74.967  15.889  0.00  0.00    -0.262 N 
ATOM     31  N   LIG    1      -20.644  75.825  15.746  0.00  0.00    -0.175 NA
ATOM     32  C   LIG    1      -19.638  75.252  16.407  0.00  0.00    +0.066 A 
ATOM     33  C   LIG    1      -20.008  74.014  16.963  0.00  0.00    +0.044 A 
ATOM     34  C   LIG    1      -21.331  73.856  16.611  0.00  0.00    +0.109 A 
BRANCH  32  35
ATOM     35  C   LIG    1      -18.255  75.874  16.514  0.00  0.00    +0.040 C 
ATOM     36  C   LIG    1      -17.689  76.112  17.899  0.00  0.00    +0.010 C 
ATOM     37  C   LIG    1      -18.132  77.277  17.084  0.00  0.00    +0.010 C 
ENDBRANCH  32  35
ENDBRANCH  29  30
ENDBRANCH  26  29
ENDBRANCH   3  25
TORSDOF 10
ENDMDL
MODEL 2
REMARK VINA RESULT:      -5.8     18.767     21.486
REMARK  Name = pdb/CHEMBL3900180.pdb
REMARK                            x       y       z     vdW  Elec       q    Type
REMARK                         _______ _______ _______ _____ _____    ______ ____
ROOT
ATOM      1  C   LIG    1      -21.626  79.705  36.216  0.00  0.00    +0.042 A 
ATOM      2  C   LIG    1      -22.760  80.242  36.850  0.00  0.00    +0.042 A 
ATOM      3  C   LIG    1      -22.758  81.558  37.337  0.00  0.00    +0.086 A 
ATOM      4  C   LIG    1      -21.593  82.296  37.114  0.00  0.00    +0.138 A 
ATOM      5  N   LIG    1      -20.481  81.826  36.490  0.00  0.00    -0.260 NA
ATOM      6  C   LIG    1      -20.533  80.552  36.045  0.00  0.00    +0.122 A 
ENDROOT
BRANCH   1   7
ATOM      7  C   LIG    1      -21.601  78.305  35.697  0.00  0.00    +0.197 C 
ATOM      8  O   LIG    1      -21.232  77.397  36.456  0.00  0.00    -0.287 OA
BRANCH   7  17
ATOM      9  N   LIG    1      -23.384  77.452  32.578  0.00  0.00    -0.336 N 
ATOM     10  C   LIG    1      -22.096  77.575  32.068  0.00  0.00    +0.089 A 
ATOM     11  C   LIG    1      -21.536  77.360  30.801  0.00  0.00    +0.165 A 
ATOM     12  F   LIG    1      -22.216  76.839  29.775  0.00  0.00    -0.202 F 
ATOM     13  C   LIG    1      -20.207  77.707  30.626  0.00  0.00    +0.151 A 
ATOM     14  N   LIG    1      -19.420  78.226  31.588  0.00  0.00    -0.260 NA
ATOM     15  C   LIG    1      -19.937  78.387  32.832  0.00  0.00    +0.121 A 
ATOM     16  C   LIG    1      -21.273  78.043  33.114  0.00  0.00    +0.032 A 
ATOM     17  C   LIG    1      -22.039  78.021  34.323  0.00  0.00    +0.049 A 
ATOM     18  C   LIG    1      -23.331  77.726  33.938  0.00  0.00    +0.099 A 
BRANCH   9  20
ATOM     19  C   LIG    1      -25.878  77.244  32.765  0.00  0.00    +0.036 C 
ATOM     20  C   LIG    1      -24.646  77.156  31.836  0.00  0.00    +0.063 C 
ATOM     21  C   LIG    1      -24.648  75.694  31.296  0.00  0.00    +0.036 C 
BRANCH  20  22
ATOM     22  C   LIG    1      -24.835  78.135  30.646  0.00  0.00    +0.183 C 
BRANCH  22  23
ATOM     23  O   LIG    1      -25.244  77.447  29.461  0.00  0.00    -0.393 OA
ATOM     24  H   LIG    1      -25.919  77.999  29.027  0.00  0.00    +0.209 HD
ENDBRANCH  22  23
ENDBRANCH  20  22
ENDBRANCH   9  20
ENDBRANCH   7  17
ENDBRANCH   1   7
BRANCH   3  25
ATOM     25  N   LIG    1      -23.940  82.053  37.937  0.00  0.00    -0.214 NA
ATOM     26  C   LIG    1      -24.738  82.870  37.324  0.00  0.00    +0.210 C 
BRANCH  26  27
ATOM     27  O   LIG    1      -24.455  83.374  36.102  0.00  0.00    -0.494 OA
ATOM     28  H   LIG    1      -25.178  83.224  35.462  0.00  0.00    +0.293 HD
ENDBRANCH  26  27
BRANCH  26  29
ATOM     29  C   LIG    1      -25.995  83.395  37.994  0.00  0.00    +0.238 C 
BRANCH  29  30
ATOM     30  N   LIG    1      -26.998  83.876  37.056  0.00  0.00    -0.262 N 
ATOM     31  N   LIG    1      -26.747  84.991  36.351  0.00  0.00    -0.175 NA
ATOM     32  C   LIG    1      -27.884  85.232  35.698  0.00  0.00    +0.066 A 
ATOM     33  C   LIG    1      -28.876  84.281  35.996  0.00  0.00    +0.044 A 
ATOM     34  C   LIG    1      -28.272  83.413  36.879  0.00  0.00    +0.109 A 
BRANCH  32  35
ATOM     35  C   LIG    1      -28.068  86.417  34.764  0.00  0.00    +0.040 C 
ATOM     36  C   LIG    1      -27.052  87.538  34.831  0.00  0.00    +0.010 C 
ATOM     37  C   LIG    1      -28.423  87.767  35.364  0.00  0.00    +0.010 C 
ENDBRANCH  32  35
ENDBRANCH  29  30
ENDBRANCH  26  29
ENDBRANCH   3  25
TORSDOF 10
ENDMDL
MODEL 3
REMARK VINA RESULT:      -5.6     18.571     20.394
REMARK  Name = pdb/CHEMBL3900180.pdb
REMARK                            x       y       z     vdW  Elec       q    Type
REMARK                         _______ _______ _______ _____ _____    ______ ____
ROOT
ATOM      1  C   LIG    1      -35.744  80.266  28.003  0.00  0.00    +0.042 A 
ATOM      2  C   LIG    1      -36.245  78.954  28.054  0.00  0.00    +0.042 A 
ATOM      3  C   LIG    1      -35.397  77.850  27.884  0.00  0.00    +0.086 A 
ATOM      4  C   LIG    1      -34.039  78.137  27.711  0.00  0.00    +0.138 A 
ATOM      5  N   LIG    1      -33.507  79.387  27.675  0.00  0.00    -0.260 NA
ATOM      6  C   LIG    1      -34.369  80.414  27.837  0.00  0.00    +0.122 A 
ENDROOT
BRANCH   1   7
ATOM      7  C   LIG    1      -36.629  81.456  28.171  0.00  0.00    +0.197 C 
ATOM      8  O   LIG    1      -36.697  81.993  29.286  0.00  0.00    -0.287 OA
BRANCH   7  17
ATOM      9  N   LIG    1      -38.871  82.116  25.312  0.00  0.00    -0.336 N 
ATOM     10  C   LIG    1      -38.066  83.247  25.224  0.00  0.00    +0.089 A 
ATOM     11  C   LIG    1      -37.987  84.305  24.310  0.00  0.00    +0.165 A 
ATOM     12  F   LIG    1      -38.694  84.353  23.177  0.00  0.00    -0.202 F 
ATOM     13  C   LIG    1      -37.122  85.344  24.613  0.00  0.00    +0.151 A 
ATOM     14  N   LIG    1      -36.349  85.398  25.715  0.00  0.00    -0.260 NA
ATOM     15  C   LIG    1      -36.378  84.352  26.578  0.00  0.00    +0.121 A 
ATOM     16  C   LIG    1      -37.210  83.241  26.347  0.00  0.00    +0.032 A 
ATOM     17  C   LIG    1      -37.374  81.989  27.021  0.00  0.00    +0.049 A 
ATOM     18  C   LIG    1      -38.441  81.371  26.402  0.00  0.00    +0.099 A 
BRANCH   9  20
ATOM     19  C   LIG    1      -41.146  82.837  24.536  0.00  0.00    +0.036 C 
ATOM     20  C   LIG    1      -40.047  81.753  24.466  0.00  0.00    +0.063 C 
ATOM     21  C   LIG    1      -40.728  80.450  24.983  0.00  0.00    +0.036 C 
BRANCH  20  22
ATOM     22  C   LIG    1      -39.627  81.550  22.985  0.00  0.00    +0.183 C 
BRANCH  22  23
ATOM     23  O   LIG    1      -39.078  80.247  22.769  0.00  0.00    -0.393 OA
ATOM     24  H   LIG    1      -39.619  79.817  22.083  0.00  0.00    +0.209 HD
ENDBRANCH  22  23
ENDBRANCH  20  22
ENDBRANCH   9  20
ENDBRANCH   7  17
ENDBRANCH   1   7
BRANCH   3  25
ATOM     25  N   LIG    1      -35.955  76.553  27.978  0.00  0.00    -0.214 NA
ATOM     26  C   LIG    1      -36.382  75.906  26.939  0.00  0.00    +0.210 C 
BRANCH  26  27
ATOM     27  O   LIG    1      -36.405  76.458  25.705  0.00  0.00    -0.494 OA
ATOM     28  H   LIG    1      -35.738  77.165  25.602  0.00  0.00    +0.293 HD
ENDBRANCH  26  27
BRANCH  26  29
ATOM     29  C   LIG    1      -36.987  74.520  27.068  0.00  0.00    +0.238 C 
BRANCH  29  30
ATOM     30  N   LIG    1      -37.984  74.222  26.050  0.00  0.00    -0.262 N 
ATOM     31  N   LIG    1      -39.070  75.006  25.954  0.00  0.00    -0.175 NA
ATOM     32  C   LIG    1      -39.830  74.407  25.038  0.00  0.00    +0.066 A 
ATOM     33  C   LIG    1      -39.241  73.224  24.555  0.00  0.00    +0.044 A 
ATOM     34  C   LIG    1      -38.044  73.130  25.229  0.00  0.00    +0.109 A 
BRANCH  32  35
ATOM     35  C   LIG    1      -41.182  74.946  24.601  0.00  0.00    +0.040 C 
ATOM     36  C   LIG    1      -41.732  74.485  23.267  0.00  0.00    +0.010 C 
ATOM     37  C   LIG    1      -41.239  75.883  23.406  0.00  0.00    +0.010 C 
ENDBRANCH  32  35
ENDBRANCH  29  30
ENDBRANCH  26  29
ENDBRANCH   3  25
TORSDOF 10
ENDMDL
MODEL 4
REMARK VINA RESULT:      -5.6     18.934     21.374
REMARK  Name = pdb/CHEMBL3900180.pdb
REMARK                            x       y       z     vdW  Elec       q    Type
REMARK                         _______ _______ _______ _____ _____    ______ ____
ROOT
ATOM      1  C   LIG    1      -21.707  80.083  36.025  0.00  0.00    +0.042 A 
ATOM      2  C   LIG    1      -22.894  80.828  35.922  0.00  0.00    +0.042 A 
ATOM      3  C   LIG    1      -22.940  82.171  36.324  0.00  0.00    +0.086 A 
ATOM      4  C   LIG    1      -21.737  82.719  36.781  0.00  0.00    +0.138 A 
ATOM      5  N   LIG    1      -20.562  82.044  36.879  0.00  0.00    -0.260 NA
ATOM      6  C   LIG    1      -20.574  80.752  36.484  0.00  0.00    +0.122 A 
ENDROOT
BRANCH   1   7
ATOM      7  C   LIG    1      -21.636  78.650  35.611  0.00  0.00    +0.197 C 
ATOM      8  O   LIG    1      -21.247  77.813  36.438  0.00  0.00    -0.287 OA
BRANCH   7  17
ATOM      9  N   LIG    1      -23.371  77.530  32.550  0.00  0.00    -0.336 N 
ATOM     10  C   LIG    1      -22.077  77.625  32.047  0.00  0.00    +0.089 A 
ATOM     11  C   LIG    1      -21.499  77.314  30.809  0.00  0.00    +0.165 A 
ATOM     12  F   LIG    1      -22.161  76.704  29.821  0.00  0.00    -0.202 F 
ATOM     13  C   LIG    1      -20.171  77.658  30.623  0.00  0.00    +0.151 A 
ATOM     14  N   LIG    1      -19.401  78.261  31.550  0.00  0.00    -0.260 NA
ATOM     15  C   LIG    1      -19.936  78.516  32.770  0.00  0.00    +0.121 A 
ATOM     16  C   LIG    1      -21.272  78.183  33.062  0.00  0.00    +0.032 A 
ATOM     17  C   LIG    1      -22.054  78.252  34.259  0.00  0.00    +0.049 A 
ATOM     18  C   LIG    1      -23.338  77.914  33.884  0.00  0.00    +0.099 A 
BRANCH   9  20
ATOM     19  C   LIG    1      -25.852  77.214  32.751  0.00  0.00    +0.036 C 
ATOM     20  C   LIG    1      -24.620  77.164  31.819  0.00  0.00    +0.063 C 
ATOM     21  C   LIG    1      -24.558  75.693  31.307  0.00  0.00    +0.036 C 
BRANCH  20  22
ATOM     22  C   LIG    1      -24.857  78.109  30.611  0.00  0.00    +0.183 C 
BRANCH  22  23
ATOM     23  O   LIG    1      -25.212  77.378  29.434  0.00  0.00    -0.393 OA
ATOM     24  H   LIG    1      -26.066  76.945  29.612  0.00  0.00    +0.209 HD
ENDBRANCH  22  23
ENDBRANCH  20  22
ENDBRANCH   9  20
ENDBRANCH   7  17
ENDBRANCH   1   7
BRANCH   3  25
ATOM     25  N   LIG    1      -24.155  82.878  36.167  0.00  0.00    -0.214 NA
ATOM     26  C   LIG    1      -25.011  83.007  37.131  0.00  0.00    +0.210 C 
BRANCH  26  27
ATOM     27  O   LIG    1      -24.845  82.403  38.329  0.00  0.00    -0.494 OA
ATOM     28  H   LIG    1      -23.985  82.622  38.738  0.00  0.00    +0.293 HD
ENDBRANCH  26  27
BRANCH  26  29
ATOM     29  C   LIG    1      -26.313  83.762  36.933  0.00  0.00    +0.238 C 
BRANCH  29  30
ATOM     30  N   LIG    1      -27.498  82.932  37.089  0.00  0.00    -0.262 N 
ATOM     31  N   LIG    1      -27.348  81.606  37.242  0.00  0.00    -0.175 NA
ATOM     32  C   LIG    1      -28.592  81.129  37.229  0.00  0.00    +0.066 A 
ATOM     33  C   LIG    1      -29.547  82.147  37.051  0.00  0.00    +0.044 A 
ATOM     34  C   LIG    1      -28.807  83.306  36.963  0.00  0.00    +0.109 A 
BRANCH  32  35
ATOM     35  C   LIG    1      -28.915  79.650  37.370  0.00  0.00    +0.040 C 
ATOM     36  C   LIG    1      -27.964  78.653  36.740  0.00  0.00    +0.010 C 
ATOM     37  C   LIG    1      -29.304  78.870  36.126  0.00  0.00    +0.010 C 
ENDBRANCH  32  35
ENDBRANCH  29  30
ENDBRANCH  26  29
ENDBRANCH   3  25
TORSDOF 10
ENDMDL
MODEL 5
REMARK VINA RESULT:      -5.5     17.892     21.064
REMARK  Name = pdb/CHEMBL3900180.pdb
REMARK                            x       y       z     vdW  Elec       q    Type
REMARK                         _______ _______ _______ _____ _____    ______ ____
ROOT
ATOM      1  C   LIG    1      -35.541  82.065  28.659  0.00  0.00    +0.042 A 
ATOM      2  C   LIG    1      -35.374  83.434  28.927  0.00  0.00    +0.042 A 
ATOM      3  C   LIG    1      -35.931  84.407  28.084  0.00  0.00    +0.086 A 
ATOM      4  C   LIG    1      -36.686  83.931  27.007  0.00  0.00    +0.138 A 
ATOM      5  N   LIG    1      -36.890  82.619  26.721  0.00  0.00    -0.260 NA
ATOM      6  C   LIG    1      -36.327  81.723  27.561  0.00  0.00    +0.122 A 
ENDROOT
BRANCH   1   7
ATOM      7  C   LIG    1      -34.950  81.011  29.537  0.00  0.00    +0.197 C 
ATOM      8  O   LIG    1      -34.568  81.330  30.672  0.00  0.00    -0.287 OA
BRANCH   7  17
ATOM      9  N   LIG    1      -35.250  77.387  28.893  0.00  0.00    -0.336 N 
ATOM     10  C   LIG    1      -34.197  77.677  28.031  0.00  0.00    +0.089 A 
ATOM     11  C   LIG    1      -33.376  76.889  27.214  0.00  0.00    +0.165 A 
ATOM     12  F   LIG    1      -33.410  75.553  27.206  0.00  0.00    -0.202 F 
ATOM     13  C   LIG    1      -32.486  77.549  26.382  0.00  0.00    +0.151 A 
ATOM     14  N   LIG    1      -32.353  78.888  26.314  0.00  0.00    -0.260 NA
ATOM     15  C   LIG    1      -33.104  79.656  27.141  0.00  0.00    +0.121 A 
ATOM     16  C   LIG    1      -34.022  79.078  28.038  0.00  0.00    +0.032 A 
ATOM     17  C   LIG    1      -34.859  79.623  29.063  0.00  0.00    +0.049 A 
ATOM     18  C   LIG    1      -35.637  78.573  29.504  0.00  0.00    +0.099 A 
BRANCH   9  20
ATOM     19  C   LIG    1      -36.418  75.471  27.772  0.00  0.00    +0.036 C 
ATOM     20  C   LIG    1      -35.932  76.077  29.108  0.00  0.00    +0.063 C 
ATOM     21  C   LIG    1      -37.221  76.251  29.967  0.00  0.00    +0.036 C 
BRANCH  20  22
ATOM     22  C   LIG    1      -34.988  75.066  29.812  0.00  0.00    +0.183 C 
BRANCH  22  23
ATOM     23  O   LIG    1      -35.349  74.878  31.183  0.00  0.00    -0.393 OA
ATOM     24  H   LIG    1      -35.391  75.761  31.593  0.00  0.00    +0.209 HD
ENDBRANCH  22  23
ENDBRANCH  20  22
ENDBRANCH   9  20
ENDBRANCH   7  17
ENDBRANCH   1   7
BRANCH   3  25
ATOM     25  N   LIG    1      -35.757  85.769  28.423  0.00  0.00    -0.214 NA
ATOM     26  C   LIG    1      -34.790  86.486  27.940  0.00  0.00    +0.210 C 
BRANCH  26  27
ATOM     27  O   LIG    1      -33.831  85.961  27.146  0.00  0.00    -0.494 OA
ATOM     28  H   LIG    1      -33.794  86.396  26.272  0.00  0.00    +0.293 HD
ENDBRANCH  26  27
BRANCH  26  29
ATOM     29  C   LIG    1      -34.619  87.943  28.329  0.00  0.00    +0.238 C 
BRANCH  29  30
ATOM     30  N   LIG    1      -33.697  88.146  29.436  0.00  0.00    -0.262 N 
ATOM     31  N   LIG    1      -32.571  87.417  29.488  0.00  0.00    -0.175 NA
ATOM     32  C   LIG    1      -32.022  87.739  30.658  0.00  0.00    +0.066 A 
ATOM     33  C   LIG    1      -32.803  88.665  31.372  0.00  0.00    +0.044 A 
ATOM     34  C   LIG    1      -33.884  88.912  30.553  0.00  0.00    +0.109 A 
BRANCH  32  35
ATOM     35  C   LIG    1      -30.714  87.143  31.153  0.00  0.00    +0.040 C 
ATOM     36  C   LIG    1      -29.965  87.880  32.245  0.00  0.00    +0.010 C 
ATOM     37  C   LIG    1      -29.420  87.884  30.858  0.00  0.00    +0.010 C 
ENDBRANCH  32  35
ENDBRANCH  29  30
ENDBRANCH  26  29
ENDBRANCH   3  25
TORSDOF 10
ENDMDL
MODEL 6
REMARK VINA RESULT:      -5.5     17.723     20.007
REMARK  Name = pdb/CHEMBL3900180.pdb
REMARK                            x       y       z     vdW  Elec       q    Type
REMARK                         _______ _______ _______ _____ _____    ______ ____
ROOT
ATOM      1  C   LIG    1      -20.098  77.679  31.352  0.00  0.00    +0.042 A 
ATOM      2  C   LIG    1      -21.436  77.470  31.729  0.00  0.00    +0.042 A 
ATOM      3  C   LIG    1      -22.371  76.962  30.815  0.00  0.00    +0.086 A 
ATOM      4  C   LIG    1      -21.881  76.642  29.545  0.00  0.00    +0.138 A 
ATOM      5  N   LIG    1      -20.594  76.809  29.143  0.00  0.00    -0.260 NA
ATOM      6  C   LIG    1      -19.736  77.306  30.060  0.00  0.00    +0.122 A 
ENDROOT
BRANCH   1   7
ATOM      7  C   LIG    1      -19.087  78.227  32.305  0.00  0.00    +0.197 C 
ATOM      8  O   LIG    1      -17.893  78.218  31.973  0.00  0.00    -0.287 OA
BRANCH   7  17
ATOM      9  N   LIG    1      -20.800  79.852  35.144  0.00  0.00    -0.336 N 
ATOM     10  C   LIG    1      -19.577  79.581  35.751  0.00  0.00    +0.089 A 
ATOM     11  C   LIG    1      -19.037  79.885  37.007  0.00  0.00    +0.165 A 
ATOM     12  F   LIG    1      -19.647  80.670  37.901  0.00  0.00    -0.202 F 
ATOM     13  C   LIG    1      -17.803  79.338  37.318  0.00  0.00    +0.151 A 
ATOM     14  N   LIG    1      -17.089  78.546  36.495  0.00  0.00    -0.260 NA
ATOM     15  C   LIG    1      -17.579  78.291  35.256  0.00  0.00    +0.121 A 
ATOM     16  C   LIG    1      -18.815  78.820  34.839  0.00  0.00    +0.032 A 
ATOM     17  C   LIG    1      -19.517  78.792  33.592  0.00  0.00    +0.049 A 
ATOM     18  C   LIG    1      -20.745  79.367  33.844  0.00  0.00    +0.099 A 
BRANCH   9  20
ATOM     19  C   LIG    1      -22.460  79.720  37.021  0.00  0.00    +0.036 C 
ATOM     20  C   LIG    1      -22.012  80.477  35.751  0.00  0.00    +0.063 C 
ATOM     21  C   LIG    1      -23.229  80.397  34.780  0.00  0.00    +0.036 C 
BRANCH  20  22
ATOM     22  C   LIG    1      -21.751  81.965  36.111  0.00  0.00    +0.183 C 
BRANCH  22  23
ATOM     23  O   LIG    1      -22.753  82.822  35.557  0.00  0.00    -0.393 OA
ATOM     24  H   LIG    1      -23.367  83.049  36.278  0.00  0.00    +0.209 HD
ENDBRANCH  22  23
ENDBRANCH  20  22
ENDBRANCH   9  20
ENDBRANCH   7  17
ENDBRANCH   1   7
BRANCH   3  25
ATOM     25  N   LIG    1      -23.695  76.742  31.262  0.00  0.00    -0.214 NA
ATOM     26  C   LIG    1      -24.684  77.498  30.898  0.00  0.00    +0.210 C 
BRANCH  26  27
ATOM     27  O   LIG    1      -24.506  78.600  30.135  0.00  0.00    -0.494 OA
ATOM     28  H   LIG    1      -23.840  78.462  29.434  0.00  0.00    +0.293 HD
ENDBRANCH  26  27
BRANCH  26  29
ATOM     29  C   LIG    1      -26.093  77.248  31.400  0.00  0.00    +0.238 C 
BRANCH  29  30
ATOM     30  N   LIG    1      -26.166  76.989  32.831  0.00  0.00    -0.262 N 
ATOM     31  N   LIG    1      -25.894  77.988  33.686  0.00  0.00    -0.175 NA
ATOM     32  C   LIG    1      -25.920  77.410  34.887  0.00  0.00    +0.066 A 
ATOM     33  C   LIG    1      -26.192  76.033  34.805  0.00  0.00    +0.044 A 
ATOM     34  C   LIG    1      -26.347  75.788  33.458  0.00  0.00    +0.109 A 
BRANCH  32  35
ATOM     35  C   LIG    1      -25.660  78.169  36.178  0.00  0.00    +0.040 C 
ATOM     36  C   LIG    1      -26.239  77.607  37.461  0.00  0.00    +0.010 C 
ATOM     37  C   LIG    1      -26.832  78.841  36.874  0.00  0.00    +0.010 C 
ENDBRANCH  32  35
ENDBRANCH  29  30
ENDBRANCH  26  29
ENDBRANCH   3  25
TORSDOF 10
ENDMDL
MODEL 7
REMARK VINA RESULT:      -5.5     21.357     23.716
REMARK  Name = pdb/CHEMBL3900180.pdb
REMARK                            x       y       z     vdW  Elec       q    Type
REMARK                         _______ _______ _______ _____ _____    ______ ____
ROOT
ATOM      1  C   LIG    1      -27.682  89.450  35.286  0.00  0.00    +0.042 A 
ATOM      2  C   LIG    1      -26.591  90.056  35.932  0.00  0.00    +0.042 A 
ATOM      3  C   LIG    1      -26.646  91.400  36.332  0.00  0.00    +0.086 A 
ATOM      4  C   LIG    1      -27.852  92.066  36.091  0.00  0.00    +0.138 A 
ATOM      5  N   LIG    1      -28.938  91.515  35.489  0.00  0.00    -0.260 NA
ATOM      6  C   LIG    1      -28.830  90.221  35.118  0.00  0.00    +0.122 A 
ENDROOT
BRANCH   1   7
ATOM      7  C   LIG    1      -27.644  88.024  34.843  0.00  0.00    +0.197 C 
ATOM      8  O   LIG    1      -26.617  87.364  35.058  0.00  0.00    -0.287 OA
BRANCH   7  17
ATOM      9  N   LIG    1      -30.398  86.965  32.623  0.00  0.00    -0.336 N 
ATOM     10  C   LIG    1      -30.776  86.291  33.780  0.00  0.00    +0.089 A 
ATOM     11  C   LIG    1      -31.891  85.514  34.121  0.00  0.00    +0.165 A 
ATOM     12  F   LIG    1      -32.953  85.360  33.324  0.00  0.00    -0.202 F 
ATOM     13  C   LIG    1      -31.875  84.885  35.355  0.00  0.00    +0.151 A 
ATOM     14  N   LIG    1      -30.869  84.978  36.247  0.00  0.00    -0.260 NA
ATOM     15  C   LIG    1      -29.810  85.772  35.948  0.00  0.00    +0.121 A 
ATOM     16  C   LIG    1      -29.745  86.469  34.726  0.00  0.00    +0.032 A 
ATOM     17  C   LIG    1      -28.818  87.422  34.196  0.00  0.00    +0.049 A 
ATOM     18  C   LIG    1      -29.215  87.639  32.892  0.00  0.00    +0.099 A 
BRANCH   9  20
ATOM     19  C   LIG    1      -32.444  87.631  31.332  0.00  0.00    +0.036 C 
ATOM     20  C   LIG    1      -31.060  86.945  31.285  0.00  0.00    +0.063 C 
ATOM     21  C   LIG    1      -31.347  85.483  30.825  0.00  0.00    +0.036 C 
BRANCH  20  22
ATOM     22  C   LIG    1      -30.179  87.646  30.217  0.00  0.00    +0.183 C 
BRANCH  22  23
ATOM     23  O   LIG    1      -30.788  88.851  29.743  0.00  0.00    -0.393 OA
ATOM     24  H   LIG    1      -31.010  88.711  28.806  0.00  0.00    +0.209 HD
ENDBRANCH  22  23
ENDBRANCH  20  22
ENDBRANCH   9  20
ENDBRANCH   7  17
ENDBRANCH   1   7
BRANCH   3  25
ATOM     25  N   LIG    1      -25.529  91.946  37.006  0.00  0.00    -0.214 NA
ATOM     26  C   LIG    1      -24.558  92.532  36.377  0.00  0.00    +0.210 C 
BRANCH  26  27
ATOM     27  O   LIG    1      -24.503  92.587  35.028  0.00  0.00    -0.494 OA
ATOM     28  H   LIG    1      -23.799  92.017  34.662  0.00  0.00    +0.293 HD
ENDBRANCH  26  27
BRANCH  26  29
ATOM     29  C   LIG    1      -23.365  93.100  37.124  0.00  0.00    +0.238 C 
BRANCH  29  30
ATOM     30  N   LIG    1      -22.130  93.075  36.354  0.00  0.00    -0.262 N 
ATOM     31  N   LIG    1      -21.540  91.895  36.109  0.00  0.00    -0.175 NA
ATOM     32  C   LIG    1      -20.394  92.216  35.511  0.00  0.00    +0.066 A 
ATOM     33  C   LIG    1      -20.235  93.608  35.385  0.00  0.00    +0.044 A 
ATOM     34  C   LIG    1      -21.378  94.140  35.941  0.00  0.00    +0.109 A 
BRANCH  32  35
ATOM     35  C   LIG    1      -19.381  91.181  35.049  0.00  0.00    +0.040 C 
ATOM     36  C   LIG    1      -19.281  89.887  35.830  0.00  0.00    +0.010 C 
ATOM     37  C   LIG    1      -18.184  90.888  35.938  0.00  0.00    +0.010 C 
ENDBRANCH  32  35
ENDBRANCH  29  30
ENDBRANCH  26  29
ENDBRANCH   3  25
TORSDOF 10
ENDMDL
MODEL 8
REMARK VINA RESULT:      -5.5     16.375     18.953
REMARK  Name = pdb/CHEMBL3900180.pdb
REMARK                            x       y       z     vdW  Elec       q    Type
REMARK                         _______ _______ _______ _____ _____    ______ ____
ROOT
ATOM      1  C   LIG    1      -26.221  76.712  32.300  0.00  0.00    +0.042 A 
ATOM      2  C   LIG    1      -27.273  75.985  31.718  0.00  0.00    +0.042 A 
ATOM      3  C   LIG    1      -28.097  75.159  32.496  0.00  0.00    +0.086 A 
ATOM      4  C   LIG    1      -27.834  75.144  33.869  0.00  0.00    +0.138 A 
ATOM      5  N   LIG    1      -26.841  75.844  34.479  0.00  0.00    -0.260 NA
ATOM      6  C   LIG    1      -26.074  76.619  33.682  0.00  0.00    +0.122 A 
ENDROOT
BRANCH   1   7
ATOM      7  C   LIG    1      -25.325  77.590  31.490  0.00  0.00    +0.197 C 
ATOM      8  O   LIG    1      -25.831  78.309  30.616  0.00  0.00    -0.287 OA
BRANCH   7  17
ATOM      9  N   LIG    1      -21.907  77.941  32.845  0.00  0.00    -0.336 N 
ATOM     10  C   LIG    1      -21.591  77.558  31.546  0.00  0.00    +0.089 A 
ATOM     11  C   LIG    1      -20.383  77.421  30.849  0.00  0.00    +0.165 A 
ATOM     12  F   LIG    1      -19.198  77.781  31.352  0.00  0.00    -0.202 F 
ATOM     13  C   LIG    1      -20.442  76.889  29.571  0.00  0.00    +0.151 A 
ATOM     14  N   LIG    1      -21.577  76.506  28.955  0.00  0.00    -0.260 NA
ATOM     15  C   LIG    1      -22.757  76.685  29.601  0.00  0.00    +0.121 A 
ATOM     16  C   LIG    1      -22.801  77.238  30.895  0.00  0.00    +0.032 A 
ATOM     17  C   LIG    1      -23.880  77.615  31.757  0.00  0.00    +0.049 A 
ATOM     18  C   LIG    1      -23.291  77.968  32.954  0.00  0.00    +0.099 A 
BRANCH   9  20
ATOM     19  C   LIG    1      -21.744  78.669  35.240  0.00  0.00    +0.036 C 
ATOM     20  C   LIG    1      -20.976  78.213  33.979  0.00  0.00    +0.063 C 
ATOM     21  C   LIG    1      -20.013  79.391  33.643  0.00  0.00    +0.036 C 
BRANCH  20  22
ATOM     22  C   LIG    1      -20.134  76.955  34.323  0.00  0.00    +0.183 C 
BRANCH  22  23
ATOM     23  O   LIG    1      -20.488  76.420  35.601  0.00  0.00    -0.393 OA
ATOM     24  H   LIG    1      -19.663  76.316  36.108  0.00  0.00    +0.209 HD
ENDBRANCH  22  23
ENDBRANCH  20  22
ENDBRANCH   9  20
ENDBRANCH   7  17
ENDBRANCH   1   7
BRANCH   3  25
ATOM     25  N   LIG    1      -29.160  74.478  31.858  0.00  0.00    -0.214 NA
ATOM     26  C   LIG    1      -30.364  74.958  31.815  0.00  0.00    +0.210 C 
BRANCH  26  27
ATOM     27  O   LIG    1      -30.708  76.101  32.449  0.00  0.00    -0.494 OA
ATOM     28  H   LIG    1      -31.505  75.991  33.004  0.00  0.00    +0.293 HD
ENDBRANCH  26  27
BRANCH  26  29
ATOM     29  C   LIG    1      -31.489  74.202  31.133  0.00  0.00    +0.238 C 
BRANCH  29  30
ATOM     30  N   LIG    1      -32.043  74.895  29.980  0.00  0.00    -0.262 N 
ATOM     31  N   LIG    1      -31.561  76.106  29.656  0.00  0.00    -0.175 NA
ATOM     32  C   LIG    1      -32.345  76.518  28.660  0.00  0.00    +0.066 A 
ATOM     33  C   LIG    1      -33.345  75.578  28.351  0.00  0.00    +0.044 A 
ATOM     34  C   LIG    1      -33.124  74.535  29.224  0.00  0.00    +0.109 A 
BRANCH  32  35
ATOM     35  C   LIG    1      -32.171  77.860  27.969  0.00  0.00    +0.040 C 
ATOM     36  C   LIG    1      -33.357  78.430  27.217  0.00  0.00    +0.010 C 
ATOM     37  C   LIG    1      -32.193  77.904  26.450  0.00  0.00    +0.010 C 
ENDBRANCH  32  35
ENDBRANCH  29  30
ENDBRANCH  26  29
ENDBRANCH   3  25
TORSDOF 10
ENDMDL
MODEL 9
REMARK VINA RESULT:      -5.5      7.931     14.135
REMARK  Name = pdb/CHEMBL3900180.pdb
REMARK                            x       y       z     vdW  Elec       q    Type
REMARK                         _______ _______ _______ _____ _____    ______ ____
ROOT
ATOM      1  C   LIG    1      -25.446  71.217  16.280  0.00  0.00    +0.042 A 
ATOM      2  C   LIG    1      -25.921  72.494  15.936  0.00  0.00    +0.042 A 
ATOM      3  C   LIG    1      -25.695  73.027  14.658  0.00  0.00    +0.086 A 
ATOM      4  C   LIG    1      -25.019  72.201  13.756  0.00  0.00    +0.138 A 
ATOM      5  N   LIG    1      -24.559  70.953  14.038  0.00  0.00    -0.260 NA
ATOM      6  C   LIG    1      -24.798  70.490  15.284  0.00  0.00    +0.122 A 
ENDROOT
BRANCH   1   7
ATOM      7  C   LIG    1      -25.666  70.632  17.637  0.00  0.00    +0.197 C 
ATOM      8  O   LIG    1      -24.884  70.936  18.548  0.00  0.00    -0.287 OA
BRANCH   7  17
ATOM      9  N   LIG    1      -28.007  67.835  18.218  0.00  0.00    -0.336 N 
ATOM     10  C   LIG    1      -28.928  68.871  18.098  0.00  0.00    +0.089 A 
ATOM     11  C   LIG    1      -30.328  68.918  18.084  0.00  0.00    +0.165 A 
ATOM     12  F   LIG    1      -31.101  67.828  18.081  0.00  0.00    -0.202 F 
ATOM     13  C   LIG    1      -30.922  70.170  18.067  0.00  0.00    +0.151 A 
ATOM     14  N   LIG    1      -30.247  71.336  18.053  0.00  0.00    -0.260 NA
ATOM     15  C   LIG    1      -28.891  71.299  18.012  0.00  0.00    +0.121 A 
ATOM     16  C   LIG    1      -28.197  70.074  18.004  0.00  0.00    +0.032 A 
ATOM     17  C   LIG    1      -26.810  69.741  17.877  0.00  0.00    +0.049 A 
ATOM     18  C   LIG    1      -26.736  68.379  18.084  0.00  0.00    +0.099 A 
BRANCH   9  20
ATOM     19  C   LIG    1      -26.955  65.621  18.757  0.00  0.00    +0.036 C 
ATOM     20  C   LIG    1      -28.270  66.396  18.513  0.00  0.00    +0.063 C 
ATOM     21  C   LIG    1      -28.938  65.688  17.296  0.00  0.00    +0.036 C 
BRANCH  20  22
ATOM     22  C   LIG    1      -29.190  66.241  19.754  0.00  0.00    +0.183 C 
BRANCH  22  23
ATOM     23  O   LIG    1      -28.519  66.626  20.957  0.00  0.00    -0.393 OA
ATOM     24  H   LIG    1      -28.669  65.918  21.609  0.00  0.00    +0.209 HD
ENDBRANCH  22  23
ENDBRANCH  20  22
ENDBRANCH   9  20
ENDBRANCH   7  17
ENDBRANCH   1   7
BRANCH   3  25
ATOM     25  N   LIG    1      -26.226  74.304  14.360  0.00  0.00    -0.214 NA
ATOM     26  C   LIG    1      -27.348  74.459  13.730  0.00  0.00    +0.210 C 
BRANCH  26  27
ATOM     27  O   LIG    1      -28.048  73.413  13.236  0.00  0.00    -0.494 OA
ATOM     28  H   LIG    1      -28.982  73.423  13.523  0.00  0.00    +0.293 HD
ENDBRANCH  26  27
BRANCH  26  29
ATOM     29  C   LIG    1      -27.890  75.840  13.413  0.00  0.00    +0.238 C 
BRANCH  29  30
ATOM     30  N   LIG    1      -26.890  76.894  13.503  0.00  0.00    -0.262 N 
ATOM     31  N   LIG    1      -26.662  77.474  14.692  0.00  0.00    -0.175 NA
ATOM     32  C   LIG    1      -25.809  78.461  14.420  0.00  0.00    +0.066 A 
ATOM     33  C   LIG    1      -25.498  78.528  13.050  0.00  0.00    +0.044 A 
ATOM     34  C   LIG    1      -26.214  77.498  12.480  0.00  0.00    +0.109 A 
BRANCH  32  35
ATOM     35  C   LIG    1      -25.266  79.404  15.481  0.00  0.00    +0.040 C 
ATOM     36  C   LIG    1      -24.305  80.490  15.041  0.00  0.00    +0.010 C 
ATOM     37  C   LIG    1      -23.788  79.335  15.827  0.00  0.00    +0.010 C 
ENDBRANCH  32  35
ENDBRANCH  29  30
ENDBRANCH  26  29
ENDBRANCH   3  25
TORSDOF 10
ENDMDL
