MODEL 1
REMARK VINA RESULT:      -5.9      0.000      0.000
REMARK  Name = pdb/CHEMBL3676046.pdb
REMARK                            x       y       z     vdW  Elec       q    Type
REMARK                         _______ _______ _______ _____ _____    ______ ____
ROOT
ATOM      1  C   LIG    1      -22.915  77.030  30.569  0.00  0.00    +0.100 A 
ATOM      2  C   LIG    1      -22.043  77.545  31.510  0.00  0.00    +0.170 A 
ATOM      3  N   LIG    1      -22.242  77.987  32.799  0.00  0.00    -0.212 NA
ATOM      4  C   LIG    1      -21.211  78.494  33.437  0.00  0.00    +0.126 A 
ATOM      5  C   LIG    1      -19.831  78.539  32.826  0.00  0.00    +0.063 A 
ATOM      6  C   LIG    1      -19.692  78.072  31.580  0.00  0.00    +0.118 A 
ATOM      7  N   LIG    1      -20.791  77.582  30.897  0.00  0.00    -0.221 N 
ATOM      8  N   LIG    1      -20.821  77.089  29.638  0.00  0.00    -0.173 NA
ATOM      9  C   LIG    1      -22.102  76.771  29.442  0.00  0.00    +0.150 A 
ENDROOT
BRANCH   4  10
ATOM     10  N   LIG    1      -21.358  79.002  34.721  0.00  0.00    -0.308 N 
ATOM     11  C   LIG    1      -21.743  80.403  34.981  0.00  0.00    +0.108 C 
ATOM     12  C   LIG    1      -20.629  80.890  35.920  0.00  0.00    +0.029 C 
ATOM     13  C   LIG    1      -20.319  79.672  36.772  0.00  0.00    +0.021 C 
ATOM     14  C   LIG    1      -20.487  78.508  35.800  0.00  0.00    +0.107 C 
BRANCH  11  15
ATOM     15  C   LIG    1      -23.141  80.468  35.591  0.00  0.00    +0.011 A 
ATOM     16  C   LIG    1      -23.624  81.662  36.150  0.00  0.00    +0.129 A 
ATOM     17  F   LIG    1      -22.855  82.760  36.147  0.00  0.00    -0.205 F 
ATOM     18  C   LIG    1      -24.902  81.751  36.714  0.00  0.00    +0.041 A 
ATOM     19  C   LIG    1      -25.735  80.634  36.728  0.00  0.00    +0.041 A 
ATOM     20  C   LIG    1      -25.281  79.449  36.167  0.00  0.00    +0.124 A 
ATOM     21  F   LIG    1      -26.070  78.368  36.175  0.00  0.00    -0.205 F 
ATOM     22  C   LIG    1      -24.014  79.364  35.595  0.00  0.00    +0.046 A 
ENDBRANCH  11  15
ENDBRANCH   4  10
BRANCH   1  25
ATOM     23  N   LIG    1      -24.708  76.114  31.833  0.00  0.00    -0.306 N 
ATOM     24  H   LIG    1      -23.964  75.850  32.471  0.00  0.00    +0.149 HD
ATOM     25  C   LIG    1      -24.342  76.812  30.693  0.00  0.00    +0.249 C 
ATOM     26  O   LIG    1      -25.124  77.194  29.845  0.00  0.00    -0.270 OA
BRANCH  23  27
ATOM     27  CA  LIG    1      -26.094  75.752  32.128  0.00  0.00    +0.098 C 
BRANCH  27  29
ATOM     28  C   LIG    1      -24.877  74.273  33.895  0.00  0.00    +0.006 C 
ATOM     29  C   LIG    1      -26.168  74.589  33.144  0.00  0.00    +0.021 C 
ENDBRANCH  27  29
BRANCH  27  30
ATOM     30  C   LIG    1      -26.926  76.973  32.573  0.00  0.00    +0.178 C 
BRANCH  30  31
ATOM     31  O   LIG    1      -27.661  77.570  31.506  0.00  0.00    -0.393 OA
ATOM     32  H   LIG    1      -27.245  77.294  30.671  0.00  0.00    +0.209 HD
ENDBRANCH  30  31
ENDBRANCH  27  30
ENDBRANCH  23  27
ENDBRANCH   1  25
TORSDOF 7
ENDMDL
MODEL 2
REMARK VINA RESULT:      -5.8     18.195     21.087
REMARK  Name = pdb/CHEMBL3676046.pdb
REMARK                            x       y       z     vdW  Elec       q    Type
REMARK                         _______ _______ _______ _____ _____    ______ ____
ROOT
ATOM      1  C   LIG    1      -18.893  85.664  13.366  0.00  0.00    +0.100 A 
ATOM      2  C   LIG    1      -19.102  84.313  13.567  0.00  0.00    +0.170 A 
ATOM      3  N   LIG    1      -20.161  83.619  14.106  0.00  0.00    -0.212 NA
ATOM      4  C   LIG    1      -20.041  82.316  14.227  0.00  0.00    +0.126 A 
ATOM      5  C   LIG    1      -18.821  81.573  13.735  0.00  0.00    +0.063 A 
ATOM      6  C   LIG    1      -17.833  82.297  13.196  0.00  0.00    +0.118 A 
ATOM      7  N   LIG    1      -17.948  83.673  13.115  0.00  0.00    -0.221 N 
ATOM      8  N   LIG    1      -17.042  84.543  12.612  0.00  0.00    -0.173 NA
ATOM      9  C   LIG    1      -17.611  85.739  12.778  0.00  0.00    +0.150 A 
ENDROOT
BRANCH   4  10
ATOM     10  N   LIG    1      -21.053  81.566  14.809  0.00  0.00    -0.308 N 
ATOM     11  C   LIG    1      -22.333  82.160  15.243  0.00  0.00    +0.108 C 
ATOM     12  C   LIG    1      -22.433  81.714  16.709  0.00  0.00    +0.029 C 
ATOM     13  C   LIG    1      -21.829  80.321  16.702  0.00  0.00    +0.021 C 
ATOM     14  C   LIG    1      -20.707  80.426  15.674  0.00  0.00    +0.107 C 
BRANCH  11  15
ATOM     15  C   LIG    1      -23.478  81.663  14.364  0.00  0.00    +0.011 A 
ATOM     16  C   LIG    1      -23.679  82.195  13.080  0.00  0.00    +0.129 A 
ATOM     17  F   LIG    1      -22.859  83.148  12.616  0.00  0.00    -0.205 F 
ATOM     18  C   LIG    1      -24.719  81.757  12.252  0.00  0.00    +0.041 A 
ATOM     19  C   LIG    1      -25.588  80.762  12.696  0.00  0.00    +0.041 A 
ATOM     20  C   LIG    1      -25.397  80.213  13.955  0.00  0.00    +0.124 A 
ATOM     21  F   LIG    1      -26.225  79.258  14.395  0.00  0.00    -0.205 F 
ATOM     22  C   LIG    1      -24.354  80.641  14.775  0.00  0.00    +0.046 A 
ENDBRANCH  11  15
ENDBRANCH   4  10
BRANCH   1  25
ATOM     23  N   LIG    1      -21.044  86.654  13.142  0.00  0.00    -0.306 N 
ATOM     24  H   LIG    1      -21.238  85.820  12.598  0.00  0.00    +0.149 HD
ATOM     25  C   LIG    1      -19.776  86.766  13.693  0.00  0.00    +0.249 C 
ATOM     26  O   LIG    1      -19.405  87.706  14.369  0.00  0.00    -0.270 OA
BRANCH  23  27
ATOM     27  CA  LIG    1      -22.074  87.678  13.315  0.00  0.00    +0.098 C 
BRANCH  27  29
ATOM     28  C   LIG    1      -23.886  86.269  12.081  0.00  0.00    +0.006 C 
ATOM     29  C   LIG    1      -23.140  87.596  12.199  0.00  0.00    +0.021 C 
ENDBRANCH  27  29
BRANCH  27  30
ATOM     30  C   LIG    1      -22.696  87.638  14.726  0.00  0.00    +0.178 C 
BRANCH  30  31
ATOM     31  O   LIG    1      -22.154  88.620  15.607  0.00  0.00    -0.393 OA
ATOM     32  H   LIG    1      -22.446  89.493  15.290  0.00  0.00    +0.209 HD
ENDBRANCH  30  31
ENDBRANCH  27  30
ENDBRANCH  23  27
ENDBRANCH   1  25
TORSDOF 7
ENDMDL
MODEL 3
REMARK VINA RESULT:      -5.4     18.198     20.891
REMARK  Name = pdb/CHEMBL3676046.pdb
REMARK                            x       y       z     vdW  Elec       q    Type
REMARK                         _______ _______ _______ _____ _____    ______ ____
ROOT
ATOM      1  C   LIG    1      -18.379  84.870  13.069  0.00  0.00    +0.100 A 
ATOM      2  C   LIG    1      -18.797  83.585  13.355  0.00  0.00    +0.170 A 
ATOM      3  N   LIG    1      -19.872  83.108  14.072  0.00  0.00    -0.212 NA
ATOM      4  C   LIG    1      -19.974  81.808  14.230  0.00  0.00    +0.126 A 
ATOM      5  C   LIG    1      -18.999  80.843  13.597  0.00  0.00    +0.063 A 
ATOM      6  C   LIG    1      -17.989  81.362  12.889  0.00  0.00    +0.118 A 
ATOM      7  N   LIG    1      -17.862  82.734  12.767  0.00  0.00    -0.221 N 
ATOM      8  N   LIG    1      -16.899  83.412  12.101  0.00  0.00    -0.173 NA
ATOM      9  C   LIG    1      -17.208  84.695  12.297  0.00  0.00    +0.150 A 
ENDROOT
BRANCH   4  10
ATOM     10  N   LIG    1      -21.007  81.268  14.984  0.00  0.00    -0.308 N 
ATOM     11  C   LIG    1      -22.284  80.834  14.386  0.00  0.00    +0.108 C 
ATOM     12  C   LIG    1      -23.324  81.599  15.219  0.00  0.00    +0.029 C 
ATOM     13  C   LIG    1      -22.726  81.612  16.615  0.00  0.00    +0.021 C 
ATOM     14  C   LIG    1      -21.229  81.748  16.358  0.00  0.00    +0.107 C 
BRANCH  11  15
ATOM     15  C   LIG    1      -22.423  79.316  14.464  0.00  0.00    +0.011 A 
ATOM     16  C   LIG    1      -23.561  78.673  13.952  0.00  0.00    +0.129 A 
ATOM     17  F   LIG    1      -24.538  79.394  13.384  0.00  0.00    -0.205 F 
ATOM     18  C   LIG    1      -23.713  77.283  14.008  0.00  0.00    +0.041 A 
ATOM     19  C   LIG    1      -22.716  76.497  14.583  0.00  0.00    +0.041 A 
ATOM     20  C   LIG    1      -21.578  77.113  15.081  0.00  0.00    +0.124 A 
ATOM     21  F   LIG    1      -20.612  76.371  15.638  0.00  0.00    -0.205 F 
ATOM     22  C   LIG    1      -21.420  78.495  15.015  0.00  0.00    +0.046 A 
ENDBRANCH  11  15
ENDBRANCH   4  10
BRANCH   1  25
ATOM     23  N   LIG    1      -20.276  85.989  13.965  0.00  0.00    -0.306 N 
ATOM     24  H   LIG    1      -20.654  85.049  14.018  0.00  0.00    +0.149 HD
ATOM     25  C   LIG    1      -18.985  86.122  13.475  0.00  0.00    +0.249 C 
ATOM     26  O   LIG    1      -18.405  87.183  13.359  0.00  0.00    -0.270 OA
BRANCH  23  27
ATOM     27  CA  LIG    1      -21.082  87.133  14.390  0.00  0.00    +0.098 C 
BRANCH  27  29
ATOM     28  C   LIG    1      -21.467  88.800  12.424  0.00  0.00    +0.006 C 
ATOM     29  C   LIG    1      -21.998  87.630  13.248  0.00  0.00    +0.021 C 
ENDBRANCH  27  29
BRANCH  27  30
ATOM     30  C   LIG    1      -21.867  86.836  15.685  0.00  0.00    +0.178 C 
BRANCH  30  31
ATOM     31  O   LIG    1      -21.777  87.886  16.647  0.00  0.00    -0.393 OA
ATOM     32  H   LIG    1      -21.436  87.500  17.473  0.00  0.00    +0.209 HD
ENDBRANCH  30  31
ENDBRANCH  27  30
ENDBRANCH  23  27
ENDBRANCH   1  25
TORSDOF 7
ENDMDL
MODEL 4
REMARK VINA RESULT:      -5.3     12.736     17.055
REMARK  Name = pdb/CHEMBL3676046.pdb
REMARK                            x       y       z     vdW  Elec       q    Type
REMARK                         _______ _______ _______ _____ _____    ______ ____
ROOT
ATOM      1  C   LIG    1      -37.468  76.203  25.872  0.00  0.00    +0.100 A 
ATOM      2  C   LIG    1      -37.957  74.949  25.557  0.00  0.00    +0.170 A 
ATOM      3  N   LIG    1      -37.571  73.688  25.953  0.00  0.00    -0.212 NA
ATOM      4  C   LIG    1      -38.198  72.662  25.423  0.00  0.00    +0.126 A 
ATOM      5  C   LIG    1      -39.353  72.835  24.464  0.00  0.00    +0.063 A 
ATOM      6  C   LIG    1      -39.701  74.084  24.136  0.00  0.00    +0.118 A 
ATOM      7  N   LIG    1      -39.006  75.158  24.661  0.00  0.00    -0.221 N 
ATOM      8  N   LIG    1      -39.223  76.472  24.423  0.00  0.00    -0.173 NA
ATOM      9  C   LIG    1      -38.287  77.094  25.143  0.00  0.00    +0.150 A 
ENDROOT
BRANCH   4  10
ATOM     10  N   LIG    1      -37.823  71.365  25.743  0.00  0.00    -0.308 N 
ATOM     11  C   LIG    1      -36.545  70.775  25.296  0.00  0.00    +0.108 C 
ATOM     12  C   LIG    1      -36.996  69.480  24.603  0.00  0.00    +0.029 C 
ATOM     13  C   LIG    1      -38.173  69.015  25.442  0.00  0.00    +0.021 C 
ATOM     14  C   LIG    1      -38.851  70.318  25.853  0.00  0.00    +0.107 C 
BRANCH  11  15
ATOM     15  C   LIG    1      -35.615  70.551  26.486  0.00  0.00    +0.011 A 
ATOM     16  C   LIG    1      -34.448  69.783  26.348  0.00  0.00    +0.129 A 
ATOM     17  F   LIG    1      -34.140  69.241  25.161  0.00  0.00    -0.205 F 
ATOM     18  C   LIG    1      -33.576  69.563  27.420  0.00  0.00    +0.041 A 
ATOM     19  C   LIG    1      -33.856  70.116  28.668  0.00  0.00    +0.041 A 
ATOM     20  C   LIG    1      -34.997  70.890  28.821  0.00  0.00    +0.124 A 
ATOM     21  F   LIG    1      -35.280  71.426  30.014  0.00  0.00    -0.205 F 
ATOM     22  C   LIG    1      -35.859  71.119  27.750  0.00  0.00    +0.046 A 
ENDBRANCH  11  15
ENDBRANCH   4  10
BRANCH   1  25
ATOM     23  N   LIG    1      -35.450  75.507  26.920  0.00  0.00    -0.306 N 
ATOM     24  H   LIG    1      -35.629  74.643  26.418  0.00  0.00    +0.149 HD
ATOM     25  C   LIG    1      -36.358  76.539  26.740  0.00  0.00    +0.249 C 
ATOM     26  O   LIG    1      -36.268  77.628  27.274  0.00  0.00    -0.270 OA
BRANCH  23  27
ATOM     27  CA  LIG    1      -34.281  75.624  27.791  0.00  0.00    +0.098 C 
BRANCH  27  29
ATOM     28  C   LIG    1      -32.666  74.203  29.263  0.00  0.00    +0.006 C 
ATOM     29  C   LIG    1      -33.695  74.235  28.136  0.00  0.00    +0.021 C 
ENDBRANCH  27  29
BRANCH  27  30
ATOM     30  C   LIG    1      -33.220  76.580  27.207  0.00  0.00    +0.178 C 
BRANCH  30  31
ATOM     31  O   LIG    1      -32.876  77.644  28.093  0.00  0.00    -0.393 OA
ATOM     32  H   LIG    1      -32.996  78.480  27.610  0.00  0.00    +0.209 HD
ENDBRANCH  30  31
ENDBRANCH  27  30
ENDBRANCH  23  27
ENDBRANCH   1  25
TORSDOF 7
ENDMDL
MODEL 5
REMARK VINA RESULT:      -5.3     14.983     19.287
REMARK  Name = pdb/CHEMBL3676046.pdb
REMARK                            x       y       z     vdW  Elec       q    Type
REMARK                         _______ _______ _______ _____ _____    ______ ____
ROOT
ATOM      1  C   LIG    1      -38.657  75.064  24.675  0.00  0.00    +0.100 A 
ATOM      2  C   LIG    1      -38.714  73.688  24.549  0.00  0.00    +0.170 A 
ATOM      3  N   LIG    1      -37.774  72.707  24.772  0.00  0.00    -0.212 NA
ATOM      4  C   LIG    1      -38.109  71.466  24.497  0.00  0.00    +0.126 A 
ATOM      5  C   LIG    1      -39.493  71.094  24.020  0.00  0.00    +0.063 A 
ATOM      6  C   LIG    1      -40.373  72.087  23.846  0.00  0.00    +0.118 A 
ATOM      7  N   LIG    1      -39.999  73.395  24.092  0.00  0.00    -0.221 N 
ATOM      8  N   LIG    1      -40.760  74.506  23.956  0.00  0.00    -0.173 NA
ATOM      9  C   LIG    1      -39.944  75.505  24.294  0.00  0.00    +0.150 A 
ENDROOT
BRANCH   4  10
ATOM     10  N   LIG    1      -37.189  70.438  24.653  0.00  0.00    -0.308 N 
ATOM     11  C   LIG    1      -37.561  69.015  24.530  0.00  0.00    +0.108 C 
ATOM     12  C   LIG    1      -37.051  68.417  25.849  0.00  0.00    +0.029 C 
ATOM     13  C   LIG    1      -35.770  69.186  26.120  0.00  0.00    +0.021 C 
ATOM     14  C   LIG    1      -36.086  70.590  25.616  0.00  0.00    +0.107 C 
BRANCH  11  15
ATOM     15  C   LIG    1      -36.925  68.402  23.284  0.00  0.00    +0.011 A 
ATOM     16  C   LIG    1      -37.565  68.486  22.038  0.00  0.00    +0.129 A 
ATOM     17  F   LIG    1      -38.747  69.112  21.933  0.00  0.00    -0.205 F 
ATOM     18  C   LIG    1      -37.005  67.936  20.880  0.00  0.00    +0.041 A 
ATOM     19  C   LIG    1      -35.774  67.284  20.945  0.00  0.00    +0.041 A 
ATOM     20  C   LIG    1      -35.120  67.204  22.165  0.00  0.00    +0.124 A 
ATOM     21  F   LIG    1      -33.938  66.580  22.243  0.00  0.00    -0.205 F 
ATOM     22  C   LIG    1      -35.672  67.763  23.315  0.00  0.00    +0.046 A 
ENDBRANCH  11  15
ENDBRANCH   4  10
BRANCH   1  25
ATOM     23  N   LIG    1      -37.008  75.533  26.323  0.00  0.00    -0.306 N 
ATOM     24  H   LIG    1      -37.433  74.743  26.799  0.00  0.00    +0.149 HD
ATOM     25  C   LIG    1      -37.533  75.880  25.087  0.00  0.00    +0.249 C 
ATOM     26  O   LIG    1      -37.123  76.799  24.405  0.00  0.00    -0.270 OA
BRANCH  23  27
ATOM     27  CA  LIG    1      -35.899  76.257  26.943  0.00  0.00    +0.098 C 
BRANCH  27  29
ATOM     28  C   LIG    1      -35.331  78.338  28.406  0.00  0.00    +0.006 C 
ATOM     29  C   LIG    1      -36.389  77.547  27.639  0.00  0.00    +0.021 C 
ENDBRANCH  27  29
BRANCH  27  30
ATOM     30  C   LIG    1      -35.078  75.355  27.888  0.00  0.00    +0.178 C 
BRANCH  30  31
ATOM     31  O   LIG    1      -33.962  74.739  27.247  0.00  0.00    -0.393 OA
ATOM     32  H   LIG    1      -34.209  74.572  26.320  0.00  0.00    +0.209 HD
ENDBRANCH  30  31
ENDBRANCH  27  30
ENDBRANCH  23  27
ENDBRANCH   1  25
TORSDOF 7
ENDMDL
MODEL 6
REMARK VINA RESULT:      -5.2     18.498     21.605
REMARK  Name = pdb/CHEMBL3676046.pdb
REMARK                            x       y       z     vdW  Elec       q    Type
REMARK                         _______ _______ _______ _____ _____    ______ ____
ROOT
ATOM      1  C   LIG    1      -24.819  81.963  12.750  0.00  0.00    +0.100 A 
ATOM      2  C   LIG    1      -24.287  83.161  12.311  0.00  0.00    +0.170 A 
ATOM      3  N   LIG    1      -23.448  84.068  12.916  0.00  0.00    -0.212 NA
ATOM      4  C   LIG    1      -23.162  85.170  12.260  0.00  0.00    +0.126 A 
ATOM      5  C   LIG    1      -23.669  85.425  10.860  0.00  0.00    +0.063 A 
ATOM      6  C   LIG    1      -24.461  84.497  10.312  0.00  0.00    +0.118 A 
ATOM      7  N   LIG    1      -24.794  83.361  11.027  0.00  0.00    -0.221 N 
ATOM      8  N   LIG    1      -25.587  82.340  10.623  0.00  0.00    -0.173 NA
ATOM      9  C   LIG    1      -25.608  81.511  11.668  0.00  0.00    +0.150 A 
ENDROOT
BRANCH   4  10
ATOM     10  N   LIG    1      -22.362  86.147  12.837  0.00  0.00    -0.308 N 
ATOM     11  C   LIG    1      -21.418  85.854  13.933  0.00  0.00    +0.108 C 
ATOM     12  C   LIG    1      -21.825  86.873  15.009  0.00  0.00    +0.029 C 
ATOM     13  C   LIG    1      -22.213  88.104  14.209  0.00  0.00    +0.021 C 
ATOM     14  C   LIG    1      -22.871  87.522  12.961  0.00  0.00    +0.107 C 
BRANCH  11  15
ATOM     15  C   LIG    1      -19.977  86.002  13.452  0.00  0.00    +0.011 A 
ATOM     16  C   LIG    1      -19.076  84.930  13.550  0.00  0.00    +0.129 A 
ATOM     17  F   LIG    1      -19.480  83.761  14.068  0.00  0.00    -0.205 F 
ATOM     18  C   LIG    1      -17.750  85.036  13.116  0.00  0.00    +0.041 A 
ATOM     19  C   LIG    1      -17.293  86.231  12.564  0.00  0.00    +0.041 A 
ATOM     20  C   LIG    1      -18.172  87.297  12.445  0.00  0.00    +0.124 A 
ATOM     21  F   LIG    1      -17.747  88.452  11.919  0.00  0.00    -0.205 F 
ATOM     22  C   LIG    1      -19.496  87.188  12.867  0.00  0.00    +0.046 A 
ENDBRANCH  11  15
ENDBRANCH   4  10
BRANCH   1  25
ATOM     23  N   LIG    1      -23.441  81.651  14.663  0.00  0.00    -0.306 N 
ATOM     24  H   LIG    1      -22.844  82.323  14.193  0.00  0.00    +0.149 HD
ATOM     25  C   LIG    1      -24.630  81.315  14.032  0.00  0.00    +0.249 C 
ATOM     26  O   LIG    1      -25.441  80.528  14.479  0.00  0.00    -0.270 OA
BRANCH  23  27
ATOM     27  CA  LIG    1      -23.037  81.076  15.946  0.00  0.00    +0.098 C 
BRANCH  27  29
ATOM     28  C   LIG    1      -20.707  79.962  16.296  0.00  0.00    +0.006 C 
ATOM     29  C   LIG    1      -22.126  79.843  15.746  0.00  0.00    +0.021 C 
ENDBRANCH  27  29
BRANCH  27  30
ATOM     30  C   LIG    1      -22.401  82.131  16.875  0.00  0.00    +0.178 C 
BRANCH  30  31
ATOM     31  O   LIG    1      -21.782  83.203  16.166  0.00  0.00    -0.393 OA
ATOM     32  H   LIG    1      -22.227  83.283  15.304  0.00  0.00    +0.209 HD
ENDBRANCH  30  31
ENDBRANCH  27  30
ENDBRANCH  23  27
ENDBRANCH   1  25
TORSDOF 7
ENDMDL
MODEL 7
REMARK VINA RESULT:      -5.2     13.182     17.194
REMARK  Name = pdb/CHEMBL3676046.pdb
REMARK                            x       y       z     vdW  Elec       q    Type
REMARK                         _______ _______ _______ _____ _____    ______ ____
ROOT
ATOM      1  C   LIG    1      -36.175  80.388  28.458  0.00  0.00    +0.100 A 
ATOM      2  C   LIG    1      -37.455  80.070  28.045  0.00  0.00    +0.170 A 
ATOM      3  N   LIG    1      -37.918  79.234  27.054  0.00  0.00    -0.212 NA
ATOM      4  C   LIG    1      -39.215  79.186  26.851  0.00  0.00    +0.126 A 
ATOM      5  C   LIG    1      -40.191  79.959  27.707  0.00  0.00    +0.063 A 
ATOM      6  C   LIG    1      -39.686  80.736  28.671  0.00  0.00    +0.118 A 
ATOM      7  N   LIG    1      -38.316  80.816  28.849  0.00  0.00    -0.221 N 
ATOM      8  N   LIG    1      -37.650  81.558  29.764  0.00  0.00    -0.173 NA
ATOM      9  C   LIG    1      -36.363  81.306  29.515  0.00  0.00    +0.150 A 
ENDROOT
BRANCH   4  10
ATOM     10  N   LIG    1      -39.741  78.400  25.834  0.00  0.00    -0.308 N 
ATOM     11  C   LIG    1      -38.916  77.879  24.727  0.00  0.00    +0.108 C 
ATOM     12  C   LIG    1      -39.680  78.358  23.483  0.00  0.00    +0.029 C 
ATOM     13  C   LIG    1      -41.138  78.254  23.895  0.00  0.00    +0.021 C 
ATOM     14  C   LIG    1      -41.117  78.639  25.371  0.00  0.00    +0.107 C 
BRANCH  11  15
ATOM     15  C   LIG    1      -38.783  76.361  24.827  0.00  0.00    +0.011 A 
ATOM     16  C   LIG    1      -37.738  75.781  25.562  0.00  0.00    +0.129 A 
ATOM     17  F   LIG    1      -36.845  76.562  26.187  0.00  0.00    -0.205 F 
ATOM     18  C   LIG    1      -37.593  74.393  25.672  0.00  0.00    +0.041 A 
ATOM     19  C   LIG    1      -38.505  73.547  25.045  0.00  0.00    +0.041 A 
ATOM     20  C   LIG    1      -39.554  74.102  24.326  0.00  0.00    +0.124 A 
ATOM     21  F   LIG    1      -40.436  73.302  23.716  0.00  0.00    -0.205 F 
ATOM     22  C   LIG    1      -39.705  75.484  24.226  0.00  0.00    +0.046 A 
ENDBRANCH  11  15
ENDBRANCH   4  10
BRANCH   1  25
ATOM     23  N   LIG    1      -34.487  78.712  28.487  0.00  0.00    -0.306 N 
ATOM     24  H   LIG    1      -35.093  78.285  29.180  0.00  0.00    +0.149 HD
ATOM     25  C   LIG    1      -34.916  79.906  27.926  0.00  0.00    +0.249 C 
ATOM     26  O   LIG    1      -34.296  80.526  27.084  0.00  0.00    -0.270 OA
BRANCH  23  27
ATOM     27  CA  LIG    1      -33.222  78.076  28.121  0.00  0.00    +0.098 C 
BRANCH  27  29
ATOM     28  C   LIG    1      -31.447  76.370  28.976  0.00  0.00    +0.006 C 
ATOM     29  C   LIG    1      -32.853  76.948  29.112  0.00  0.00    +0.021 C 
ENDBRANCH  27  29
BRANCH  27  30
ATOM     30  C   LIG    1      -33.222  77.593  26.656  0.00  0.00    +0.178 C 
BRANCH  30  31
ATOM     31  O   LIG    1      -32.563  78.495  25.768  0.00  0.00    -0.393 OA
ATOM     32  H   LIG    1      -31.769  78.828  26.223  0.00  0.00    +0.209 HD
ENDBRANCH  30  31
ENDBRANCH  27  30
ENDBRANCH  23  27
ENDBRANCH   1  25
TORSDOF 7
ENDMDL
MODEL 8
REMARK VINA RESULT:      -5.2     14.050     18.356
REMARK  Name = pdb/CHEMBL3676046.pdb
REMARK                            x       y       z     vdW  Elec       q    Type
REMARK                         _______ _______ _______ _____ _____    ______ ____
ROOT
ATOM      1  C   LIG    1      -37.646  76.165  25.813  0.00  0.00    +0.100 A 
ATOM      2  C   LIG    1      -38.001  74.865  25.503  0.00  0.00    +0.170 A 
ATOM      3  N   LIG    1      -37.463  73.654  25.875  0.00  0.00    -0.212 NA
ATOM      4  C   LIG    1      -37.988  72.567  25.356  0.00  0.00    +0.126 A 
ATOM      5  C   LIG    1      -39.184  72.613  24.436  0.00  0.00    +0.063 A 
ATOM      6  C   LIG    1      -39.681  73.816  24.129  0.00  0.00    +0.118 A 
ATOM      7  N   LIG    1      -39.095  74.959  24.642  0.00  0.00    -0.221 N 
ATOM      8  N   LIG    1      -39.466  76.242  24.422  0.00  0.00    -0.173 NA
ATOM      9  C   LIG    1      -38.584  76.961  25.118  0.00  0.00    +0.150 A 
ENDROOT
BRANCH   4  10
ATOM     10  N   LIG    1      -37.458  71.318  25.653  0.00  0.00    -0.308 N 
ATOM     11  C   LIG    1      -38.168  70.061  25.347  0.00  0.00    +0.108 C 
ATOM     12  C   LIG    1      -38.186  69.344  26.705  0.00  0.00    +0.029 C 
ATOM     13  C   LIG    1      -36.850  69.714  27.324  0.00  0.00    +0.021 C 
ATOM     14  C   LIG    1      -36.629  71.150  26.858  0.00  0.00    +0.107 C 
BRANCH  11  15
ATOM     15  C   LIG    1      -37.441  69.290  24.248  0.00  0.00    +0.011 A 
ATOM     16  C   LIG    1      -37.934  69.281  22.933  0.00  0.00    +0.129 A 
ATOM     17  F   LIG    1      -39.052  69.957  22.634  0.00  0.00    -0.205 F 
ATOM     18  C   LIG    1      -37.287  68.585  21.906  0.00  0.00    +0.041 A 
ATOM     19  C   LIG    1      -36.117  67.878  22.175  0.00  0.00    +0.041 A 
ATOM     20  C   LIG    1      -35.607  67.887  23.465  0.00  0.00    +0.124 A 
ATOM     21  F   LIG    1      -34.484  67.211  23.738  0.00  0.00    -0.205 F 
ATOM     22  C   LIG    1      -36.244  68.590  24.485  0.00  0.00    +0.046 A 
ENDBRANCH  11  15
ENDBRANCH   4  10
BRANCH   1  25
ATOM     23  N   LIG    1      -35.533  75.693  26.797  0.00  0.00    -0.306 N 
ATOM     24  H   LIG    1      -35.632  74.815  26.296  0.00  0.00    +0.149 HD
ATOM     25  C   LIG    1      -36.554  76.620  26.649  0.00  0.00    +0.249 C 
ATOM     26  O   LIG    1      -36.568  77.711  27.185  0.00  0.00    -0.270 OA
BRANCH  23  27
ATOM     27  CA  LIG    1      -34.358  75.937  27.633  0.00  0.00    +0.098 C 
BRANCH  27  29
ATOM     28  C   LIG    1      -34.675  73.703  28.939  0.00  0.00    +0.006 C 
ATOM     29  C   LIG    1      -33.744  74.611  28.138  0.00  0.00    +0.021 C 
ENDBRANCH  27  29
BRANCH  27  30
ATOM     30  C   LIG    1      -33.321  76.832  26.923  0.00  0.00    +0.178 C 
BRANCH  30  31
ATOM     31  O   LIG    1      -33.628  78.222  27.009  0.00  0.00    -0.393 OA
ATOM     32  H   LIG    1      -32.786  78.706  27.084  0.00  0.00    +0.209 HD
ENDBRANCH  30  31
ENDBRANCH  27  30
ENDBRANCH  23  27
ENDBRANCH   1  25
TORSDOF 7
ENDMDL
MODEL 9
REMARK VINA RESULT:      -5.1     14.007     17.983
REMARK  Name = pdb/CHEMBL3676046.pdb
REMARK                            x       y       z     vdW  Elec       q    Type
REMARK                         _______ _______ _______ _____ _____    ______ ____
ROOT
ATOM      1  C   LIG    1      -35.127  70.787  26.597  0.00  0.00    +0.100 A 
ATOM      2  C   LIG    1      -36.177  70.847  25.699  0.00  0.00    +0.170 A 
ATOM      3  N   LIG    1      -37.219  71.737  25.565  0.00  0.00    -0.212 NA
ATOM      4  C   LIG    1      -38.117  71.492  24.637  0.00  0.00    +0.126 A 
ATOM      5  C   LIG    1      -37.995  70.320  23.692  0.00  0.00    +0.063 A 
ATOM      6  C   LIG    1      -36.948  69.503  23.852  0.00  0.00    +0.118 A 
ATOM      7  N   LIG    1      -36.032  69.741  24.861  0.00  0.00    -0.221 N 
ATOM      8  N   LIG    1      -34.934  69.010  25.161  0.00  0.00    -0.173 NA
ATOM      9  C   LIG    1      -34.402  69.636  26.213  0.00  0.00    +0.150 A 
ENDROOT
BRANCH   4  10
ATOM     10  N   LIG    1      -39.218  72.323  24.485  0.00  0.00    -0.308 N 
ATOM     11  C   LIG    1      -39.580  73.351  25.481  0.00  0.00    +0.108 C 
ATOM     12  C   LIG    1      -41.047  73.017  25.792  0.00  0.00    +0.029 C 
ATOM     13  C   LIG    1      -41.601  72.555  24.456  0.00  0.00    +0.021 C 
ATOM     14  C   LIG    1      -40.429  71.810  23.825  0.00  0.00    +0.107 C 
BRANCH  11  15
ATOM     15  C   LIG    1      -39.372  74.750  24.906  0.00  0.00    +0.011 A 
ATOM     16  C   LIG    1      -38.127  75.390  25.014  0.00  0.00    +0.129 A 
ATOM     17  F   LIG    1      -37.107  74.771  25.625  0.00  0.00    -0.205 F 
ATOM     18  C   LIG    1      -37.906  76.671  24.495  0.00  0.00    +0.041 A 
ATOM     19  C   LIG    1      -38.939  77.345  23.845  0.00  0.00    +0.041 A 
ATOM     20  C   LIG    1      -40.172  76.722  23.715  0.00  0.00    +0.124 A 
ATOM     21  F   LIG    1      -41.173  77.358  23.095  0.00  0.00    -0.205 F 
ATOM     22  C   LIG    1      -40.388  75.442  24.222  0.00  0.00    +0.046 A 
ENDBRANCH  11  15
ENDBRANCH   4  10
BRANCH   1  25
ATOM     23  N   LIG    1      -35.014  73.026  27.389  0.00  0.00    -0.306 N 
ATOM     24  H   LIG    1      -35.351  73.245  26.457  0.00  0.00    +0.149 HD
ATOM     25  C   LIG    1      -34.835  71.685  27.695  0.00  0.00    +0.249 C 
ATOM     26  O   LIG    1      -34.441  71.277  28.770  0.00  0.00    -0.270 OA
BRANCH  23  27
ATOM     27  CA  LIG    1      -34.734  74.099  28.343  0.00  0.00    +0.098 C 
BRANCH  27  29
ATOM     28  C   LIG    1      -34.850  76.449  27.221  0.00  0.00    +0.006 C 
ATOM     29  C   LIG    1      -33.986  75.271  27.666  0.00  0.00    +0.021 C 
ENDBRANCH  27  29
BRANCH  27  30
ATOM     30  C   LIG    1      -36.008  74.563  29.079  0.00  0.00    +0.178 C 
BRANCH  30  31
ATOM     31  O   LIG    1      -37.205  74.014  28.529  0.00  0.00    -0.393 OA
ATOM     32  H   LIG    1      -36.997  73.121  28.204  0.00  0.00    +0.209 HD
ENDBRANCH  30  31
ENDBRANCH  27  30
ENDBRANCH  23  27
ENDBRANCH   1  25
TORSDOF 7
ENDMDL
