MODEL 1
REMARK VINA RESULT:      -6.2      0.000      0.000
REMARK  Name = pdb/CHEMBL3676005.pdb
REMARK                            x       y       z     vdW  Elec       q    Type
REMARK                         _______ _______ _______ _____ _____    ______ ____
ROOT
ATOM      1  C   LIG    1      -23.641  79.429  34.781  0.00  0.00    +0.126 A 
ATOM      2  N   LIG    1      -23.716  78.856  33.592  0.00  0.00    -0.212 NA
ATOM      3  C   LIG    1      -24.849  78.132  33.285  0.00  0.00    +0.170 A 
ATOM      4  C   LIG    1      -25.259  77.455  32.143  0.00  0.00    +0.100 A 
ATOM      5  C   LIG    1      -26.524  76.926  32.478  0.00  0.00    +0.150 A 
ATOM      6  N   LIG    1      -26.908  77.225  33.716  0.00  0.00    -0.173 NA
ATOM      7  N   LIG    1      -25.892  77.972  34.204  0.00  0.00    -0.221 N 
ATOM      8  C   LIG    1      -25.826  78.560  35.452  0.00  0.00    +0.118 A 
ATOM      9  C   LIG    1      -24.763  79.294  35.791  0.00  0.00    +0.063 A 
ENDROOT
BRANCH   1  11
ATOM     10  C   LIG    1      -21.367  79.643  35.868  0.00  0.00    +0.107 C 
ATOM     11  N   LIG    1      -22.520  80.181  35.129  0.00  0.00    -0.308 N 
ATOM     12  C   LIG    1      -22.481  81.642  35.126  0.00  0.00    +0.107 C 
ATOM     13  C   LIG    1      -21.543  82.014  36.262  0.00  0.00    +0.021 C 
ATOM     14  C   LIG    1      -20.536  80.885  36.261  0.00  0.00    +0.029 C 
BRANCH  10  18
ATOM     15  F   LIG    1      -18.315  78.649  32.173  0.00  0.00    -0.204 F 
ATOM     16  C   LIG    1      -19.063  78.225  33.200  0.00  0.00    +0.142 A 
ATOM     17  C   LIG    1      -19.763  79.139  33.975  0.00  0.00    +0.046 A 
ATOM     18  C   LIG    1      -20.537  78.686  35.047  0.00  0.00    -0.006 A 
ATOM     19  C   LIG    1      -20.541  77.310  35.284  0.00  0.00    +0.116 A 
ATOM     20  N   LIG    1      -19.891  76.395  34.526  0.00  0.00    -0.260 NA
ATOM     21  C   LIG    1      -19.162  76.878  33.495  0.00  0.00    +0.149 A 
ENDBRANCH  10  18
ENDBRANCH   1  11
BRANCH   4  22
ATOM     22  C   LIG    1      -24.593  77.296  30.870  0.00  0.00    +0.249 C 
ATOM     23  N   LIG    1      -23.231  77.136  30.922  0.00  0.00    -0.303 N 
ATOM     24  H   LIG    1      -22.796  77.155  31.842  0.00  0.00    +0.149 HD
ATOM     25  O   LIG    1      -25.206  77.308  29.802  0.00  0.00    -0.270 OA
BRANCH  23  26
ATOM     26  C   LIG    1      -22.451  76.964  29.701  0.00  0.00    +0.217 C 
BRANCH  26  27
ATOM     27  C   LIG    1      -20.923  77.101  29.830  0.00  0.00    +0.405 C 
ATOM     28  F   LIG    1      -20.452  76.182  30.713  0.00  0.00    -0.169 F 
ATOM     29  F   LIG    1      -20.570  78.317  30.300  0.00  0.00    -0.169 F 
ATOM     30  F   LIG    1      -20.268  76.890  28.667  0.00  0.00    -0.169 F 
ENDBRANCH  26  27
ENDBRANCH  23  26
ENDBRANCH   4  22
TORSDOF 5
ENDMDL
MODEL 2
REMARK VINA RESULT:      -5.9      2.969      5.254
REMARK  Name = pdb/CHEMBL3676005.pdb
REMARK                            x       y       z     vdW  Elec       q    Type
REMARK                         _______ _______ _______ _____ _____    ______ ____
ROOT
ATOM      1  C   LIG    1      -21.098  77.112  31.082  0.00  0.00    +0.126 A 
ATOM      2  N   LIG    1      -22.027  77.463  31.954  0.00  0.00    -0.212 NA
ATOM      3  C   LIG    1      -23.346  77.446  31.547  0.00  0.00    +0.170 A 
ATOM      4  C   LIG    1      -24.541  77.710  32.204  0.00  0.00    +0.100 A 
ATOM      5  C   LIG    1      -25.537  77.507  31.225  0.00  0.00    +0.150 A 
ATOM      6  N   LIG    1      -25.045  77.146  30.043  0.00  0.00    -0.173 NA
ATOM      7  N   LIG    1      -23.710  77.096  30.243  0.00  0.00    -0.221 N 
ATOM      8  C   LIG    1      -22.750  76.732  29.319  0.00  0.00    +0.118 A 
ATOM      9  C   LIG    1      -21.461  76.706  29.667  0.00  0.00    +0.063 A 
ENDROOT
BRANCH   1  11
ATOM     10  C   LIG    1      -19.080  78.222  32.127  0.00  0.00    +0.107 C 
ATOM     11  N   LIG    1      -19.754  77.102  31.452  0.00  0.00    -0.308 N 
ATOM     12  C   LIG    1      -18.767  76.160  30.928  0.00  0.00    +0.107 C 
ATOM     13  C   LIG    1      -17.464  76.940  30.881  0.00  0.00    +0.021 C 
ATOM     14  C   LIG    1      -17.576  77.870  32.069  0.00  0.00    +0.029 C 
BRANCH  10  18
ATOM     15  F   LIG    1      -20.590  81.007  35.857  0.00  0.00    -0.204 F 
ATOM     16  C   LIG    1      -20.237  79.807  35.380  0.00  0.00    +0.142 A 
ATOM     17  C   LIG    1      -19.891  79.662  34.044  0.00  0.00    +0.046 A 
ATOM     18  C   LIG    1      -19.528  78.403  33.557  0.00  0.00    -0.006 A 
ATOM     19  C   LIG    1      -19.554  77.344  34.467  0.00  0.00    +0.116 A 
ATOM     20  N   LIG    1      -19.858  77.464  35.781  0.00  0.00    -0.260 NA
ATOM     21  C   LIG    1      -20.195  78.700  36.209  0.00  0.00    +0.149 A 
ENDBRANCH  10  18
ENDBRANCH   1  11
BRANCH   4  22
ATOM     22  C   LIG    1      -24.779  78.100  33.576  0.00  0.00    +0.249 C 
ATOM     23  N   LIG    1      -23.662  78.373  34.323  0.00  0.00    -0.303 N 
ATOM     24  H   LIG    1      -22.759  78.267  33.866  0.00  0.00    +0.149 HD
ATOM     25  O   LIG    1      -25.914  78.181  34.047  0.00  0.00    -0.270 OA
BRANCH  23  26
ATOM     26  C   LIG    1      -23.778  78.779  35.720  0.00  0.00    +0.217 C 
BRANCH  26  27
ATOM     27  C   LIG    1      -23.901  80.289  35.996  0.00  0.00    +0.405 C 
ATOM     28  F   LIG    1      -23.366  80.989  34.962  0.00  0.00    -0.169 F 
ATOM     29  F   LIG    1      -23.225  80.649  37.109  0.00  0.00    -0.169 F 
ATOM     30  F   LIG    1      -25.179  80.705  36.124  0.00  0.00    -0.169 F 
ENDBRANCH  26  27
ENDBRANCH  23  26
ENDBRANCH   4  22
TORSDOF 5
ENDMDL
MODEL 3
REMARK VINA RESULT:      -5.7      6.260     10.416
REMARK  Name = pdb/CHEMBL3676005.pdb
REMARK                            x       y       z     vdW  Elec       q    Type
REMARK                         _______ _______ _______ _____ _____    ______ ____
ROOT
ATOM      1  C   LIG    1      -31.595  75.645  30.784  0.00  0.00    +0.126 A 
ATOM      2  N   LIG    1      -30.279  75.685  30.892  0.00  0.00    -0.212 NA
ATOM      3  C   LIG    1      -29.732  76.281  32.009  0.00  0.00    +0.170 A 
ATOM      4  C   LIG    1      -28.424  76.452  32.445  0.00  0.00    +0.100 A 
ATOM      5  C   LIG    1      -28.545  77.139  33.672  0.00  0.00    +0.150 A 
ATOM      6  N   LIG    1      -29.806  77.395  34.008  0.00  0.00    -0.173 NA
ATOM      7  N   LIG    1      -30.531  76.860  33.001  0.00  0.00    -0.221 N 
ATOM      8  C   LIG    1      -31.908  76.831  32.899  0.00  0.00    +0.118 A 
ATOM      9  C   LIG    1      -32.490  76.244  31.851  0.00  0.00    +0.063 A 
ENDROOT
BRANCH   1  11
ATOM     10  C   LIG    1      -33.372  75.581  28.984  0.00  0.00    +0.107 C 
ATOM     11  N   LIG    1      -32.192  75.042  29.678  0.00  0.00    -0.308 N 
ATOM     12  C   LIG    1      -31.962  73.655  29.278  0.00  0.00    +0.107 C 
ATOM     13  C   LIG    1      -33.281  73.193  28.681  0.00  0.00    +0.021 C 
ATOM     14  C   LIG    1      -33.825  74.448  28.036  0.00  0.00    +0.029 C 
BRANCH  10  18
ATOM     15  F   LIG    1      -33.747  80.408  28.267  0.00  0.00    -0.204 F 
ATOM     16  C   LIG    1      -33.305  79.211  27.862  0.00  0.00    +0.142 A 
ATOM     17  C   LIG    1      -33.542  78.083  28.635  0.00  0.00    +0.046 A 
ATOM     18  C   LIG    1      -33.073  76.839  28.205  0.00  0.00    -0.006 A 
ATOM     19  C   LIG    1      -32.364  76.815  27.002  0.00  0.00    +0.116 A 
ATOM     20  N   LIG    1      -32.144  77.895  26.214  0.00  0.00    -0.260 NA
ATOM     21  C   LIG    1      -32.623  79.075  26.666  0.00  0.00    +0.149 A 
ENDBRANCH  10  18
ENDBRANCH   1  11
BRANCH   4  22
ATOM     22  C   LIG    1      -27.181  76.038  31.834  0.00  0.00    +0.249 C 
ATOM     23  N   LIG    1      -26.397  77.045  31.330  0.00  0.00    -0.303 N 
ATOM     24  H   LIG    1      -26.751  77.996  31.411  0.00  0.00    +0.149 HD
ATOM     25  O   LIG    1      -26.845  74.855  31.764  0.00  0.00    -0.270 OA
BRANCH  23  26
ATOM     26  C   LIG    1      -25.118  76.749  30.692  0.00  0.00    +0.217 C 
BRANCH  26  27
ATOM     27  C   LIG    1      -24.138  77.925  30.523  0.00  0.00    +0.405 C 
ATOM     28  F   LIG    1      -23.276  77.663  29.507  0.00  0.00    -0.169 F 
ATOM     29  F   LIG    1      -23.393  78.115  31.634  0.00  0.00    -0.169 F 
ATOM     30  F   LIG    1      -24.750  79.090  30.219  0.00  0.00    -0.169 F 
ENDBRANCH  26  27
ENDBRANCH  23  26
ENDBRANCH   4  22
TORSDOF 5
ENDMDL
MODEL 4
REMARK VINA RESULT:      -5.6     18.070     21.269
REMARK  Name = pdb/CHEMBL3676005.pdb
REMARK                            x       y       z     vdW  Elec       q    Type
REMARK                         _______ _______ _______ _____ _____    ______ ____
ROOT
ATOM      1  C   LIG    1      -20.089  81.946  14.073  0.00  0.00    +0.126 A 
ATOM      2  N   LIG    1      -19.888  83.251  14.030  0.00  0.00    -0.212 NA
ATOM      3  C   LIG    1      -18.789  83.722  13.341  0.00  0.00    +0.170 A 
ATOM      4  C   LIG    1      -18.318  85.001  13.071  0.00  0.00    +0.100 A 
ATOM      5  C   LIG    1      -17.147  84.796  12.311  0.00  0.00    +0.150 A 
ATOM      6  N   LIG    1      -16.875  83.511  12.102  0.00  0.00    -0.173 NA
ATOM      7  N   LIG    1      -17.884  82.856  12.719  0.00  0.00    -0.221 N 
ATOM      8  C   LIG    1      -18.078  81.489  12.759  0.00  0.00    +0.118 A 
ATOM      9  C   LIG    1      -19.140  80.981  13.391  0.00  0.00    +0.063 A 
ENDROOT
BRANCH   1  11
ATOM     10  C   LIG    1      -22.439  82.172  14.981  0.00  0.00    +0.107 C 
ATOM     11  N   LIG    1      -21.193  81.426  14.747  0.00  0.00    -0.308 N 
ATOM     12  C   LIG    1      -21.147  80.239  15.600  0.00  0.00    +0.107 C 
ATOM     13  C   LIG    1      -22.165  80.503  16.697  0.00  0.00    +0.021 C 
ATOM     14  C   LIG    1      -23.231  81.311  15.991  0.00  0.00    +0.029 C 
BRANCH  10  18
ATOM     15  F   LIG    1      -23.980  84.956  11.262  0.00  0.00    -0.204 F 
ATOM     16  C   LIG    1      -24.008  83.791  11.922  0.00  0.00    +0.142 A 
ATOM     17  C   LIG    1      -23.208  83.606  13.041  0.00  0.00    +0.046 A 
ATOM     18  C   LIG    1      -23.242  82.384  13.720  0.00  0.00    -0.006 A 
ATOM     19  C   LIG    1      -24.088  81.400  13.204  0.00  0.00    +0.116 A 
ATOM     20  N   LIG    1      -24.899  81.565  12.132  0.00  0.00    -0.260 NA
ATOM     21  C   LIG    1      -24.839  82.764  11.512  0.00  0.00    +0.149 A 
ENDBRANCH  10  18
ENDBRANCH   1  11
BRANCH   4  22
ATOM     22  C   LIG    1      -18.861  86.287  13.448  0.00  0.00    +0.249 C 
ATOM     23  N   LIG    1      -20.022  86.257  14.177  0.00  0.00    -0.303 N 
ATOM     24  H   LIG    1      -20.419  85.343  14.383  0.00  0.00    +0.149 HD
ATOM     25  O   LIG    1      -18.317  87.346  13.132  0.00  0.00    -0.270 OA
BRANCH  23  26
ATOM     26  C   LIG    1      -20.662  87.494  14.616  0.00  0.00    +0.217 C 
BRANCH  26  27
ATOM     27  C   LIG    1      -22.092  87.374  15.175  0.00  0.00    +0.405 C 
ATOM     28  F   LIG    1      -22.875  86.703  14.291  0.00  0.00    -0.169 F 
ATOM     29  F   LIG    1      -22.656  88.588  15.361  0.00  0.00    -0.169 F 
ATOM     30  F   LIG    1      -22.154  86.695  16.340  0.00  0.00    -0.169 F 
ENDBRANCH  26  27
ENDBRANCH  23  26
ENDBRANCH   4  22
TORSDOF 5
ENDMDL
MODEL 5
REMARK VINA RESULT:      -5.5     18.386     21.500
REMARK  Name = pdb/CHEMBL3676005.pdb
REMARK                            x       y       z     vdW  Elec       q    Type
REMARK                         _______ _______ _______ _____ _____    ______ ____
ROOT
ATOM      1  C   LIG    1      -20.225  86.086  13.579  0.00  0.00    +0.126 A 
ATOM      2  N   LIG    1      -20.203  84.798  13.874  0.00  0.00    -0.212 NA
ATOM      3  C   LIG    1      -19.039  84.093  13.645  0.00  0.00    +0.170 A 
ATOM      4  C   LIG    1      -18.672  82.773  13.874  0.00  0.00    +0.100 A 
ATOM      5  C   LIG    1      -17.338  82.691  13.420  0.00  0.00    +0.150 A 
ATOM      6  N   LIG    1      -16.875  83.842  12.941  0.00  0.00    -0.173 NA
ATOM      7  N   LIG    1      -17.908  84.701  13.090  0.00  0.00    -0.221 N 
ATOM      8  C   LIG    1      -17.917  86.045  12.772  0.00  0.00    +0.118 A 
ATOM      9  C   LIG    1      -19.010  86.779  12.997  0.00  0.00    +0.063 A 
ENDROOT
BRANCH   1  11
ATOM     10  C   LIG    1      -22.113  87.550  12.750  0.00  0.00    +0.107 C 
ATOM     11  N   LIG    1      -21.375  86.840  13.805  0.00  0.00    -0.308 N 
ATOM     12  C   LIG    1      -21.800  87.310  15.123  0.00  0.00    +0.107 C 
ATOM     13  C   LIG    1      -22.476  88.647  14.864  0.00  0.00    +0.021 C 
ATOM     14  C   LIG    1      -23.113  88.453  13.506  0.00  0.00    +0.029 C 
BRANCH  10  18
ATOM     15  F   LIG    1      -25.676  84.345  11.756  0.00  0.00    -0.204 F 
ATOM     16  C   LIG    1      -24.586  85.019  11.366  0.00  0.00    +0.142 A 
ATOM     17  C   LIG    1      -23.977  85.917  12.231  0.00  0.00    +0.046 A 
ATOM     18  C   LIG    1      -22.842  86.618  11.812  0.00  0.00    -0.006 A 
ATOM     19  C   LIG    1      -22.395  86.375  10.512  0.00  0.00    +0.116 A 
ATOM     20  N   LIG    1      -22.954  85.483   9.659  0.00  0.00    -0.260 NA
ATOM     21  C   LIG    1      -24.043  84.822  10.110  0.00  0.00    +0.149 A 
ENDBRANCH  10  18
ENDBRANCH   1  11
BRANCH   4  22
ATOM     22  C   LIG    1      -19.432  81.685  14.449  0.00  0.00    +0.249 C 
ATOM     23  N   LIG    1      -20.192  82.000  15.546  0.00  0.00    -0.303 N 
ATOM     24  H   LIG    1      -20.153  82.961  15.879  0.00  0.00    +0.149 HD
ATOM     25  O   LIG    1      -19.398  80.545  13.985  0.00  0.00    -0.270 OA
BRANCH  23  26
ATOM     26  C   LIG    1      -21.004  80.985  16.210  0.00  0.00    +0.217 C 
BRANCH  26  27
ATOM     27  C   LIG    1      -22.464  81.359  16.522  0.00  0.00    +0.405 C 
ATOM     28  F   LIG    1      -23.171  80.239  16.823  0.00  0.00    -0.169 F 
ATOM     29  F   LIG    1      -23.068  81.935  15.460  0.00  0.00    -0.169 F 
ATOM     30  F   LIG    1      -22.588  82.189  17.581  0.00  0.00    -0.169 F 
ENDBRANCH  26  27
ENDBRANCH  23  26
ENDBRANCH   4  22
TORSDOF 5
ENDMDL
MODEL 6
REMARK VINA RESULT:      -5.4     18.331     21.088
REMARK  Name = pdb/CHEMBL3676005.pdb
REMARK                            x       y       z     vdW  Elec       q    Type
REMARK                         _______ _______ _______ _____ _____    ______ ____
ROOT
ATOM      1  C   LIG    1      -22.757  85.717  12.269  0.00  0.00    +0.126 A 
ATOM      2  N   LIG    1      -23.224  84.610  12.818  0.00  0.00    -0.212 NA
ATOM      3  C   LIG    1      -23.758  83.644  11.991  0.00  0.00    +0.170 A 
ATOM      4  C   LIG    1      -24.284  82.380  12.228  0.00  0.00    +0.100 A 
ATOM      5  C   LIG    1      -24.656  81.904  10.953  0.00  0.00    +0.150 A 
ATOM      6  N   LIG    1      -24.400  82.768   9.975  0.00  0.00    -0.173 NA
ATOM      7  N   LIG    1      -23.841  83.824  10.606  0.00  0.00    -0.221 N 
ATOM      8  C   LIG    1      -23.362  84.979  10.018  0.00  0.00    +0.118 A 
ATOM      9  C   LIG    1      -22.811  85.935  10.770  0.00  0.00    +0.063 A 
ENDROOT
BRANCH   1  11
ATOM     10  C   LIG    1      -21.224  86.460  14.139  0.00  0.00    +0.107 C 
ATOM     11  N   LIG    1      -22.197  86.715  13.066  0.00  0.00    -0.308 N 
ATOM     12  C   LIG    1      -22.737  88.068  13.185  0.00  0.00    +0.107 C 
ATOM     13  C   LIG    1      -22.434  88.488  14.614  0.00  0.00    +0.021 C 
ATOM     14  C   LIG    1      -21.120  87.798  14.905  0.00  0.00    +0.029 C 
BRANCH  10  18
ATOM     15  F   LIG    1      -17.835  83.062  13.178  0.00  0.00    -0.204 F 
ATOM     16  C   LIG    1      -18.212  84.347  13.190  0.00  0.00    +0.142 A 
ATOM     17  C   LIG    1      -19.487  84.694  13.614  0.00  0.00    +0.046 A 
ATOM     18  C   LIG    1      -19.871  86.038  13.619  0.00  0.00    -0.006 A 
ATOM     19  C   LIG    1      -18.927  86.965  13.171  0.00  0.00    +0.116 A 
ATOM     20  N   LIG    1      -17.668  86.655  12.780  0.00  0.00    -0.260 NA
ATOM     21  C   LIG    1      -17.338  85.345  12.799  0.00  0.00    +0.149 A 
ENDBRANCH  10  18
ENDBRANCH   1  11
BRANCH   4  22
ATOM     22  C   LIG    1      -24.438  81.658  13.472  0.00  0.00    +0.249 C 
ATOM     23  N   LIG    1      -23.382  81.736  14.344  0.00  0.00    -0.303 N 
ATOM     24  H   LIG    1      -22.573  82.278  14.047  0.00  0.00    +0.149 HD
ATOM     25  O   LIG    1      -25.451  81.009  13.733  0.00  0.00    -0.270 OA
BRANCH  23  26
ATOM     26  C   LIG    1      -23.423  81.051  15.632  0.00  0.00    +0.217 C 
BRANCH  26  27
ATOM     27  C   LIG    1      -22.270  81.343  16.610  0.00  0.00    +0.405 C 
ATOM     28  F   LIG    1      -21.298  82.049  15.976  0.00  0.00    -0.169 F 
ATOM     29  F   LIG    1      -21.700  80.204  17.061  0.00  0.00    -0.169 F 
ATOM     30  F   LIG    1      -22.649  82.078  17.677  0.00  0.00    -0.169 F 
ENDBRANCH  26  27
ENDBRANCH  23  26
ENDBRANCH   4  22
TORSDOF 5
ENDMDL
MODEL 7
REMARK VINA RESULT:      -5.1     12.426     15.637
REMARK  Name = pdb/CHEMBL3676005.pdb
REMARK                            x       y       z     vdW  Elec       q    Type
REMARK                         _______ _______ _______ _____ _____    ______ ____
ROOT
ATOM      1  C   LIG    1      -33.194  73.372  29.124  0.00  0.00    +0.126 A 
ATOM      2  N   LIG    1      -34.121  74.154  28.601  0.00  0.00    -0.212 NA
ATOM      3  C   LIG    1      -33.803  75.474  28.356  0.00  0.00    +0.170 A 
ATOM      4  C   LIG    1      -34.509  76.528  27.791  0.00  0.00    +0.100 A 
ATOM      5  C   LIG    1      -33.612  77.617  27.826  0.00  0.00    +0.150 A 
ATOM      6  N   LIG    1      -32.434  77.309  28.360  0.00  0.00    -0.173 NA
ATOM      7  N   LIG    1      -32.545  75.998  28.672  0.00  0.00    -0.221 N 
ATOM      8  C   LIG    1      -31.567  75.195  29.224  0.00  0.00    +0.118 A 
ATOM      9  C   LIG    1      -31.814  73.903  29.458  0.00  0.00    +0.063 A 
ENDROOT
BRANCH   1  11
ATOM     10  C   LIG    1      -34.816  71.444  29.346  0.00  0.00    +0.107 C 
ATOM     11  N   LIG    1      -33.467  72.028  29.377  0.00  0.00    -0.308 N 
ATOM     12  C   LIG    1      -32.536  71.113  30.034  0.00  0.00    +0.107 C 
ATOM     13  C   LIG    1      -33.414  70.154  30.821  0.00  0.00    +0.021 C 
ATOM     14  C   LIG    1      -34.652  70.036  29.958  0.00  0.00    +0.029 C 
BRANCH  10  18
ATOM     15  F   LIG    1      -38.515  71.803  26.161  0.00  0.00    -0.204 F 
ATOM     16  C   LIG    1      -37.235  71.507  26.415  0.00  0.00    +0.142 A 
ATOM     17  C   LIG    1      -36.726  71.662  27.697  0.00  0.00    +0.046 A 
ATOM     18  C   LIG    1      -35.386  71.354  27.950  0.00  0.00    -0.006 A 
ATOM     19  C   LIG    1      -34.625  70.913  26.866  0.00  0.00    +0.116 A 
ATOM     20  N   LIG    1      -35.105  70.724  25.613  0.00  0.00    -0.260 NA
ATOM     21  C   LIG    1      -36.407  71.028  25.417  0.00  0.00    +0.149 A 
ENDBRANCH  10  18
ENDBRANCH   1  11
BRANCH   4  22
ATOM     22  C   LIG    1      -35.855  76.565  27.263  0.00  0.00    +0.249 C 
ATOM     23  N   LIG    1      -36.432  75.347  27.008  0.00  0.00    -0.303 N 
ATOM     24  H   LIG    1      -35.871  74.518  27.193  0.00  0.00    +0.149 HD
ATOM     25  O   LIG    1      -36.447  77.624  27.050  0.00  0.00    -0.270 OA
BRANCH  23  26
ATOM     26  C   LIG    1      -37.788  75.259  26.475  0.00  0.00    +0.217 C 
BRANCH  26  27
ATOM     27  C   LIG    1      -37.932  75.251  24.942  0.00  0.00    +0.405 C 
ATOM     28  F   LIG    1      -37.651  74.012  24.461  0.00  0.00    -0.169 F 
ATOM     29  F   LIG    1      -37.067  76.108  24.357  0.00  0.00    -0.169 F 
ATOM     30  F   LIG    1      -39.179  75.555  24.521  0.00  0.00    -0.169 F 
ENDBRANCH  26  27
ENDBRANCH  23  26
ENDBRANCH   4  22
TORSDOF 5
ENDMDL
MODEL 8
REMARK VINA RESULT:      -5.1     18.410     21.273
REMARK  Name = pdb/CHEMBL3676005.pdb
REMARK                            x       y       z     vdW  Elec       q    Type
REMARK                         _______ _______ _______ _____ _____    ______ ____
ROOT
ATOM      1  C   LIG    1      -19.833  81.745  13.544  0.00  0.00    +0.126 A 
ATOM      2  N   LIG    1      -19.841  83.048  13.762  0.00  0.00    -0.212 NA
ATOM      3  C   LIG    1      -19.371  83.881  12.767  0.00  0.00    +0.170 A 
ATOM      4  C   LIG    1      -19.280  85.262  12.655  0.00  0.00    +0.100 A 
ATOM      5  C   LIG    1      -18.711  85.479  11.381  0.00  0.00    +0.150 A 
ATOM      6  N   LIG    1      -18.454  84.352  10.723  0.00  0.00    -0.173 NA
ATOM      7  N   LIG    1      -18.869  83.378  11.562  0.00  0.00    -0.221 N 
ATOM      8  C   LIG    1      -18.849  82.018  11.323  0.00  0.00    +0.118 A 
ATOM      9  C   LIG    1      -19.315  81.168  12.241  0.00  0.00    +0.063 A 
ENDROOT
BRANCH   1  11
ATOM     10  C   LIG    1      -21.525  81.100  15.310  0.00  0.00    +0.107 C 
ATOM     11  N   LIG    1      -20.309  80.867  14.516  0.00  0.00    -0.308 N 
ATOM     12  C   LIG    1      -19.511  79.799  15.118  0.00  0.00    +0.107 C 
ATOM     13  C   LIG    1      -20.015  79.689  16.547  0.00  0.00    +0.021 C 
ATOM     14  C   LIG    1      -21.484  80.029  16.422  0.00  0.00    +0.029 C 
BRANCH  10  18
ATOM     15  F   LIG    1      -24.489  78.641  12.289  0.00  0.00    -0.204 F 
ATOM     16  C   LIG    1      -24.210  79.752  12.984  0.00  0.00    +0.142 A 
ATOM     17  C   LIG    1      -23.070  79.811  13.772  0.00  0.00    +0.046 A 
ATOM     18  C   LIG    1      -22.792  80.974  14.497  0.00  0.00    -0.006 A 
ATOM     19  C   LIG    1      -23.711  82.019  14.389  0.00  0.00    +0.116 A 
ATOM     20  N   LIG    1      -24.815  81.997  13.605  0.00  0.00    -0.260 NA
ATOM     21  C   LIG    1      -25.040  80.856  12.916  0.00  0.00    +0.149 A 
ENDBRANCH  10  18
ENDBRANCH   1  11
BRANCH   4  22
ATOM     22  C   LIG    1      -19.667  86.296  13.588  0.00  0.00    +0.249 C 
ATOM     23  N   LIG    1      -20.909  86.157  14.155  0.00  0.00    -0.303 N 
ATOM     24  H   LIG    1      -21.464  85.354  13.867  0.00  0.00    +0.149 HD
ATOM     25  O   LIG    1      -18.932  87.246  13.857  0.00  0.00    -0.270 OA
BRANCH  23  26
ATOM     26  C   LIG    1      -21.408  87.138  15.114  0.00  0.00    +0.217 C 
BRANCH  26  27
ATOM     27  C   LIG    1      -22.184  88.337  14.539  0.00  0.00    +0.405 C 
ATOM     28  F   LIG    1      -23.023  87.914  13.558  0.00  0.00    -0.169 F 
ATOM     29  F   LIG    1      -21.354  89.247  13.983  0.00  0.00    -0.169 F 
ATOM     30  F   LIG    1      -22.949  88.967  15.457  0.00  0.00    -0.169 F 
ENDBRANCH  26  27
ENDBRANCH  23  26
ENDBRANCH   4  22
TORSDOF 5
ENDMDL
MODEL 9
REMARK VINA RESULT:      -4.9     13.602     17.474
REMARK  Name = pdb/CHEMBL3676005.pdb
REMARK                            x       y       z     vdW  Elec       q    Type
REMARK                         _______ _______ _______ _____ _____    ______ ____
ROOT
ATOM      1  C   LIG    1      -38.568  73.196  24.813  0.00  0.00    +0.126 A 
ATOM      2  N   LIG    1      -37.837  74.066  25.489  0.00  0.00    -0.212 NA
ATOM      3  C   LIG    1      -38.235  75.387  25.498  0.00  0.00    +0.170 A 
ATOM      4  C   LIG    1      -37.733  76.521  26.124  0.00  0.00    +0.100 A 
ATOM      5  C   LIG    1      -38.604  77.559  25.730  0.00  0.00    +0.150 A 
ATOM      6  N   LIG    1      -39.580  77.149  24.925  0.00  0.00    -0.173 NA
ATOM      7  N   LIG    1      -39.363  75.821  24.794  0.00  0.00    -0.221 N 
ATOM      8  C   LIG    1      -40.133  74.925  24.078  0.00  0.00    +0.118 A 
ATOM      9  C   LIG    1      -39.808  73.630  24.057  0.00  0.00    +0.063 A 
ENDROOT
BRANCH   1  11
ATOM     10  C   LIG    1      -36.965  71.317  25.358  0.00  0.00    +0.107 C 
ATOM     11  N   LIG    1      -38.211  71.849  24.786  0.00  0.00    -0.308 N 
ATOM     12  C   LIG    1      -38.827  70.856  23.907  0.00  0.00    +0.107 C 
ATOM     13  C   LIG    1      -37.713  69.876  23.578  0.00  0.00    +0.021 C 
ATOM     14  C   LIG    1      -36.882  69.863  24.842  0.00  0.00    +0.029 C 
BRANCH  10  18
ATOM     15  F   LIG    1      -34.821  72.340  29.638  0.00  0.00    -0.204 F 
ATOM     16  C   LIG    1      -35.855  71.830  28.956  0.00  0.00    +0.142 A 
ATOM     17  C   LIG    1      -35.865  71.877  27.569  0.00  0.00    +0.046 A 
ATOM     18  C   LIG    1      -36.952  71.346  26.868  0.00  0.00    -0.006 A 
ATOM     19  C   LIG    1      -37.989  70.804  27.629  0.00  0.00    +0.116 A 
ATOM     20  N   LIG    1      -37.990  70.719  28.981  0.00  0.00    -0.260 NA
ATOM     21  C   LIG    1      -36.916  71.238  29.616  0.00  0.00    +0.149 A 
ENDBRANCH  10  18
ENDBRANCH   1  11
BRANCH   4  22
ATOM     22  C   LIG    1      -36.591  76.669  26.998  0.00  0.00    +0.249 C 
ATOM     23  N   LIG    1      -36.160  75.525  27.620  0.00  0.00    -0.303 N 
ATOM     24  H   LIG    1      -36.680  74.670  27.434  0.00  0.00    +0.149 HD
ATOM     25  O   LIG    1      -36.038  77.755  27.177  0.00  0.00    -0.270 OA
BRANCH  23  26
ATOM     26  C   LIG    1      -35.013  75.551  28.523  0.00  0.00    +0.217 C 
BRANCH  26  27
ATOM     27  C   LIG    1      -33.632  75.280  27.898  0.00  0.00    +0.405 C 
ATOM     28  F   LIG    1      -33.558  73.985  27.493  0.00  0.00    -0.169 F 
ATOM     29  F   LIG    1      -32.636  75.473  28.790  0.00  0.00    -0.169 F 
ATOM     30  F   LIG    1      -33.380  76.040  26.810  0.00  0.00    -0.169 F 
ENDBRANCH  26  27
ENDBRANCH  23  26
ENDBRANCH   4  22
TORSDOF 5
ENDMDL
