MODEL 1
REMARK VINA RESULT:      -7.0      0.000      0.000
REMARK  Name = pdb/CHEMBL3975550.pdb
REMARK                            x       y       z     vdW  Elec       q    Type
REMARK                         _______ _______ _______ _____ _____    ______ ____
ROOT
ATOM      1  C   LIG    1      -23.321  81.189  15.316  0.00  0.00    +0.042 A 
ATOM      2  C   LIG    1      -23.155  79.843  15.645  0.00  0.00    +0.042 A 
ATOM      3  C   LIG    1      -24.019  78.832  15.232  0.00  0.00    +0.086 A 
ATOM      4  C   LIG    1      -25.120  79.241  14.483  0.00  0.00    +0.138 A 
ATOM      5  N   LIG    1      -25.361  80.533  14.128  0.00  0.00    -0.260 NA
ATOM      6  C   LIG    1      -24.473  81.465  14.562  0.00  0.00    +0.122 A 
ENDROOT
BRANCH   1   7
ATOM      7  C   LIG    1      -22.449  82.228  15.890  0.00  0.00    +0.197 C 
ATOM      8  O   LIG    1      -22.349  82.252  17.131  0.00  0.00    -0.287 OA
BRANCH   7  16
ATOM      9  N   LIG    1      -21.134  85.101  13.921  0.00  0.00    -0.338 N 
ATOM     10  C   LIG    1      -20.042  84.249  13.830  0.00  0.00    +0.053 A 
ATOM     11  C   LIG    1      -18.746  84.400  13.321  0.00  0.00    +0.046 A 
ATOM     12  C   LIG    1      -17.941  83.277  13.273  0.00  0.00    +0.113 A 
ATOM     13  N   LIG    1      -18.299  82.072  13.738  0.00  0.00    -0.263 NA
ATOM     14  C   LIG    1      -19.510  81.941  14.343  0.00  0.00    +0.121 A 
ATOM     15  C   LIG    1      -20.414  83.020  14.416  0.00  0.00    +0.029 A 
ATOM     16  C   LIG    1      -21.698  83.187  15.054  0.00  0.00    +0.049 A 
ATOM     17  C   LIG    1      -22.053  84.504  14.774  0.00  0.00    +0.099 A 
BRANCH   9  19
ATOM     18  C   LIG    1      -22.853  86.838  13.485  0.00  0.00    +0.036 C 
ATOM     19  C   LIG    1      -21.377  86.442  13.312  0.00  0.00    +0.063 C 
ATOM     20  C   LIG    1      -21.080  86.391  11.778  0.00  0.00    +0.036 C 
BRANCH  19  21
ATOM     21  C   LIG    1      -20.444  87.594  13.802  0.00  0.00    +0.183 C 
BRANCH  21  22
ATOM     22  O   LIG    1      -19.925  87.453  15.112  0.00  0.00    -0.393 OA
ATOM     23  H   LIG    1      -19.338  86.673  15.101  0.00  0.00    +0.209 HD
ENDBRANCH  21  22
ENDBRANCH  19  21
ENDBRANCH   9  19
ENDBRANCH   7  16
ENDBRANCH   1   7
BRANCH   3  24
ATOM     24  N   LIG    1      -23.853  77.472  15.529  0.00  0.00    -0.216 NA
ATOM     25  C   LIG    1      -23.289  76.594  14.770  0.00  0.00    +0.192 C 
BRANCH  25  26
ATOM     26  O   LIG    1      -22.718  76.884  13.581  0.00  0.00    -0.495 OA
ATOM     27  H   LIG    1      -21.798  77.176  13.645  0.00  0.00    +0.293 HD
ENDBRANCH  25  26
BRANCH  25  28
ATOM     28  C   LIG    1      -23.195  75.120  15.089  0.00  0.00    +0.130 C 
BRANCH  28  29
ATOM     29  C   LIG    1      -22.035  74.663  15.936  0.00  0.00    -0.038 A 
ATOM     30  C   LIG    1      -22.165  73.666  16.914  0.00  0.00    +0.016 A 
ATOM     31  C   LIG    1      -21.098  73.298  17.740  0.00  0.00    +0.055 A 
ATOM     32  C   LIG    1      -19.845  73.872  17.509  0.00  0.00    +0.012 A 
ATOM     33  C   LIG    1      -19.677  74.810  16.489  0.00  0.00    +0.001 A 
ATOM     34  C   LIG    1      -20.766  75.211  15.713  0.00  0.00    +0.004 A 
BRANCH  31  35
ATOM     35  C   LIG    1      -21.343  72.318  18.858  0.00  0.00    +0.417 C 
ATOM     36  F   LIG    1      -22.440  72.639  19.599  0.00  0.00    -0.166 F 
ATOM     37  F   LIG    1      -20.304  72.261  19.739  0.00  0.00    -0.166 F 
ATOM     38  F   LIG    1      -21.540  71.040  18.431  0.00  0.00    -0.166 F 
ENDBRANCH  31  35
ENDBRANCH  28  29
ENDBRANCH  25  28
ENDBRANCH   3  24
TORSDOF 10
ENDMDL
MODEL 2
REMARK VINA RESULT:      -6.9     17.392     20.205
REMARK  Name = pdb/CHEMBL3975550.pdb
REMARK                            x       y       z     vdW  Elec       q    Type
REMARK                         _______ _______ _______ _____ _____    ______ ____
ROOT
ATOM      1  C   LIG    1      -34.001  73.199  28.899  0.00  0.00    +0.042 A 
ATOM      2  C   LIG    1      -35.067  73.110  28.002  0.00  0.00    +0.042 A 
ATOM      3  C   LIG    1      -35.851  71.971  27.843  0.00  0.00    +0.086 A 
ATOM      4  C   LIG    1      -35.489  70.869  28.614  0.00  0.00    +0.138 A 
ATOM      5  N   LIG    1      -34.458  70.869  29.504  0.00  0.00    -0.260 NA
ATOM      6  C   LIG    1      -33.740  72.017  29.611  0.00  0.00    +0.122 A 
ENDROOT
BRANCH   1   7
ATOM      7  C   LIG    1      -33.127  74.384  28.930  0.00  0.00    +0.197 C 
ATOM      8  O   LIG    1      -31.899  74.174  28.920  0.00  0.00    -0.287 OA
BRANCH   7  16
ATOM      9  N   LIG    1      -34.822  77.634  29.580  0.00  0.00    -0.338 N 
ATOM     10  C   LIG    1      -34.011  78.013  28.519  0.00  0.00    +0.053 A 
ATOM     11  C   LIG    1      -33.727  79.246  27.920  0.00  0.00    +0.046 A 
ATOM     12  C   LIG    1      -32.956  79.241  26.772  0.00  0.00    +0.113 A 
ATOM     13  N   LIG    1      -32.414  78.139  26.234  0.00  0.00    -0.263 NA
ATOM     14  C   LIG    1      -32.583  76.951  26.874  0.00  0.00    +0.121 A 
ATOM     15  C   LIG    1      -33.376  76.849  28.035  0.00  0.00    +0.029 A 
ATOM     16  C   LIG    1      -33.655  75.763  28.944  0.00  0.00    +0.049 A 
ATOM     17  C   LIG    1      -34.489  76.326  29.907  0.00  0.00    +0.099 A 
BRANCH   9  19
ATOM     18  C   LIG    1      -36.650  77.450  31.249  0.00  0.00    +0.036 C 
ATOM     19  C   LIG    1      -35.853  78.400  30.340  0.00  0.00    +0.063 C 
ATOM     20  C   LIG    1      -36.865  79.060  29.347  0.00  0.00    +0.036 C 
BRANCH  19  21
ATOM     21  C   LIG    1      -35.329  79.623  31.158  0.00  0.00    +0.183 C 
BRANCH  21  22
ATOM     22  O   LIG    1      -34.194  79.383  31.969  0.00  0.00    -0.393 OA
ATOM     23  H   LIG    1      -33.762  78.582  31.620  0.00  0.00    +0.209 HD
ENDBRANCH  21  22
ENDBRANCH  19  21
ENDBRANCH   9  19
ENDBRANCH   7  16
ENDBRANCH   1   7
BRANCH   3  24
ATOM     24  N   LIG    1      -36.943  71.872  26.968  0.00  0.00    -0.216 NA
ATOM     25  C   LIG    1      -36.883  71.581  25.712  0.00  0.00    +0.192 C 
BRANCH  25  26
ATOM     26  O   LIG    1      -35.738  71.268  25.066  0.00  0.00    -0.495 OA
ATOM     27  H   LIG    1      -35.375  70.403  25.302  0.00  0.00    +0.293 HD
ENDBRANCH  25  26
BRANCH  25  28
ATOM     28  C   LIG    1      -38.073  71.558  24.781  0.00  0.00    +0.130 C 
BRANCH  28  29
ATOM     29  C   LIG    1      -38.793  72.860  24.541  0.00  0.00    -0.038 A 
ATOM     30  C   LIG    1      -38.182  74.106  24.747  0.00  0.00    +0.016 A 
ATOM     31  C   LIG    1      -38.881  75.307  24.586  0.00  0.00    +0.055 A 
ATOM     32  C   LIG    1      -40.193  75.258  24.109  0.00  0.00    +0.012 A 
ATOM     33  C   LIG    1      -40.794  74.031  23.824  0.00  0.00    +0.001 A 
ATOM     34  C   LIG    1      -40.103  72.839  24.047  0.00  0.00    +0.004 A 
BRANCH  31  35
ATOM     35  C   LIG    1      -38.203  76.602  24.954  0.00  0.00    +0.417 C 
ATOM     36  F   LIG    1      -38.990  77.399  25.730  0.00  0.00    -0.166 F 
ATOM     37  F   LIG    1      -37.880  77.351  23.862  0.00  0.00    -0.166 F 
ATOM     38  F   LIG    1      -37.043  76.433  25.646  0.00  0.00    -0.166 F 
ENDBRANCH  31  35
ENDBRANCH  28  29
ENDBRANCH  25  28
ENDBRANCH   3  24
TORSDOF 10
ENDMDL
MODEL 3
REMARK VINA RESULT:      -6.6     16.296     19.863
REMARK  Name = pdb/CHEMBL3975550.pdb
REMARK                            x       y       z     vdW  Elec       q    Type
REMARK                         _______ _______ _______ _____ _____    ______ ____
ROOT
ATOM      1  C   LIG    1      -20.527  76.997  30.514  0.00  0.00    +0.042 A 
ATOM      2  C   LIG    1      -20.704  77.895  31.568  0.00  0.00    +0.042 A 
ATOM      3  C   LIG    1      -19.660  78.404  32.336  0.00  0.00    +0.086 A 
ATOM      4  C   LIG    1      -18.388  77.929  32.025  0.00  0.00    +0.138 A 
ATOM      5  N   LIG    1      -18.130  77.046  31.022  0.00  0.00    -0.260 NA
ATOM      6  C   LIG    1      -19.197  76.596  30.309  0.00  0.00    +0.122 A 
ENDROOT
BRANCH   1   7
ATOM      7  C   LIG    1      -21.679  76.395  29.823  0.00  0.00    +0.197 C 
ATOM      8  O   LIG    1      -21.645  76.391  28.577  0.00  0.00    -0.287 OA
BRANCH   7  16
ATOM      9  N   LIG    1      -24.080  74.303  31.751  0.00  0.00    -0.338 N 
ATOM     10  C   LIG    1      -24.834  75.462  31.637  0.00  0.00    +0.053 A 
ATOM     11  C   LIG    1      -26.056  75.869  32.185  0.00  0.00    +0.046 A 
ATOM     12  C   LIG    1      -26.592  77.065  31.744  0.00  0.00    +0.113 A 
ATOM     13  N   LIG    1      -25.986  77.886  30.874  0.00  0.00    -0.263 NA
ATOM     14  C   LIG    1      -24.744  77.559  30.427  0.00  0.00    +0.121 A 
ATOM     15  C   LIG    1      -24.126  76.347  30.797  0.00  0.00    +0.029 A 
ATOM     16  C   LIG    1      -22.817  75.793  30.547  0.00  0.00    +0.049 A 
ATOM     17  C   LIG    1      -22.826  74.573  31.217  0.00  0.00    +0.099 A 
BRANCH   9  19
ATOM     18  C   LIG    1      -24.300  73.050  33.884  0.00  0.00    +0.036 C 
ATOM     19  C   LIG    1      -24.413  72.977  32.352  0.00  0.00    +0.063 C 
ATOM     20  C   LIG    1      -23.395  71.899  31.856  0.00  0.00    +0.036 C 
BRANCH  19  21
ATOM     21  C   LIG    1      -25.788  72.366  31.936  0.00  0.00    +0.183 C 
BRANCH  21  22
ATOM     22  O   LIG    1      -25.829  71.748  30.663  0.00  0.00    -0.393 OA
ATOM     23  H   LIG    1      -24.909  71.701  30.341  0.00  0.00    +0.209 HD
ENDBRANCH  21  22
ENDBRANCH  19  21
ENDBRANCH   9  19
ENDBRANCH   7  16
ENDBRANCH   1   7
BRANCH   3  24
ATOM     24  N   LIG    1      -19.816  79.327  33.379  0.00  0.00    -0.216 NA
ATOM     25  C   LIG    1      -19.839  79.050  34.639  0.00  0.00    +0.192 C 
BRANCH  25  26
ATOM     26  O   LIG    1      -19.655  77.809  35.140  0.00  0.00    -0.495 OA
ATOM     27  H   LIG    1      -18.779  77.664  35.524  0.00  0.00    +0.293 HD
ENDBRANCH  25  26
BRANCH  25  28
ATOM     28  C   LIG    1      -20.086  80.062  35.734  0.00  0.00    +0.130 C 
BRANCH  28  29
ATOM     29  C   LIG    1      -21.493  80.575  35.903  0.00  0.00    -0.038 A 
ATOM     30  C   LIG    1      -22.612  79.732  35.838  0.00  0.00    +0.016 A 
ATOM     31  C   LIG    1      -23.917  80.229  35.929  0.00  0.00    +0.055 A 
ATOM     32  C   LIG    1      -24.098  81.589  36.193  0.00  0.00    +0.012 A 
ATOM     33  C   LIG    1      -22.995  82.431  36.338  0.00  0.00    +0.001 A 
ATOM     34  C   LIG    1      -21.700  81.930  36.185  0.00  0.00    +0.004 A 
BRANCH  31  35
ATOM     35  C   LIG    1      -25.075  79.287  35.715  0.00  0.00    +0.417 C 
ATOM     36  F   LIG    1      -25.285  79.012  34.398  0.00  0.00    -0.166 F 
ATOM     37  F   LIG    1      -26.251  79.793  36.181  0.00  0.00    -0.166 F 
ATOM     38  F   LIG    1      -24.918  78.082  36.329  0.00  0.00    -0.166 F 
ENDBRANCH  31  35
ENDBRANCH  28  29
ENDBRANCH  25  28
ENDBRANCH   3  24
TORSDOF 10
ENDMDL
MODEL 4
REMARK VINA RESULT:      -6.6     17.355     20.487
REMARK  Name = pdb/CHEMBL3975550.pdb
REMARK                            x       y       z     vdW  Elec       q    Type
REMARK                         _______ _______ _______ _____ _____    ______ ____
ROOT
ATOM      1  C   LIG    1      -34.446  71.452  28.155  0.00  0.00    +0.042 A 
ATOM      2  C   LIG    1      -35.336  71.427  27.081  0.00  0.00    +0.042 A 
ATOM      3  C   LIG    1      -35.365  70.417  26.122  0.00  0.00    +0.086 A 
ATOM      4  C   LIG    1      -34.406  69.417  26.261  0.00  0.00    +0.138 A 
ATOM      5  N   LIG    1      -33.495  69.373  27.273  0.00  0.00    -0.260 NA
ATOM      6  C   LIG    1      -33.529  70.388  28.175  0.00  0.00    +0.122 A 
ENDROOT
BRANCH   1   7
ATOM      7  C   LIG    1      -34.375  72.610  29.061  0.00  0.00    +0.197 C 
ATOM      8  O   LIG    1      -34.277  72.363  30.279  0.00  0.00    -0.287 OA
BRANCH   7  16
ATOM      9  N   LIG    1      -33.671  76.081  27.914  0.00  0.00    -0.338 N 
ATOM     10  C   LIG    1      -35.035  76.035  27.663  0.00  0.00    +0.053 A 
ATOM     11  C   LIG    1      -35.924  76.909  27.025  0.00  0.00    +0.046 A 
ATOM     12  C   LIG    1      -37.271  76.601  27.071  0.00  0.00    +0.113 A 
ATOM     13  N   LIG    1      -37.771  75.491  27.631  0.00  0.00    -0.263 NA
ATOM     14  C   LIG    1      -36.909  74.577  28.148  0.00  0.00    +0.121 A 
ATOM     15  C   LIG    1      -35.518  74.811  28.174  0.00  0.00    +0.029 A 
ATOM     16  C   LIG    1      -34.390  74.005  28.574  0.00  0.00    +0.049 A 
ATOM     17  C   LIG    1      -33.284  74.811  28.324  0.00  0.00    +0.099 A 
BRANCH   9  19
ATOM     18  C   LIG    1      -31.499  76.978  28.714  0.00  0.00    +0.036 C 
ATOM     19  C   LIG    1      -32.689  77.196  27.765  0.00  0.00    +0.063 C 
ATOM     20  C   LIG    1      -33.362  78.552  28.159  0.00  0.00    +0.036 C 
BRANCH  19  21
ATOM     21  C   LIG    1      -32.185  77.473  26.314  0.00  0.00    +0.183 C 
BRANCH  21  22
ATOM     22  O   LIG    1      -32.396  78.785  25.827  0.00  0.00    -0.393 OA
ATOM     23  H   LIG    1      -33.187  79.132  26.281  0.00  0.00    +0.209 HD
ENDBRANCH  21  22
ENDBRANCH  19  21
ENDBRANCH   9  19
ENDBRANCH   7  16
ENDBRANCH   1   7
BRANCH   3  24
ATOM     24  N   LIG    1      -36.270  70.361  25.053  0.00  0.00    -0.216 NA
ATOM     25  C   LIG    1      -37.499  69.973  25.121  0.00  0.00    +0.192 C 
BRANCH  25  26
ATOM     26  O   LIG    1      -38.113  69.614  26.269  0.00  0.00    -0.495 OA
ATOM     27  H   LIG    1      -38.702  68.852  26.180  0.00  0.00    +0.293 HD
ENDBRANCH  25  26
BRANCH  25  28
ATOM     28  C   LIG    1      -38.425  69.852  23.932  0.00  0.00    +0.130 C 
BRANCH  28  29
ATOM     29  C   LIG    1      -39.436  70.951  23.722  0.00  0.00    -0.038 A 
ATOM     30  C   LIG    1      -39.176  72.285  24.068  0.00  0.00    +0.016 A 
ATOM     31  C   LIG    1      -40.146  73.285  23.932  0.00  0.00    +0.055 A 
ATOM     32  C   LIG    1      -41.368  72.955  23.340  0.00  0.00    +0.012 A 
ATOM     33  C   LIG    1      -41.616  71.649  22.918  0.00  0.00    +0.001 A 
ATOM     34  C   LIG    1      -40.661  70.650  23.116  0.00  0.00    +0.004 A 
BRANCH  31  35
ATOM     35  C   LIG    1      -39.846  74.669  24.449  0.00  0.00    +0.417 C 
ATOM     36  F   LIG    1      -40.377  75.645  23.660  0.00  0.00    -0.166 F 
ATOM     37  F   LIG    1      -38.509  74.926  24.506  0.00  0.00    -0.166 F 
ATOM     38  F   LIG    1      -40.324  74.898  25.703  0.00  0.00    -0.166 F 
ENDBRANCH  31  35
ENDBRANCH  28  29
ENDBRANCH  25  28
ENDBRANCH   3  24
TORSDOF 10
ENDMDL
MODEL 5
REMARK VINA RESULT:      -6.4     17.724     20.469
REMARK  Name = pdb/CHEMBL3975550.pdb
REMARK                            x       y       z     vdW  Elec       q    Type
REMARK                         _______ _______ _______ _____ _____    ______ ____
ROOT
ATOM      1  C   LIG    1      -37.263  79.030  29.522  0.00  0.00    +0.042 A 
ATOM      2  C   LIG    1      -37.454  78.523  28.236  0.00  0.00    +0.042 A 
ATOM      3  C   LIG    1      -38.705  78.309  27.665  0.00  0.00    +0.086 A 
ATOM      4  C   LIG    1      -39.801  78.593  28.476  0.00  0.00    +0.138 A 
ATOM      5  N   LIG    1      -39.703  79.079  29.744  0.00  0.00    -0.260 NA
ATOM      6  C   LIG    1      -38.450  79.269  30.234  0.00  0.00    +0.122 A 
ENDROOT
BRANCH   1   7
ATOM      7  C   LIG    1      -35.920  79.112  30.119  0.00  0.00    +0.197 C 
ATOM      8  O   LIG    1      -35.783  79.889  31.084  0.00  0.00    -0.287 OA
BRANCH   7  16
ATOM      9  N   LIG    1      -33.232  76.620  29.464  0.00  0.00    -0.338 N 
ATOM     10  C   LIG    1      -33.052  77.441  28.360  0.00  0.00    +0.053 A 
ATOM     11  C   LIG    1      -32.247  77.348  27.217  0.00  0.00    +0.046 A 
ATOM     12  C   LIG    1      -32.218  78.435  26.363  0.00  0.00    +0.113 A 
ATOM     13  N   LIG    1      -32.956  79.542  26.527  0.00  0.00    -0.263 NA
ATOM     14  C   LIG    1      -33.830  79.594  27.567  0.00  0.00    +0.121 A 
ATOM     15  C   LIG    1      -33.913  78.549  28.509  0.00  0.00    +0.029 A 
ATOM     16  C   LIG    1      -34.783  78.304  29.635  0.00  0.00    +0.049 A 
ATOM     17  C   LIG    1      -34.362  77.075  30.135  0.00  0.00    +0.099 A 
BRANCH   9  19
ATOM     18  C   LIG    1      -32.856  74.195  29.090  0.00  0.00    +0.036 C 
ATOM     19  C   LIG    1      -32.468  75.425  29.928  0.00  0.00    +0.063 C 
ATOM     20  C   LIG    1      -32.823  75.111  31.417  0.00  0.00    +0.036 C 
BRANCH  19  21
ATOM     21  C   LIG    1      -30.915  75.584  29.973  0.00  0.00    +0.183 C 
BRANCH  21  22
ATOM     22  O   LIG    1      -30.436  76.865  30.336  0.00  0.00    -0.393 OA
ATOM     23  H   LIG    1      -30.070  77.270  29.528  0.00  0.00    +0.209 HD
ENDBRANCH  21  22
ENDBRANCH  19  21
ENDBRANCH   9  19
ENDBRANCH   7  16
ENDBRANCH   1   7
BRANCH   3  24
ATOM     24  N   LIG    1      -38.915  77.828  26.365  0.00  0.00    -0.216 NA
ATOM     25  C   LIG    1      -39.193  78.544  25.328  0.00  0.00    +0.192 C 
BRANCH  25  26
ATOM     26  O   LIG    1      -39.266  79.893  25.342  0.00  0.00    -0.495 OA
ATOM     27  H   LIG    1      -39.028  80.310  24.502  0.00  0.00    +0.293 HD
ENDBRANCH  25  26
BRANCH  25  28
ATOM     28  C   LIG    1      -39.489  77.984  23.955  0.00  0.00    +0.130 C 
BRANCH  28  29
ATOM     29  C   LIG    1      -40.065  76.593  23.880  0.00  0.00    -0.038 A 
ATOM     30  C   LIG    1      -39.377  75.469  24.362  0.00  0.00    +0.016 A 
ATOM     31  C   LIG    1      -39.891  74.175  24.226  0.00  0.00    +0.055 A 
ATOM     32  C   LIG    1      -41.170  74.017  23.686  0.00  0.00    +0.012 A 
ATOM     33  C   LIG    1      -41.902  75.130  23.271  0.00  0.00    +0.001 A 
ATOM     34  C   LIG    1      -41.350  76.409  23.358  0.00  0.00    +0.004 A 
BRANCH  31  35
ATOM     35  C   LIG    1      -39.041  73.003  24.643  0.00  0.00    +0.417 C 
ATOM     36  F   LIG    1      -39.311  72.589  25.913  0.00  0.00    -0.166 F 
ATOM     37  F   LIG    1      -37.709  73.292  24.624  0.00  0.00    -0.166 F 
ATOM     38  F   LIG    1      -39.195  71.906  23.851  0.00  0.00    -0.166 F 
ENDBRANCH  31  35
ENDBRANCH  28  29
ENDBRANCH  25  28
ENDBRANCH   3  24
TORSDOF 10
ENDMDL
MODEL 6
REMARK VINA RESULT:      -6.3     15.791     18.508
REMARK  Name = pdb/CHEMBL3975550.pdb
REMARK                            x       y       z     vdW  Elec       q    Type
REMARK                         _______ _______ _______ _____ _____    ______ ____
ROOT
ATOM      1  C   LIG    1      -26.521  76.544  32.078  0.00  0.00    +0.042 A 
ATOM      2  C   LIG    1      -27.820  76.333  31.612  0.00  0.00    +0.042 A 
ATOM      3  C   LIG    1      -28.676  75.359  32.119  0.00  0.00    +0.086 A 
ATOM      4  C   LIG    1      -28.149  74.546  33.119  0.00  0.00    +0.138 A 
ATOM      5  N   LIG    1      -26.890  74.678  33.622  0.00  0.00    -0.260 NA
ATOM      6  C   LIG    1      -26.113  75.653  33.084  0.00  0.00    +0.122 A 
ENDROOT
BRANCH   1   7
ATOM      7  C   LIG    1      -25.619  77.501  31.415  0.00  0.00    +0.197 C 
ATOM      8  O   LIG    1      -26.130  78.260  30.570  0.00  0.00    -0.287 OA
BRANCH   7  16
ATOM      9  N   LIG    1      -22.238  77.962  32.906  0.00  0.00    -0.338 N 
ATOM     10  C   LIG    1      -21.872  77.409  31.687  0.00  0.00    +0.053 A 
ATOM     11  C   LIG    1      -20.651  76.971  31.160  0.00  0.00    +0.046 A 
ATOM     12  C   LIG    1      -20.626  76.587  29.831  0.00  0.00    +0.113 A 
ATOM     13  N   LIG    1      -21.705  76.550  29.037  0.00  0.00    -0.263 NA
ATOM     14  C   LIG    1      -22.917  76.858  29.570  0.00  0.00    +0.121 A 
ATOM     15  C   LIG    1      -23.043  77.289  30.907  0.00  0.00    +0.029 A 
ATOM     16  C   LIG    1      -24.181  77.595  31.740  0.00  0.00    +0.049 A 
ATOM     17  C   LIG    1      -23.626  77.932  32.972  0.00  0.00    +0.099 A 
BRANCH   9  19
ATOM     18  C   LIG    1      -21.159  77.364  35.060  0.00  0.00    +0.036 C 
ATOM     19  C   LIG    1      -21.406  78.480  34.031  0.00  0.00    +0.063 C 
ATOM     20  C   LIG    1      -22.162  79.636  34.763  0.00  0.00    +0.036 C 
BRANCH  19  21
ATOM     21  C   LIG    1      -20.057  79.156  33.628  0.00  0.00    +0.183 C 
BRANCH  21  22
ATOM     22  O   LIG    1      -19.033  79.122  34.604  0.00  0.00    -0.393 OA
ATOM     23  H   LIG    1      -19.323  78.498  35.296  0.00  0.00    +0.209 HD
ENDBRANCH  21  22
ENDBRANCH  19  21
ENDBRANCH   9  19
ENDBRANCH   7  16
ENDBRANCH   1   7
BRANCH   3  24
ATOM     24  N   LIG    1      -29.992  75.151  31.683  0.00  0.00    -0.216 NA
ATOM     25  C   LIG    1      -31.008  75.897  31.960  0.00  0.00    +0.192 C 
BRANCH  25  26
ATOM     26  O   LIG    1      -30.931  77.039  32.678  0.00  0.00    -0.495 OA
ATOM     27  H   LIG    1      -30.408  76.961  33.488  0.00  0.00    +0.293 HD
ENDBRANCH  25  26
BRANCH  25  28
ATOM     28  C   LIG    1      -32.429  75.601  31.536  0.00  0.00    +0.130 C 
BRANCH  28  29
ATOM     29  C   LIG    1      -32.759  75.730  30.071  0.00  0.00    -0.038 A 
ATOM     30  C   LIG    1      -32.425  76.869  29.324  0.00  0.00    +0.016 A 
ATOM     31  C   LIG    1      -32.797  77.006  27.982  0.00  0.00    +0.055 A 
ATOM     32  C   LIG    1      -33.429  75.932  27.350  0.00  0.00    +0.012 A 
ATOM     33  C   LIG    1      -33.701  74.761  28.056  0.00  0.00    +0.001 A 
ATOM     34  C   LIG    1      -33.377  74.662  29.411  0.00  0.00    +0.004 A 
BRANCH  31  35
ATOM     35  C   LIG    1      -32.524  78.311  27.278  0.00  0.00    +0.417 C 
ATOM     36  F   LIG    1      -31.489  78.997  27.837  0.00  0.00    -0.166 F 
ATOM     37  F   LIG    1      -33.593  79.157  27.316  0.00  0.00    -0.166 F 
ATOM     38  F   LIG    1      -32.211  78.166  25.961  0.00  0.00    -0.166 F 
ENDBRANCH  31  35
ENDBRANCH  28  29
ENDBRANCH  25  28
ENDBRANCH   3  24
TORSDOF 10
ENDMDL
MODEL 7
REMARK VINA RESULT:      -6.3      5.087      6.998
REMARK  Name = pdb/CHEMBL3975550.pdb
REMARK                            x       y       z     vdW  Elec       q    Type
REMARK                         _______ _______ _______ _____ _____    ______ ____
ROOT
ATOM      1  C   LIG    1      -24.820  86.657  10.822  0.00  0.00    +0.042 A 
ATOM      2  C   LIG    1      -24.976  85.495  11.579  0.00  0.00    +0.042 A 
ATOM      3  C   LIG    1      -25.848  84.462  11.243  0.00  0.00    +0.086 A 
ATOM      4  C   LIG    1      -26.617  84.664  10.099  0.00  0.00    +0.138 A 
ATOM      5  N   LIG    1      -26.533  85.771   9.311  0.00  0.00    -0.260 NA
ATOM      6  C   LIG    1      -25.657  86.735   9.698  0.00  0.00    +0.122 A 
ENDROOT
BRANCH   1   7
ATOM      7  C   LIG    1      -23.980  87.770  11.297  0.00  0.00    +0.197 C 
ATOM      8  O   LIG    1      -24.494  88.905  11.282  0.00  0.00    -0.287 OA
BRANCH   7  16
ATOM      9  N   LIG    1      -20.323  87.327  11.839  0.00  0.00    -0.338 N 
ATOM     10  C   LIG    1      -20.742  87.372  13.161  0.00  0.00    +0.053 A 
ATOM     11  C   LIG    1      -20.060  87.413  14.383  0.00  0.00    +0.046 A 
ATOM     12  C   LIG    1      -20.809  87.314  15.541  0.00  0.00    +0.113 A 
ATOM     13  N   LIG    1      -22.148  87.246  15.568  0.00  0.00    -0.263 NA
ATOM     14  C   LIG    1      -22.828  87.326  14.394  0.00  0.00    +0.121 A 
ATOM     15  C   LIG    1      -22.153  87.399  13.158  0.00  0.00    +0.029 A 
ATOM     16  C   LIG    1      -22.605  87.572  11.798  0.00  0.00    +0.049 A 
ATOM     17  C   LIG    1      -21.434  87.591  11.046  0.00  0.00    +0.099 A 
BRANCH   9  19
ATOM     18  C   LIG    1      -19.021  87.283   9.725  0.00  0.00    +0.036 C 
ATOM     19  C   LIG    1      -18.970  87.100  11.251  0.00  0.00    +0.063 C 
ATOM     20  C   LIG    1      -18.507  85.634  11.534  0.00  0.00    +0.036 C 
BRANCH  19  21
ATOM     21  C   LIG    1      -17.810  87.948  11.862  0.00  0.00    +0.183 C 
BRANCH  21  22
ATOM     22  O   LIG    1      -16.938  87.261  12.740  0.00  0.00    -0.393 OA
ATOM     23  H   LIG    1      -16.591  86.492  12.250  0.00  0.00    +0.209 HD
ENDBRANCH  21  22
ENDBRANCH  19  21
ENDBRANCH   9  19
ENDBRANCH   7  16
ENDBRANCH   1   7
BRANCH   3  24
ATOM     24  N   LIG    1      -25.998  83.276  11.975  0.00  0.00    -0.216 NA
ATOM     25  C   LIG    1      -25.275  82.214  11.853  0.00  0.00    +0.192 C 
BRANCH  25  26
ATOM     26  O   LIG    1      -24.215  82.117  11.022  0.00  0.00    -0.495 OA
ATOM     27  H   LIG    1      -23.852  82.970  10.742  0.00  0.00    +0.293 HD
ENDBRANCH  25  26
BRANCH  25  28
ATOM     28  C   LIG    1      -25.514  80.925  12.605  0.00  0.00    +0.130 C 
BRANCH  28  29
ATOM     29  C   LIG    1      -24.727  80.703  13.872  0.00  0.00    -0.038 A 
ATOM     30  C   LIG    1      -24.036  81.739  14.517  0.00  0.00    +0.016 A 
ATOM     31  C   LIG    1      -23.254  81.508  15.655  0.00  0.00    +0.055 A 
ATOM     32  C   LIG    1      -23.250  80.228  16.214  0.00  0.00    +0.012 A 
ATOM     33  C   LIG    1      -23.993  79.202  15.630  0.00  0.00    +0.001 A 
ATOM     34  C   LIG    1      -24.720  79.434  14.462  0.00  0.00    +0.004 A 
BRANCH  31  35
ATOM     35  C   LIG    1      -22.431  82.639  16.218  0.00  0.00    +0.417 C 
ATOM     36  F   LIG    1      -22.742  83.839  15.654  0.00  0.00    -0.166 F 
ATOM     37  F   LIG    1      -21.095  82.465  16.008  0.00  0.00    -0.166 F 
ATOM     38  F   LIG    1      -22.579  82.805  17.561  0.00  0.00    -0.166 F 
ENDBRANCH  31  35
ENDBRANCH  28  29
ENDBRANCH  25  28
ENDBRANCH   3  24
TORSDOF 10
ENDMDL
MODEL 8
REMARK VINA RESULT:      -6.3     17.612     20.353
REMARK  Name = pdb/CHEMBL3975550.pdb
REMARK                            x       y       z     vdW  Elec       q    Type
REMARK                         _______ _______ _______ _____ _____    ______ ____
ROOT
ATOM      1  C   LIG    1      -34.593  71.476  28.820  0.00  0.00    +0.042 A 
ATOM      2  C   LIG    1      -35.778  71.598  28.093  0.00  0.00    +0.042 A 
ATOM      3  C   LIG    1      -36.103  70.798  27.000  0.00  0.00    +0.086 A 
ATOM      4  C   LIG    1      -35.141  69.864  26.623  0.00  0.00    +0.138 A 
ATOM      5  N   LIG    1      -33.956  69.688  27.271  0.00  0.00    -0.260 NA
ATOM      6  C   LIG    1      -33.710  70.500  28.332  0.00  0.00    +0.122 A 
ENDROOT
BRANCH   1   7
ATOM      7  C   LIG    1      -34.248  72.435  29.883  0.00  0.00    +0.197 C 
ATOM      8  O   LIG    1      -34.497  72.088  31.053  0.00  0.00    -0.287 OA
BRANCH   7  16
ATOM      9  N   LIG    1      -33.274  75.864  28.807  0.00  0.00    -0.338 N 
ATOM     10  C   LIG    1      -32.194  75.571  29.628  0.00  0.00    +0.053 A 
ATOM     11  C   LIG    1      -31.113  76.327  30.098  0.00  0.00    +0.046 A 
ATOM     12  C   LIG    1      -30.128  75.666  30.808  0.00  0.00    +0.113 A 
ATOM     13  N   LIG    1      -30.174  74.365  31.128  0.00  0.00    -0.263 NA
ATOM     14  C   LIG    1      -31.275  73.648  30.781  0.00  0.00    +0.121 A 
ATOM     15  C   LIG    1      -32.320  74.224  30.031  0.00  0.00    +0.029 A 
ATOM     16  C   LIG    1      -33.610  73.738  29.603  0.00  0.00    +0.049 A 
ATOM     17  C   LIG    1      -34.174  74.812  28.920  0.00  0.00    +0.099 A 
BRANCH   9  19
ATOM     18  C   LIG    1      -34.923  76.900  27.268  0.00  0.00    +0.036 C 
ATOM     19  C   LIG    1      -33.557  77.058  27.957  0.00  0.00    +0.063 C 
ATOM     20  C   LIG    1      -32.476  77.178  26.834  0.00  0.00    +0.036 C 
BRANCH  19  21
ATOM     21  C   LIG    1      -33.464  78.442  28.672  0.00  0.00    +0.183 C 
BRANCH  21  22
ATOM     22  O   LIG    1      -34.115  78.535  29.925  0.00  0.00    -0.393 OA
ATOM     23  H   LIG    1      -35.025  78.208  29.796  0.00  0.00    +0.209 HD
ENDBRANCH  21  22
ENDBRANCH  19  21
ENDBRANCH   9  19
ENDBRANCH   7  16
ENDBRANCH   1   7
BRANCH   3  24
ATOM     24  N   LIG    1      -37.300  70.887  26.276  0.00  0.00    -0.216 NA
ATOM     25  C   LIG    1      -37.419  71.297  25.058  0.00  0.00    +0.192 C 
BRANCH  25  26
ATOM     26  O   LIG    1      -36.375  71.651  24.277  0.00  0.00    -0.495 OA
ATOM     27  H   LIG    1      -36.237  71.071  23.516  0.00  0.00    +0.293 HD
ENDBRANCH  25  26
BRANCH  25  28
ATOM     28  C   LIG    1      -38.736  71.453  24.333  0.00  0.00    +0.130 C 
BRANCH  28  29
ATOM     29  C   LIG    1      -39.328  72.838  24.255  0.00  0.00    -0.038 A 
ATOM     30  C   LIG    1      -38.596  73.986  24.589  0.00  0.00    +0.016 A 
ATOM     31  C   LIG    1      -39.176  75.260  24.578  0.00  0.00    +0.055 A 
ATOM     32  C   LIG    1      -40.490  75.392  24.123  0.00  0.00    +0.012 A 
ATOM     33  C   LIG    1      -41.210  74.269  23.713  0.00  0.00    +0.001 A 
ATOM     34  C   LIG    1      -40.637  72.998  23.787  0.00  0.00    +0.004 A 
BRANCH  31  35
ATOM     35  C   LIG    1      -38.372  76.433  25.078  0.00  0.00    +0.417 C 
ATOM     36  F   LIG    1      -38.761  77.609  24.511  0.00  0.00    -0.166 F 
ATOM     37  F   LIG    1      -37.043  76.310  24.802  0.00  0.00    -0.166 F 
ATOM     38  F   LIG    1      -38.458  76.619  26.424  0.00  0.00    -0.166 F 
ENDBRANCH  31  35
ENDBRANCH  28  29
ENDBRANCH  25  28
ENDBRANCH   3  24
TORSDOF 10
ENDMDL
MODEL 9
REMARK VINA RESULT:      -6.2     16.368     18.674
REMARK  Name = pdb/CHEMBL3975550.pdb
REMARK                            x       y       z     vdW  Elec       q    Type
REMARK                         _______ _______ _______ _____ _____    ______ ____
ROOT
ATOM      1  C   LIG    1      -26.495  76.543  31.775  0.00  0.00    +0.042 A 
ATOM      2  C   LIG    1      -27.870  76.760  31.671  0.00  0.00    +0.042 A 
ATOM      3  C   LIG    1      -28.832  75.812  32.007  0.00  0.00    +0.086 A 
ATOM      4  C   LIG    1      -28.347  74.576  32.428  0.00  0.00    +0.138 A 
ATOM      5  N   LIG    1      -27.024  74.278  32.548  0.00  0.00    -0.260 NA
ATOM      6  C   LIG    1      -26.142  75.254  32.208  0.00  0.00    +0.122 A 
ENDROOT
BRANCH   1   7
ATOM      7  C   LIG    1      -25.526  77.535  31.283  0.00  0.00    +0.197 C 
ATOM      8  O   LIG    1      -25.905  78.276  30.355  0.00  0.00    -0.287 OA
BRANCH   7  16
ATOM      9  N   LIG    1      -21.895  77.589  32.105  0.00  0.00    -0.338 N 
ATOM     10  C   LIG    1      -22.381  78.302  33.191  0.00  0.00    +0.053 A 
ATOM     11  C   LIG    1      -21.763  79.004  34.233  0.00  0.00    +0.046 A 
ATOM     12  C   LIG    1      -22.569  79.497  35.243  0.00  0.00    +0.113 A 
ATOM     13  N   LIG    1      -23.906  79.400  35.255  0.00  0.00    -0.263 NA
ATOM     14  C   LIG    1      -24.527  78.826  34.190  0.00  0.00    +0.121 A 
ATOM     15  C   LIG    1      -23.791  78.268  33.124  0.00  0.00    +0.029 A 
ATOM     16  C   LIG    1      -24.175  77.684  31.861  0.00  0.00    +0.049 A 
ATOM     17  C   LIG    1      -22.967  77.354  31.253  0.00  0.00    +0.099 A 
BRANCH   9  19
ATOM     18  C   LIG    1      -19.528  78.316  31.926  0.00  0.00    +0.036 C 
ATOM     19  C   LIG    1      -20.510  77.142  31.773  0.00  0.00    +0.063 C 
ATOM     20  C   LIG    1      -20.448  76.669  30.284  0.00  0.00    +0.036 C 
BRANCH  19  21
ATOM     21  C   LIG    1      -19.990  75.893  32.551  0.00  0.00    +0.183 C 
BRANCH  21  22
ATOM     22  O   LIG    1      -20.473  74.641  32.101  0.00  0.00    -0.393 OA
ATOM     23  H   LIG    1      -20.087  73.962  32.686  0.00  0.00    +0.209 HD
ENDBRANCH  21  22
ENDBRANCH  19  21
ENDBRANCH   9  19
ENDBRANCH   7  16
ENDBRANCH   1   7
BRANCH   3  24
ATOM     24  N   LIG    1      -30.216  76.022  31.936  0.00  0.00    -0.216 NA
ATOM     25  C   LIG    1      -31.023  75.472  31.093  0.00  0.00    +0.192 C 
BRANCH  25  26
ATOM     26  O   LIG    1      -30.645  74.552  30.179  0.00  0.00    -0.495 OA
ATOM     27  H   LIG    1      -31.111  74.620  29.333  0.00  0.00    +0.293 HD
ENDBRANCH  25  26
BRANCH  25  28
ATOM     28  C   LIG    1      -32.500  75.780  30.994  0.00  0.00    +0.130 C 
BRANCH  28  29
ATOM     29  C   LIG    1      -33.044  76.150  29.638  0.00  0.00    -0.038 A 
ATOM     30  C   LIG    1      -32.537  77.225  28.893  0.00  0.00    +0.016 A 
ATOM     31  C   LIG    1      -33.095  77.601  27.666  0.00  0.00    +0.055 A 
ATOM     32  C   LIG    1      -34.118  76.817  27.129  0.00  0.00    +0.012 A 
ATOM     33  C   LIG    1      -34.585  75.698  27.819  0.00  0.00    +0.001 A 
ATOM     34  C   LIG    1      -34.058  75.371  29.070  0.00  0.00    +0.004 A 
BRANCH  31  35
ATOM     35  C   LIG    1      -32.589  78.847  26.985  0.00  0.00    +0.417 C 
ATOM     36  F   LIG    1      -32.246  78.626  25.685  0.00  0.00    -0.166 F 
ATOM     37  F   LIG    1      -31.472  79.351  27.583  0.00  0.00    -0.166 F 
ATOM     38  F   LIG    1      -33.493  79.865  26.967  0.00  0.00    -0.166 F 
ENDBRANCH  31  35
ENDBRANCH  28  29
ENDBRANCH  25  28
ENDBRANCH   3  24
TORSDOF 10
ENDMDL
