MODEL 1
REMARK VINA RESULT:      -7.8      0.000      0.000
REMARK  Name = pdb/CHEMBL1983268.pdb
REMARK                            x       y       z     vdW  Elec       q    Type
REMARK                         _______ _______ _______ _____ _____    ______ ____
ROOT
ATOM      1  C   LIG    1      -36.004  76.317  27.035  0.00  0.00    +0.248 C 
ATOM      2  N   LIG    1      -36.296  76.332  25.679  0.00  0.00    -0.284 N 
ATOM      3  H   LIG    1      -35.601  76.101  24.977  0.00  0.00    +0.151 HD
ATOM      4  O   LIG    1      -36.889  76.450  27.953  0.00  0.00    -0.270 OA
ENDROOT
BRANCH   2   5
ATOM      5  C   LIG    1      -37.615  76.353  25.251  0.00  0.00    +0.191 C 
ATOM      6  C   LIG    1      -38.431  75.203  24.973  0.00  0.00    +0.020 A 
ATOM      7  C   LIG    1      -38.333  73.804  25.127  0.00  0.00    +0.013 A 
ATOM      8  C   LIG    1      -39.321  72.922  24.670  0.00  0.00    -0.043 A 
ATOM      9  C   LIG    1      -40.458  73.489  24.091  0.00  0.00    +0.006 A 
ATOM     10  C   LIG    1      -40.593  74.884  23.906  0.00  0.00    +0.025 A 
ATOM     11  C   LIG    1      -39.572  75.716  24.386  0.00  0.00    +0.050 A 
ATOM     12  N   LIG    1      -39.387  77.074  24.384  0.00  0.00    -0.260 N 
ATOM     13  H   LIG    1      -39.984  77.775  23.960  0.00  0.00    +0.168 HD
ATOM     14  N   LIG    1      -38.271  77.479  25.039  0.00  0.00    -0.110 NA
BRANCH   8  15
ATOM     15  C   LIG    1      -39.133  71.428  24.880  0.00  0.00    +0.070 C 
BRANCH  15  16
ATOM     16  C   LIG    1      -38.914  70.548  23.654  0.00  0.00    -0.038 A 
ATOM     17  C   LIG    1      -37.667  69.970  23.350  0.00  0.00    +0.042 A 
ATOM     18  C   LIG    1      -37.535  69.072  22.277  0.00  0.00    +0.126 A 
ATOM     19  F   LIG    1      -36.330  68.566  21.978  0.00  0.00    -0.205 F 
ATOM     20  C   LIG    1      -38.616  68.727  21.482  0.00  0.00    +0.076 A 
ATOM     21  C   LIG    1      -39.823  69.362  21.722  0.00  0.00    +0.126 A 
ATOM     22  F   LIG    1      -40.840  69.155  20.874  0.00  0.00    -0.205 F 
ATOM     23  C   LIG    1      -39.984  70.250  22.794  0.00  0.00    +0.042 A 
ENDBRANCH  15  16
ENDBRANCH   8  15
ENDBRANCH   2   5
BRANCH   1  27
ATOM     24  C   LIG    1      -32.594  75.551  29.440  0.00  0.00    +0.032 A 
ATOM     25  C   LIG    1      -32.864  76.875  29.012  0.00  0.00    +0.046 A 
ATOM     26  C   LIG    1      -33.855  77.194  28.033  0.00  0.00    +0.041 A 
ATOM     27  C   LIG    1      -34.620  76.133  27.516  0.00  0.00    +0.058 A 
ATOM     28  C   LIG    1      -34.209  74.812  27.738  0.00  0.00    +0.017 A 
ATOM     29  C   LIG    1      -33.226  74.545  28.697  0.00  0.00    +0.024 A 
BRANCH  24  34
ATOM     30  C   LIG    1      -31.070  77.174  33.671  0.00  0.00    +0.105 C 
ATOM     31  N   LIG    1      -30.401  75.966  33.173  0.00  0.00    -0.302 NA
ATOM     32  C   LIG    1      -29.670  75.985  31.881  0.00  0.00    +0.103 C 
ATOM     33  C   LIG    1      -30.476  76.066  30.542  0.00  0.00    +0.120 C 
ATOM     34  N   LIG    1      -31.725  75.252  30.533  0.00  0.00    -0.327 N 
ATOM     35  C   LIG    1      -32.377  75.126  31.865  0.00  0.00    +0.120 C 
ATOM     36  C   LIG    1      -31.401  74.893  33.039  0.00  0.00    +0.103 C 
ENDBRANCH  24  34
BRANCH  26  37
ATOM     37  N   LIG    1      -33.909  78.531  27.581  0.00  0.00    -0.340 N 
ATOM     38  H   LIG    1      -33.194  78.669  26.864  0.00  0.00    +0.146 HD
BRANCH  37  39
ATOM     39  C   LIG    1      -34.063  79.738  28.434  0.00  0.00    +0.075 C 
ATOM     40  C   LIG    1      -34.674  79.533  29.835  0.00  0.00    +0.050 C 
ATOM     41  C   LIG    1      -36.163  79.288  29.900  0.00  0.00    +0.161 C 
ATOM     42  O   LIG    1      -36.905  80.134  29.039  0.00  0.00    -0.380 OA
ATOM     43  C   LIG    1      -36.377  80.139  27.713  0.00  0.00    +0.161 C 
ATOM     44  C   LIG    1      -34.985  80.747  27.748  0.00  0.00    +0.050 C 
ENDBRANCH  37  39
ENDBRANCH  26  37
ENDBRANCH   1  27
TORSDOF 7
ENDMDL
MODEL 2
REMARK VINA RESULT:      -7.5      0.936      2.051
REMARK  Name = pdb/CHEMBL1983268.pdb
REMARK                            x       y       z     vdW  Elec       q    Type
REMARK                         _______ _______ _______ _____ _____    ______ ____
ROOT
ATOM      1  C   LIG    1      -36.446  76.540  26.914  0.00  0.00    +0.248 C 
ATOM      2  N   LIG    1      -36.694  76.442  25.553  0.00  0.00    -0.284 N 
ATOM      3  H   LIG    1      -35.957  76.246  24.885  0.00  0.00    +0.151 HD
ATOM      4  O   LIG    1      -37.370  76.633  27.798  0.00  0.00    -0.270 OA
ENDROOT
BRANCH   2   5
ATOM      5  C   LIG    1      -37.994  76.295  25.091  0.00  0.00    +0.191 C 
ATOM      6  C   LIG    1      -38.655  75.050  24.813  0.00  0.00    +0.020 A 
ATOM      7  C   LIG    1      -38.392  73.677  24.995  0.00  0.00    +0.013 A 
ATOM      8  C   LIG    1      -39.252  72.674  24.529  0.00  0.00    -0.043 A 
ATOM      9  C   LIG    1      -40.433  73.088  23.910  0.00  0.00    +0.006 A 
ATOM     10  C   LIG    1      -40.732  74.453  23.696  0.00  0.00    +0.025 A 
ATOM     11  C   LIG    1      -39.834  75.411  24.187  0.00  0.00    +0.050 A 
ATOM     12  N   LIG    1      -39.815  76.781  24.164  0.00  0.00    -0.260 N 
ATOM     13  H   LIG    1      -40.481  77.397  23.712  0.00  0.00    +0.168 HD
ATOM     14  N   LIG    1      -38.776  77.330  24.841  0.00  0.00    -0.110 NA
BRANCH   8  15
ATOM     15  C   LIG    1      -38.889  71.217  24.772  0.00  0.00    +0.070 C 
BRANCH  15  16
ATOM     16  C   LIG    1      -38.768  70.291  23.566  0.00  0.00    -0.038 A 
ATOM     17  C   LIG    1      -39.855  70.003  22.720  0.00  0.00    +0.042 A 
ATOM     18  C   LIG    1      -39.674  69.239  21.554  0.00  0.00    +0.126 A 
ATOM     19  F   LIG    1      -40.731  68.942  20.784  0.00  0.00    -0.205 F 
ATOM     20  C   LIG    1      -38.432  68.741  21.199  0.00  0.00    +0.076 A 
ATOM     21  C   LIG    1      -37.379  68.944  22.074  0.00  0.00    +0.126 A 
ATOM     22  F   LIG    1      -36.207  68.345  21.825  0.00  0.00    -0.205 F 
ATOM     23  C   LIG    1      -37.530  69.715  23.235  0.00  0.00    +0.042 A 
ENDBRANCH  15  16
ENDBRANCH   8  15
ENDBRANCH   2   5
BRANCH   1  27
ATOM     24  C   LIG    1      -33.043  76.159  29.417  0.00  0.00    +0.032 A 
ATOM     25  C   LIG    1      -33.491  77.450  29.038  0.00  0.00    +0.046 A 
ATOM     26  C   LIG    1      -34.484  77.670  28.036  0.00  0.00    +0.041 A 
ATOM     27  C   LIG    1      -35.067  76.536  27.441  0.00  0.00    +0.058 A 
ATOM     28  C   LIG    1      -34.473  75.280  27.619  0.00  0.00    +0.017 A 
ATOM     29  C   LIG    1      -33.494  75.111  28.604  0.00  0.00    +0.024 A 
BRANCH  24  34
ATOM     30  C   LIG    1      -29.971  73.014  31.297  0.00  0.00    +0.105 C 
ATOM     31  N   LIG    1      -30.273  74.186  32.129  0.00  0.00    -0.302 NA
ATOM     32  C   LIG    1      -31.665  74.463  32.566  0.00  0.00    +0.103 C 
ATOM     33  C   LIG    1      -32.716  74.961  31.520  0.00  0.00    +0.120 C 
ATOM     34  N   LIG    1      -32.175  75.934  30.529  0.00  0.00    -0.327 N 
ATOM     35  C   LIG    1      -30.738  75.729  30.200  0.00  0.00    +0.120 C 
ATOM     36  C   LIG    1      -29.842  75.397  31.412  0.00  0.00    +0.103 C 
ENDBRANCH  24  34
BRANCH  26  37
ATOM     37  N   LIG    1      -34.721  79.006  27.644  0.00  0.00    -0.340 N 
ATOM     38  H   LIG    1      -33.855  79.539  27.742  0.00  0.00    +0.146 HD
BRANCH  37  39
ATOM     39  C   LIG    1      -35.908  79.826  27.999  0.00  0.00    +0.075 C 
ATOM     40  C   LIG    1      -35.826  81.339  27.711  0.00  0.00    +0.050 C 
ATOM     41  C   LIG    1      -34.967  82.165  28.639  0.00  0.00    +0.161 C 
ATOM     42  O   LIG    1      -35.133  81.822  30.004  0.00  0.00    -0.380 OA
ATOM     43  C   LIG    1      -35.027  80.414  30.215  0.00  0.00    +0.161 C 
ATOM     44  C   LIG    1      -36.179  79.728  29.501  0.00  0.00    +0.050 C 
ENDBRANCH  37  39
ENDBRANCH  26  37
ENDBRANCH   1  27
TORSDOF 7
ENDMDL
MODEL 3
REMARK VINA RESULT:      -7.4      3.660      9.978
REMARK  Name = pdb/CHEMBL1983268.pdb
REMARK                            x       y       z     vdW  Elec       q    Type
REMARK                         _______ _______ _______ _____ _____    ______ ____
ROOT
ATOM      1  C   LIG    1      -37.544  75.039  26.272  0.00  0.00    +0.248 C 
ATOM      2  N   LIG    1      -36.410  75.803  26.041  0.00  0.00    -0.284 N 
ATOM      3  H   LIG    1      -36.113  76.055  25.105  0.00  0.00    +0.151 HD
ATOM      4  O   LIG    1      -38.034  74.832  27.439  0.00  0.00    -0.270 OA
ENDROOT
BRANCH   2   5
ATOM      5  C   LIG    1      -35.823  76.511  27.080  0.00  0.00    +0.191 C 
ATOM      6  C   LIG    1      -34.810  76.017  27.970  0.00  0.00    +0.020 A 
ATOM      7  C   LIG    1      -33.997  74.869  28.078  0.00  0.00    +0.013 A 
ATOM      8  C   LIG    1      -33.123  74.659  29.152  0.00  0.00    -0.043 A 
ATOM      9  C   LIG    1      -33.040  75.672  30.110  0.00  0.00    +0.006 A 
ATOM     10  C   LIG    1      -33.844  76.833  30.049  0.00  0.00    +0.025 A 
ATOM     11  C   LIG    1      -34.698  76.988  28.948  0.00  0.00    +0.050 A 
ATOM     12  N   LIG    1      -35.584  77.965  28.576  0.00  0.00    -0.260 N 
ATOM     13  H   LIG    1      -35.833  78.799  29.096  0.00  0.00    +0.168 HD
ATOM     14  N   LIG    1      -36.163  77.754  27.368  0.00  0.00    -0.110 NA
BRANCH   8  15
ATOM     15  C   LIG    1      -32.283  73.392  29.185  0.00  0.00    +0.070 C 
BRANCH  15  16
ATOM     16  C   LIG    1      -32.970  72.078  29.544  0.00  0.00    -0.038 A 
ATOM     17  C   LIG    1      -34.177  72.027  30.265  0.00  0.00    +0.042 A 
ATOM     18  C   LIG    1      -34.837  70.803  30.474  0.00  0.00    +0.126 A 
ATOM     19  F   LIG    1      -35.964  70.772  31.199  0.00  0.00    -0.205 F 
ATOM     20  C   LIG    1      -34.325  69.611  29.987  0.00  0.00    +0.076 A 
ATOM     21  C   LIG    1      -33.093  69.645  29.358  0.00  0.00    +0.126 A 
ATOM     22  F   LIG    1      -32.513  68.488  29.012  0.00  0.00    -0.205 F 
ATOM     23  C   LIG    1      -32.423  70.854  29.123  0.00  0.00    +0.042 A 
ENDBRANCH  15  16
ENDBRANCH   8  15
ENDBRANCH   2   5
BRANCH   1  27
ATOM     24  C   LIG    1      -40.514  73.153  23.901  0.00  0.00    +0.032 A 
ATOM     25  C   LIG    1      -39.368  72.420  24.300  0.00  0.00    +0.046 A 
ATOM     26  C   LIG    1      -38.225  73.023  24.909  0.00  0.00    +0.041 A 
ATOM     27  C   LIG    1      -38.280  74.407  25.159  0.00  0.00    +0.058 A 
ATOM     28  C   LIG    1      -39.283  75.179  24.559  0.00  0.00    +0.017 A 
ATOM     29  C   LIG    1      -40.378  74.547  23.961  0.00  0.00    +0.024 A 
BRANCH  24  34
ATOM     30  C   LIG    1      -42.626  71.273  20.046  0.00  0.00    +0.105 C 
ATOM     31  N   LIG    1      -43.463  71.371  21.248  0.00  0.00    -0.302 NA
ATOM     32  C   LIG    1      -43.734  72.690  21.875  0.00  0.00    +0.103 C 
ATOM     33  C   LIG    1      -42.587  73.429  22.640  0.00  0.00    +0.120 C 
ATOM     34  N   LIG    1      -41.715  72.528  23.447  0.00  0.00    -0.327 N 
ATOM     35  C   LIG    1      -41.561  71.162  22.878  0.00  0.00    +0.120 C 
ATOM     36  C   LIG    1      -42.861  70.551  22.312  0.00  0.00    +0.103 C 
ENDBRANCH  24  34
BRANCH  26  37
ATOM     37  N   LIG    1      -37.092  72.205  25.108  0.00  0.00    -0.340 N 
ATOM     38  H   LIG    1      -36.893  71.697  24.244  0.00  0.00    +0.146 HD
BRANCH  37  39
ATOM     39  C   LIG    1      -36.813  71.370  26.306  0.00  0.00    +0.075 C 
ATOM     40  C   LIG    1      -35.340  71.244  26.744  0.00  0.00    +0.050 C 
ATOM     41  C   LIG    1      -34.454  70.352  25.907  0.00  0.00    +0.161 C 
ATOM     42  O   LIG    1      -35.078  69.135  25.539  0.00  0.00    -0.380 OA
ATOM     43  C   LIG    1      -36.375  69.348  24.983  0.00  0.00    +0.161 C 
ATOM     44  C   LIG    1      -37.274  69.934  26.059  0.00  0.00    +0.050 C 
ENDBRANCH  37  39
ENDBRANCH  26  37
ENDBRANCH   1  27
TORSDOF 7
ENDMDL
MODEL 4
REMARK VINA RESULT:      -7.4     18.359     20.581
REMARK  Name = pdb/CHEMBL1983268.pdb
REMARK                            x       y       z     vdW  Elec       q    Type
REMARK                         _______ _______ _______ _____ _____    ______ ____
ROOT
ATOM      1  C   LIG    1      -20.326  80.772  15.207  0.00  0.00    +0.248 C 
ATOM      2  N   LIG    1      -19.260  80.110  14.618  0.00  0.00    -0.284 N 
ATOM      3  H   LIG    1      -18.877  80.397  13.724  0.00  0.00    +0.151 HD
ATOM      4  O   LIG    1      -20.735  80.538  16.400  0.00  0.00    -0.270 OA
ENDROOT
BRANCH   2   5
ATOM      5  C   LIG    1      -18.480  79.240  15.367  0.00  0.00    +0.191 C 
ATOM      6  C   LIG    1      -18.819  77.886  15.709  0.00  0.00    +0.020 A 
ATOM      7  C   LIG    1      -19.825  76.956  15.376  0.00  0.00    +0.013 A 
ATOM      8  C   LIG    1      -19.908  75.688  15.966  0.00  0.00    -0.043 A 
ATOM      9  C   LIG    1      -18.906  75.345  16.875  0.00  0.00    +0.006 A 
ATOM     10  C   LIG    1      -17.885  76.249  17.247  0.00  0.00    +0.025 A 
ATOM     11  C   LIG    1      -17.854  77.504  16.622  0.00  0.00    +0.050 A 
ATOM     12  N   LIG    1      -17.024  78.589  16.733  0.00  0.00    -0.260 N 
ATOM     13  H   LIG    1      -16.246  78.704  17.372  0.00  0.00    +0.168 HD
ATOM     14  N   LIG    1      -17.309  79.592  15.866  0.00  0.00    -0.110 NA
BRANCH   8  15
ATOM     15  C   LIG    1      -21.027  74.749  15.545  0.00  0.00    +0.070 C 
BRANCH  15  16
ATOM     16  C   LIG    1      -21.374  73.580  16.461  0.00  0.00    -0.038 A 
ATOM     17  C   LIG    1      -22.066  73.749  17.675  0.00  0.00    +0.042 A 
ATOM     18  C   LIG    1      -22.468  72.635  18.433  0.00  0.00    +0.126 A 
ATOM     19  F   LIG    1      -23.089  72.820  19.606  0.00  0.00    -0.205 F 
ATOM     20  C   LIG    1      -22.195  71.341  18.021  0.00  0.00    +0.076 A 
ATOM     21  C   LIG    1      -21.436  71.173  16.876  0.00  0.00    +0.126 A 
ATOM     22  F   LIG    1      -21.036  69.939  16.542  0.00  0.00    -0.205 F 
ATOM     23  C   LIG    1      -21.036  72.266  16.094  0.00  0.00    +0.042 A 
ENDBRANCH  15  16
ENDBRANCH   8  15
ENDBRANCH   2   5
BRANCH   1  27
ATOM     24  C   LIG    1      -22.117  84.441  14.053  0.00  0.00    +0.032 A 
ATOM     25  C   LIG    1      -22.937  83.364  14.473  0.00  0.00    +0.046 A 
ATOM     26  C   LIG    1      -22.447  82.037  14.672  0.00  0.00    +0.041 A 
ATOM     27  C   LIG    1      -21.070  81.821  14.481  0.00  0.00    +0.058 A 
ATOM     28  C   LIG    1      -20.299  82.797  13.836  0.00  0.00    +0.017 A 
ATOM     29  C   LIG    1      -20.824  84.081  13.650  0.00  0.00    +0.024 A 
BRANCH  24  34
ATOM     30  C   LIG    1      -20.718  88.922  13.145  0.00  0.00    +0.105 C 
ATOM     31  N   LIG    1      -22.083  88.773  13.666  0.00  0.00    -0.302 NA
ATOM     32  C   LIG    1      -22.320  88.151  14.993  0.00  0.00    +0.103 C 
ATOM     33  C   LIG    1      -22.107  86.612  15.172  0.00  0.00    +0.120 C 
ATOM     34  N   LIG    1      -22.572  85.794  14.015  0.00  0.00    -0.327 N 
ATOM     35  C   LIG    1      -22.455  86.482  12.700  0.00  0.00    +0.120 C 
ATOM     36  C   LIG    1      -22.867  87.969  12.714  0.00  0.00    +0.103 C 
ENDBRANCH  24  34
BRANCH  26  37
ATOM     37  N   LIG    1      -23.399  81.028  14.934  0.00  0.00    -0.340 N 
ATOM     38  H   LIG    1      -23.136  80.536  15.790  0.00  0.00    +0.146 HD
BRANCH  37  39
ATOM     39  C   LIG    1      -23.991  80.100  13.934  0.00  0.00    +0.075 C 
ATOM     40  C   LIG    1      -25.492  79.781  14.077  0.00  0.00    +0.050 C 
ATOM     41  C   LIG    1      -25.887  78.843  15.193  0.00  0.00    +0.161 C 
ATOM     42  O   LIG    1      -25.022  77.728  15.316  0.00  0.00    -0.380 OA
ATOM     43  C   LIG    1      -23.650  78.120  15.347  0.00  0.00    +0.161 C 
ATOM     44  C   LIG    1      -23.293  78.742  14.007  0.00  0.00    +0.050 C 
ENDBRANCH  37  39
ENDBRANCH  26  37
ENDBRANCH   1  27
TORSDOF 7
ENDMDL
MODEL 5
REMARK VINA RESULT:      -7.3      6.655     10.844
REMARK  Name = pdb/CHEMBL1983268.pdb
REMARK                            x       y       z     vdW  Elec       q    Type
REMARK                         _______ _______ _______ _____ _____    ______ ____
ROOT
ATOM      1  C   LIG    1      -39.159  68.917  21.640  0.00  0.00    +0.248 C 
ATOM      2  N   LIG    1      -40.153  69.318  20.761  0.00  0.00    -0.284 N 
ATOM      3  H   LIG    1      -40.013  69.320  19.757  0.00  0.00    +0.151 HD
ATOM      4  O   LIG    1      -39.347  68.755  22.898  0.00  0.00    -0.270 OA
ENDROOT
BRANCH   2   5
ATOM      5  C   LIG    1      -41.465  69.428  21.197  0.00  0.00    +0.191 C 
ATOM      6  C   LIG    1      -42.040  70.562  21.865  0.00  0.00    +0.020 A 
ATOM      7  C   LIG    1      -41.654  71.881  22.183  0.00  0.00    +0.013 A 
ATOM      8  C   LIG    1      -42.459  72.745  22.937  0.00  0.00    -0.043 A 
ATOM      9  C   LIG    1      -43.711  72.265  23.328  0.00  0.00    +0.006 A 
ATOM     10  C   LIG    1      -44.134  70.947  23.043  0.00  0.00    +0.025 A 
ATOM     11  C   LIG    1      -43.285  70.130  22.283  0.00  0.00    +0.050 A 
ATOM     12  N   LIG    1      -43.381  68.840  21.828  0.00  0.00    -0.260 N 
ATOM     13  H   LIG    1      -44.125  68.177  22.013  0.00  0.00    +0.168 HD
ATOM     14  N   LIG    1      -42.345  68.455  21.042  0.00  0.00    -0.110 NA
BRANCH   8  15
ATOM     15  C   LIG    1      -41.962  74.152  23.229  0.00  0.00    +0.070 C 
BRANCH  15  16
ATOM     16  C   LIG    1      -40.607  74.313  23.909  0.00  0.00    -0.038 A 
ATOM     17  C   LIG    1      -39.807  73.214  24.274  0.00  0.00    +0.042 A 
ATOM     18  C   LIG    1      -38.515  73.408  24.792  0.00  0.00    +0.126 A 
ATOM     19  F   LIG    1      -37.786  72.349  25.172  0.00  0.00    -0.205 F 
ATOM     20  C   LIG    1      -37.986  74.676  24.967  0.00  0.00    +0.076 A 
ATOM     21  C   LIG    1      -38.803  75.760  24.696  0.00  0.00    +0.126 A 
ATOM     22  F   LIG    1      -38.365  76.990  24.998  0.00  0.00    -0.205 F 
ATOM     23  C   LIG    1      -40.089  75.594  24.164  0.00  0.00    +0.042 A 
ENDBRANCH  15  16
ENDBRANCH   8  15
ENDBRANCH   2   5
BRANCH   1  27
ATOM     24  C   LIG    1      -35.649  67.004  20.220  0.00  0.00    +0.032 A 
ATOM     25  C   LIG    1      -35.692  67.485  21.553  0.00  0.00    +0.046 A 
ATOM     26  C   LIG    1      -36.736  68.325  22.048  0.00  0.00    +0.041 A 
ATOM     27  C   LIG    1      -37.788  68.638  21.168  0.00  0.00    +0.058 A 
ATOM     28  C   LIG    1      -37.642  68.383  19.798  0.00  0.00    +0.017 A 
ATOM     29  C   LIG    1      -36.597  67.566  19.354  0.00  0.00    +0.024 A 
BRANCH  24  34
ATOM     30  C   LIG    1      -31.857  66.396  17.371  0.00  0.00    +0.105 C 
ATOM     31  N   LIG    1      -32.372  65.181  18.015  0.00  0.00    -0.302 NA
ATOM     32  C   LIG    1      -33.766  64.731  17.773  0.00  0.00    +0.103 C 
ATOM     33  C   LIG    1      -34.955  65.538  18.393  0.00  0.00    +0.120 C 
ATOM     34  N   LIG    1      -34.698  66.036  19.775  0.00  0.00    -0.327 N 
ATOM     35  C   LIG    1      -33.269  66.356  20.049  0.00  0.00    +0.120 C 
ATOM     36  C   LIG    1      -32.262  65.337  19.475  0.00  0.00    +0.103 C 
ENDBRANCH  24  34
BRANCH  26  37
ATOM     37  N   LIG    1      -36.573  68.862  23.344  0.00  0.00    -0.340 N 
ATOM     38  H   LIG    1      -36.069  69.748  23.275  0.00  0.00    +0.146 HD
BRANCH  37  39
ATOM     39  C   LIG    1      -36.181  68.107  24.563  0.00  0.00    +0.075 C 
ATOM     40  C   LIG    1      -37.208  68.048  25.711  0.00  0.00    +0.050 C 
ATOM     41  C   LIG    1      -37.382  69.302  26.535  0.00  0.00    +0.161 C 
ATOM     42  O   LIG    1      -36.155  69.931  26.858  0.00  0.00    -0.380 OA
ATOM     43  C   LIG    1      -35.326  70.104  25.709  0.00  0.00    +0.161 C 
ATOM     44  C   LIG    1      -34.933  68.733  25.184  0.00  0.00    +0.050 C 
ENDBRANCH  37  39
ENDBRANCH  26  37
ENDBRANCH   1  27
TORSDOF 7
ENDMDL
MODEL 6
REMARK VINA RESULT:      -7.2      4.634     10.578
REMARK  Name = pdb/CHEMBL1983268.pdb
REMARK                            x       y       z     vdW  Elec       q    Type
REMARK                         _______ _______ _______ _____ _____    ______ ____
ROOT
ATOM      1  C   LIG    1      -37.622  71.621  25.206  0.00  0.00    +0.248 C 
ATOM      2  N   LIG    1      -36.320  71.374  24.797  0.00  0.00    -0.284 N 
ATOM      3  H   LIG    1      -35.834  71.986  24.151  0.00  0.00    +0.151 HD
ATOM      4  O   LIG    1      -38.212  70.960  26.134  0.00  0.00    -0.270 OA
ENDROOT
BRANCH   2   5
ATOM      5  C   LIG    1      -35.532  70.467  25.491  0.00  0.00    +0.191 C 
ATOM      6  C   LIG    1      -34.805  70.734  26.701  0.00  0.00    +0.020 A 
ATOM      7  C   LIG    1      -34.703  71.785  27.636  0.00  0.00    +0.013 A 
ATOM      8  C   LIG    1      -33.810  71.755  28.714  0.00  0.00    -0.043 A 
ATOM      9  C   LIG    1      -33.041  70.599  28.869  0.00  0.00    +0.006 A 
ATOM     10  C   LIG    1      -33.102  69.527  27.950  0.00  0.00    +0.025 A 
ATOM     11  C   LIG    1      -34.017  69.614  26.891  0.00  0.00    +0.050 A 
ATOM     12  N   LIG    1      -34.336  68.779  25.853  0.00  0.00    -0.260 N 
ATOM     13  H   LIG    1      -33.900  67.894  25.620  0.00  0.00    +0.168 HD
ATOM     14  N   LIG    1      -35.360  69.223  25.082  0.00  0.00    -0.110 NA
BRANCH   8  15
ATOM     15  C   LIG    1      -33.769  72.933  29.675  0.00  0.00    +0.070 C 
BRANCH  15  16
ATOM     16  C   LIG    1      -33.149  74.239  29.191  0.00  0.00    -0.038 A 
ATOM     17  C   LIG    1      -33.720  75.015  28.165  0.00  0.00    +0.042 A 
ATOM     18  C   LIG    1      -33.181  76.269  27.829  0.00  0.00    +0.126 A 
ATOM     19  F   LIG    1      -33.716  76.972  26.820  0.00  0.00    -0.205 F 
ATOM     20  C   LIG    1      -32.075  76.783  28.485  0.00  0.00    +0.076 A 
ATOM     21  C   LIG    1      -31.456  75.985  29.431  0.00  0.00    +0.126 A 
ATOM     22  F   LIG    1      -30.301  76.399  29.970  0.00  0.00    -0.205 F 
ATOM     23  C   LIG    1      -31.982  74.737  29.795  0.00  0.00    +0.042 A 
ENDBRANCH  15  16
ENDBRANCH   8  15
ENDBRANCH   2   5
BRANCH   1  27
ATOM     24  C   LIG    1      -40.263  74.877  24.562  0.00  0.00    +0.032 A 
ATOM     25  C   LIG    1      -40.634  73.580  24.126  0.00  0.00    +0.046 A 
ATOM     26  C   LIG    1      -39.730  72.474  24.104  0.00  0.00    +0.041 A 
ATOM     27  C   LIG    1      -38.427  72.693  24.587  0.00  0.00    +0.058 A 
ATOM     28  C   LIG    1      -37.974  74.004  24.787  0.00  0.00    +0.017 A 
ATOM     29  C   LIG    1      -38.892  75.060  24.787  0.00  0.00    +0.024 A 
BRANCH  24  34
ATOM     30  C   LIG    1      -40.872  79.588  24.021  0.00  0.00    +0.105 C 
ATOM     31  N   LIG    1      -41.971  78.875  24.683  0.00  0.00    -0.302 NA
ATOM     32  C   LIG    1      -41.737  78.133  25.947  0.00  0.00    +0.103 C 
ATOM     33  C   LIG    1      -40.918  76.800  25.918  0.00  0.00    +0.120 C 
ATOM     34  N   LIG    1      -41.206  75.935  24.738  0.00  0.00    -0.327 N 
ATOM     35  C   LIG    1      -41.574  76.689  23.508  0.00  0.00    +0.120 C 
ATOM     36  C   LIG    1      -42.523  77.883  23.746  0.00  0.00    +0.103 C 
ENDBRANCH  24  34
BRANCH  26  37
ATOM     37  N   LIG    1      -40.182  71.282  23.497  0.00  0.00    -0.340 N 
ATOM     38  H   LIG    1      -39.612  71.093  22.670  0.00  0.00    +0.146 HD
BRANCH  37  39
ATOM     39  C   LIG    1      -41.600  70.893  23.280  0.00  0.00    +0.075 C 
ATOM     40  C   LIG    1      -42.031  69.503  23.791  0.00  0.00    +0.050 C 
ATOM     41  C   LIG    1      -41.572  68.309  22.989  0.00  0.00    +0.161 C 
ATOM     42  O   LIG    1      -41.692  68.498  21.590  0.00  0.00    -0.380 OA
ATOM     43  C   LIG    1      -41.116  69.734  21.169  0.00  0.00    +0.161 C 
ATOM     44  C   LIG    1      -41.912  70.874  21.783  0.00  0.00    +0.050 C 
ENDBRANCH  37  39
ENDBRANCH  26  37
ENDBRANCH   1  27
TORSDOF 7
ENDMDL
MODEL 7
REMARK VINA RESULT:      -7.1      5.138      7.924
REMARK  Name = pdb/CHEMBL1983268.pdb
REMARK                            x       y       z     vdW  Elec       q    Type
REMARK                         _______ _______ _______ _____ _____    ______ ____
ROOT
ATOM      1  C   LIG    1      -36.684  83.943  26.381  0.00  0.00    +0.248 C 
ATOM      2  N   LIG    1      -38.022  84.118  26.062  0.00  0.00    -0.284 N 
ATOM      3  H   LIG    1      -38.603  84.799  26.538  0.00  0.00    +0.151 HD
ATOM      4  O   LIG    1      -35.883  83.207  25.702  0.00  0.00    -0.270 OA
ENDROOT
BRANCH   2   5
ATOM      5  C   LIG    1      -38.529  83.601  24.879  0.00  0.00    +0.191 C 
ATOM      6  C   LIG    1      -39.030  82.268  24.687  0.00  0.00    +0.020 A 
ATOM      7  C   LIG    1      -39.321  81.147  25.491  0.00  0.00    +0.013 A 
ATOM      8  C   LIG    1      -39.749  79.924  24.959  0.00  0.00    -0.043 A 
ATOM      9  C   LIG    1      -39.935  79.865  23.576  0.00  0.00    +0.006 A 
ATOM     10  C   LIG    1      -39.644  80.959  22.731  0.00  0.00    +0.025 A 
ATOM     11  C   LIG    1      -39.221  82.158  23.322  0.00  0.00    +0.050 A 
ATOM     12  N   LIG    1      -38.872  83.383  22.817  0.00  0.00    -0.260 N 
ATOM     13  H   LIG    1      -38.810  83.651  21.842  0.00  0.00    +0.168 HD
ATOM     14  N   LIG    1      -38.593  84.311  23.767  0.00  0.00    -0.110 NA
BRANCH   8  15
ATOM     15  C   LIG    1      -40.042  78.768  25.903  0.00  0.00    +0.070 C 
BRANCH  15  16
ATOM     16  C   LIG    1      -39.334  77.440  25.661  0.00  0.00    -0.038 A 
ATOM     17  C   LIG    1      -39.904  76.407  24.893  0.00  0.00    +0.042 A 
ATOM     18  C   LIG    1      -39.170  75.245  24.598  0.00  0.00    +0.126 A 
ATOM     19  F   LIG    1      -39.746  74.255  23.900  0.00  0.00    -0.205 F 
ATOM     20  C   LIG    1      -37.873  75.071  25.050  0.00  0.00    +0.076 A 
ATOM     21  C   LIG    1      -37.342  76.043  25.880  0.00  0.00    +0.126 A 
ATOM     22  F   LIG    1      -36.148  75.825  26.448  0.00  0.00    -0.205 F 
ATOM     23  C   LIG    1      -38.047  77.217  26.178  0.00  0.00    +0.042 A 
ENDBRANCH  15  16
ENDBRANCH   8  15
ENDBRANCH   2   5
BRANCH   1  27
ATOM     24  C   LIG    1      -33.949  85.638  29.145  0.00  0.00    +0.032 A 
ATOM     25  C   LIG    1      -34.631  84.442  29.481  0.00  0.00    +0.046 A 
ATOM     26  C   LIG    1      -35.718  83.920  28.716  0.00  0.00    +0.041 A 
ATOM     27  C   LIG    1      -36.083  84.616  27.550  0.00  0.00    +0.058 A 
ATOM     28  C   LIG    1      -35.594  85.912  27.337  0.00  0.00    +0.017 A 
ATOM     29  C   LIG    1      -34.537  86.390  28.118  0.00  0.00    +0.024 A 
BRANCH  24  34
ATOM     30  C   LIG    1      -32.128  86.618  33.456  0.00  0.00    +0.105 C 
ATOM     31  N   LIG    1      -31.255  86.913  32.313  0.00  0.00    -0.302 NA
ATOM     32  C   LIG    1      -31.678  87.880  31.269  0.00  0.00    +0.103 C 
ATOM     33  C   LIG    1      -32.817  87.487  30.271  0.00  0.00    +0.120 C 
ATOM     34  N   LIG    1      -32.763  86.069  29.813  0.00  0.00    -0.327 N 
ATOM     35  C   LIG    1      -32.208  85.126  30.823  0.00  0.00    +0.120 C 
ATOM     36  C   LIG    1      -30.980  85.659  31.593  0.00  0.00    +0.103 C 
ENDBRANCH  24  34
BRANCH  26  37
ATOM     37  N   LIG    1      -36.410  82.811  29.250  0.00  0.00    -0.340 N 
ATOM     38  H   LIG    1      -37.143  83.147  29.878  0.00  0.00    +0.146 HD
BRANCH  37  39
ATOM     39  C   LIG    1      -35.796  81.555  29.757  0.00  0.00    +0.075 C 
ATOM     40  C   LIG    1      -34.501  81.082  29.068  0.00  0.00    +0.050 C 
ATOM     41  C   LIG    1      -34.644  80.467  27.695  0.00  0.00    +0.161 C 
ATOM     42  O   LIG    1      -35.738  79.573  27.597  0.00  0.00    -0.380 OA
ATOM     43  C   LIG    1      -36.943  80.148  28.102  0.00  0.00    +0.161 C 
ATOM     44  C   LIG    1      -36.775  80.393  29.592  0.00  0.00    +0.050 C 
ENDBRANCH  37  39
ENDBRANCH  26  37
ENDBRANCH   1  27
TORSDOF 7
ENDMDL
MODEL 8
REMARK VINA RESULT:      -7.1     19.968     22.549
REMARK  Name = pdb/CHEMBL1983268.pdb
REMARK                            x       y       z     vdW  Elec       q    Type
REMARK                         _______ _______ _______ _____ _____    ______ ____
ROOT
ATOM      1  C   LIG    1      -22.299  84.078  14.676  0.00  0.00    +0.248 C 
ATOM      2  N   LIG    1      -22.776  85.288  15.157  0.00  0.00    -0.284 N 
ATOM      3  H   LIG    1      -23.485  85.337  15.880  0.00  0.00    +0.151 HD
ATOM      4  O   LIG    1      -21.300  83.975  13.879  0.00  0.00    -0.270 OA
ENDROOT
BRANCH   2   5
ATOM      5  C   LIG    1      -22.083  86.462  14.898  0.00  0.00    +0.191 C 
ATOM      6  C   LIG    1      -22.323  87.359  13.802  0.00  0.00    +0.020 A 
ATOM      7  C   LIG    1      -23.283  87.510  12.780  0.00  0.00    +0.013 A 
ATOM      8  C   LIG    1      -23.183  88.493  11.787  0.00  0.00    -0.043 A 
ATOM      9  C   LIG    1      -22.105  89.376  11.876  0.00  0.00    +0.006 A 
ATOM     10  C   LIG    1      -21.113  89.255  12.876  0.00  0.00    +0.025 A 
ATOM     11  C   LIG    1      -21.269  88.252  13.843  0.00  0.00    +0.050 A 
ATOM     12  N   LIG    1      -20.524  87.869  14.928  0.00  0.00    -0.260 N 
ATOM     13  H   LIG    1      -19.631  88.245  15.223  0.00  0.00    +0.168 HD
ATOM     14  N   LIG    1      -21.088  86.877  15.661  0.00  0.00    -0.110 NA
BRANCH   8  15
ATOM     15  C   LIG    1      -24.266  88.583  10.724  0.00  0.00    +0.070 C 
BRANCH  15  16
ATOM     16  C   LIG    1      -25.349  89.645  10.883  0.00  0.00    -0.038 A 
ATOM     17  C   LIG    1      -26.526  89.648  10.111  0.00  0.00    +0.042 A 
ATOM     18  C   LIG    1      -27.550  90.575  10.369  0.00  0.00    +0.126 A 
ATOM     19  F   LIG    1      -28.645  90.588   9.595  0.00  0.00    -0.205 F 
ATOM     20  C   LIG    1      -27.440  91.516  11.380  0.00  0.00    +0.076 A 
ATOM     21  C   LIG    1      -26.248  91.575  12.081  0.00  0.00    +0.126 A 
ATOM     22  F   LIG    1      -26.065  92.570  12.960  0.00  0.00    -0.205 F 
ATOM     23  C   LIG    1      -25.218  90.652  11.854  0.00  0.00    +0.042 A 
ENDBRANCH  15  16
ENDBRANCH   8  15
ENDBRANCH   2   5
BRANCH   1  27
ATOM     24  C   LIG    1      -23.098  79.963  15.327  0.00  0.00    +0.032 A 
ATOM     25  C   LIG    1      -23.846  80.675  14.356  0.00  0.00    +0.046 A 
ATOM     26  C   LIG    1      -23.799  82.096  14.220  0.00  0.00    +0.041 A 
ATOM     27  C   LIG    1      -22.925  82.799  15.069  0.00  0.00    +0.058 A 
ATOM     28  C   LIG    1      -22.372  82.152  16.181  0.00  0.00    +0.017 A 
ATOM     29  C   LIG    1      -22.452  80.759  16.282  0.00  0.00    +0.024 A 
BRANCH  24  34
ATOM     30  C   LIG    1      -21.915  76.148  12.699  0.00  0.00    +0.105 C 
ATOM     31  N   LIG    1      -22.509  75.859  14.010  0.00  0.00    -0.302 NA
ATOM     32  C   LIG    1      -23.873  76.339  14.343  0.00  0.00    +0.103 C 
ATOM     33  C   LIG    1      -24.113  77.865  14.594  0.00  0.00    +0.120 C 
ATOM     34  N   LIG    1      -23.020  78.537  15.353  0.00  0.00    -0.327 N 
ATOM     35  C   LIG    1      -21.670  77.956  15.114  0.00  0.00    +0.120 C 
ATOM     36  C   LIG    1      -21.635  76.414  15.057  0.00  0.00    +0.103 C 
ENDBRANCH  24  34
BRANCH  26  37
ATOM     37  N   LIG    1      -24.714  82.690  13.323  0.00  0.00    -0.340 N 
ATOM     38  H   LIG    1      -25.649  82.660  13.733  0.00  0.00    +0.146 HD
BRANCH  37  39
ATOM     39  C   LIG    1      -24.760  82.480  11.852  0.00  0.00    +0.075 C 
ATOM     40  C   LIG    1      -23.488  82.829  11.054  0.00  0.00    +0.050 C 
ATOM     41  C   LIG    1      -23.196  84.296  10.843  0.00  0.00    +0.161 C 
ATOM     42  O   LIG    1      -24.346  85.049  10.500  0.00  0.00    -0.380 OA
ATOM     43  C   LIG    1      -25.433  84.796  11.390  0.00  0.00    +0.161 C 
ATOM     44  C   LIG    1      -25.859  83.346  11.236  0.00  0.00    +0.050 C 
ENDBRANCH  37  39
ENDBRANCH  26  37
ENDBRANCH   1  27
TORSDOF 7
ENDMDL
MODEL 9
REMARK VINA RESULT:      -7.1     12.901     17.168
REMARK  Name = pdb/CHEMBL1983268.pdb
REMARK                            x       y       z     vdW  Elec       q    Type
REMARK                         _______ _______ _______ _____ _____    ______ ____
ROOT
ATOM      1  C   LIG    1      -25.214  75.785  33.358  0.00  0.00    +0.248 C 
ATOM      2  N   LIG    1      -25.931  76.968  33.264  0.00  0.00    -0.284 N 
ATOM      3  H   LIG    1      -26.519  77.178  32.466  0.00  0.00    +0.151 HD
ATOM      4  O   LIG    1      -24.586  75.417  34.415  0.00  0.00    -0.270 OA
ENDROOT
BRANCH   2   5
ATOM      5  C   LIG    1      -26.120  77.759  34.388  0.00  0.00    +0.191 C 
ATOM      6  C   LIG    1      -25.203  78.745  34.890  0.00  0.00    +0.020 A 
ATOM      7  C   LIG    1      -24.001  79.350  34.467  0.00  0.00    +0.013 A 
ATOM      8  C   LIG    1      -23.295  80.264  35.258  0.00  0.00    -0.043 A 
ATOM      9  C   LIG    1      -23.861  80.608  36.488  0.00  0.00    +0.006 A 
ATOM     10  C   LIG    1      -25.056  80.018  36.957  0.00  0.00    +0.025 A 
ATOM     11  C   LIG    1      -25.719  79.110  36.119  0.00  0.00    +0.050 A 
ATOM     12  N   LIG    1      -26.872  78.381  36.249  0.00  0.00    -0.260 N 
ATOM     13  H   LIG    1      -27.478  78.329  37.059  0.00  0.00    +0.168 HD
ATOM     14  N   LIG    1      -27.201  77.669  35.142  0.00  0.00    -0.110 NA
BRANCH   8  15
ATOM     15  C   LIG    1      -22.008  80.869  34.720  0.00  0.00    +0.070 C 
BRANCH  15  16
ATOM     16  C   LIG    1      -20.681  80.314  35.228  0.00  0.00    -0.038 A 
ATOM     17  C   LIG    1      -20.179  80.608  36.510  0.00  0.00    +0.042 A 
ATOM     18  C   LIG    1      -19.011  79.985  36.983  0.00  0.00    +0.126 A 
ATOM     19  F   LIG    1      -18.526  80.310  38.190  0.00  0.00    -0.205 F 
ATOM     20  C   LIG    1      -18.313  79.070  36.211  0.00  0.00    +0.076 A 
ATOM     21  C   LIG    1      -18.752  78.847  34.917  0.00  0.00    +0.126 A 
ATOM     22  F   LIG    1      -18.009  78.082  34.106  0.00  0.00    -0.205 F 
ATOM     23  C   LIG    1      -19.922  79.445  34.427  0.00  0.00    +0.042 A 
ENDBRANCH  15  16
ENDBRANCH   8  15
ENDBRANCH   2   5
BRANCH   1  27
ATOM     24  C   LIG    1      -24.944  72.289  30.970  0.00  0.00    +0.032 A 
ATOM     25  C   LIG    1      -23.838  73.172  31.044  0.00  0.00    +0.046 A 
ATOM     26  C   LIG    1      -23.909  74.468  31.642  0.00  0.00    +0.041 A 
ATOM     27  C   LIG    1      -25.134  74.847  32.220  0.00  0.00    +0.058 A 
ATOM     28  C   LIG    1      -26.289  74.104  31.945  0.00  0.00    +0.017 A 
ATOM     29  C   LIG    1      -26.175  72.845  31.346  0.00  0.00    +0.024 A 
BRANCH  24  34
ATOM     30  C   LIG    1      -24.623  69.568  27.052  0.00  0.00    +0.105 C 
ATOM     31  N   LIG    1      -24.737  68.844  28.323  0.00  0.00    -0.302 NA
ATOM     32  C   LIG    1      -25.922  69.034  29.197  0.00  0.00    +0.103 C 
ATOM     33  C   LIG    1      -26.099  70.381  29.973  0.00  0.00    +0.120 C 
ATOM     34  N   LIG    1      -24.830  70.937  30.524  0.00  0.00    -0.327 N 
ATOM     35  C   LIG    1      -23.625  70.623  29.709  0.00  0.00    +0.120 C 
ATOM     36  C   LIG    1      -23.576  69.179  29.165  0.00  0.00    +0.103 C 
ENDBRANCH  24  34
BRANCH  26  37
ATOM     37  N   LIG    1      -22.781  75.305  31.505  0.00  0.00    -0.340 N 
ATOM     38  H   LIG    1      -22.217  75.245  32.355  0.00  0.00    +0.146 HD
BRANCH  37  39
ATOM     39  C   LIG    1      -22.774  76.682  30.945  0.00  0.00    +0.075 C 
ATOM     40  C   LIG    1      -22.145  76.868  29.550  0.00  0.00    +0.050 C 
ATOM     41  C   LIG    1      -20.637  76.820  29.470  0.00  0.00    +0.161 C 
ATOM     42  O   LIG    1      -20.001  77.533  30.515  0.00  0.00    -0.380 OA
ATOM     43  C   LIG    1      -20.524  77.180  31.795  0.00  0.00    +0.161 C 
ATOM     44  C   LIG    1      -21.979  77.613  31.861  0.00  0.00    +0.050 C 
ENDBRANCH  37  39
ENDBRANCH  26  37
ENDBRANCH   1  27
TORSDOF 7
ENDMDL
