MODEL 1
REMARK VINA RESULT:      -5.7      0.000      0.000
REMARK  Name = pdb/CHEMBL2151323.pdb
REMARK                            x       y       z     vdW  Elec       q    Type
REMARK                         _______ _______ _______ _____ _____    ______ ____
ROOT
ATOM      1  N   LIG    1      -21.653  77.251  30.497  0.00  0.00    -0.266 N 
ATOM      2  C   LIG    1      -20.809  77.741  31.477  0.00  0.00    +0.171 A 
ATOM      3  N   LIG    1      -21.130  78.347  32.634  0.00  0.00    -0.194 NA
ATOM      4  C   LIG    1      -20.060  78.712  33.357  0.00  0.00    +0.218 A 
ATOM      5  N   LIG    1      -18.773  78.530  33.002  0.00  0.00    -0.221 NA
ATOM      6  C   LIG    1      -18.492  77.911  31.829  0.00  0.00    +0.146 A 
ATOM      7  C   LIG    1      -19.529  77.477  31.017  0.00  0.00    +0.126 A 
ATOM      8  N   LIG    1      -19.550  76.815  29.819  0.00  0.00    -0.232 NA
ATOM      9  C   LIG    1      -20.833  76.685  29.542  0.00  0.00    +0.207 A 
ENDROOT
BRANCH   1  14
ATOM     10  C   LIG    1      -25.227  76.908  30.734  0.00  0.00    +0.213 A 
ATOM     11  N   LIG    1      -24.987  78.044  30.005  0.00  0.00    -0.245 N 
ATOM     12  H   LIG    1      -25.678  78.673  29.613  0.00  0.00    +0.192 HD
ATOM     13  N   LIG    1      -23.677  78.309  29.814  0.00  0.00    -0.153 NA
ATOM     14  C   LIG    1      -23.070  77.308  30.466  0.00  0.00    +0.165 A 
ATOM     15  C   LIG    1      -23.982  76.418  31.062  0.00  0.00    +0.115 A 
BRANCH  10  16
ATOM     16  O   LIG    1      -26.487  76.533  30.969  0.00  0.00    -0.474 OA
BRANCH  16  18
ATOM     17  C   LIG    1      -27.977  76.905  32.802  0.00  0.00    +0.051 C 
ATOM     18  C   LIG    1      -26.799  76.085  32.294  0.00  0.00    +0.169 C 
ATOM     19  C   LIG    1      -27.143  74.601  32.232  0.00  0.00    +0.051 C 
ENDBRANCH  16  18
ENDBRANCH  10  16
ENDBRANCH   1  14
BRANCH   4  20
ATOM     20  N   LIG    1      -20.242  79.310  34.587  0.00  0.00    -0.304 N 
ATOM     21  H   LIG    1      -19.388  79.171  35.114  0.00  0.00    +0.150 HD
BRANCH  20  22
ATOM     22  C   LIG    1      -21.476  78.930  35.283  0.00  0.00    +0.138 C 
ATOM     23  C   LIG    1      -21.122  78.107  36.523  0.00  0.00    +0.036 C 
BRANCH  22  24
ATOM     24  C   LIG    1      -22.314  80.149  35.681  0.00  0.00    +0.149 A 
ATOM     25  N   LIG    1      -21.697  81.345  35.855  0.00  0.00    -0.236 NA
ATOM     26  C   LIG    1      -22.481  82.394  36.182  0.00  0.00    +0.152 A 
ATOM     27  C   LIG    1      -23.834  82.288  36.383  0.00  0.00    +0.159 A 
ATOM     28  F   LIG    1      -24.588  83.343  36.708  0.00  0.00    -0.202 F 
ATOM     29  C   LIG    1      -24.369  81.034  36.232  0.00  0.00    +0.152 A 
ATOM     30  N   LIG    1      -23.641  79.950  35.880  0.00  0.00    -0.236 NA
ENDBRANCH  22  24
ENDBRANCH  20  22
ENDBRANCH   4  20
TORSDOF 6
ENDMDL
MODEL 2
REMARK VINA RESULT:      -5.5      2.038      2.482
REMARK  Name = pdb/CHEMBL2151323.pdb
REMARK                            x       y       z     vdW  Elec       q    Type
REMARK                         _______ _______ _______ _____ _____    ______ ____
ROOT
ATOM      1  N   LIG    1      -21.624  77.450  31.079  0.00  0.00    -0.266 N 
ATOM      2  C   LIG    1      -21.011  78.011  32.183  0.00  0.00    +0.171 A 
ATOM      3  N   LIG    1      -21.581  78.523  33.290  0.00  0.00    -0.194 NA
ATOM      4  C   LIG    1      -20.691  79.001  34.173  0.00  0.00    +0.218 A 
ATOM      5  N   LIG    1      -19.353  79.009  34.014  0.00  0.00    -0.221 NA
ATOM      6  C   LIG    1      -18.818  78.480  32.886  0.00  0.00    +0.146 A 
ATOM      7  C   LIG    1      -19.653  77.941  31.918  0.00  0.00    +0.126 A 
ATOM      8  N   LIG    1      -19.404  77.329  30.719  0.00  0.00    -0.232 NA
ATOM      9  C   LIG    1      -20.601  77.038  30.249  0.00  0.00    +0.207 A 
ENDROOT
BRANCH   1  14
ATOM     10  C   LIG    1      -25.146  76.734  30.902  0.00  0.00    +0.213 A 
ATOM     11  N   LIG    1      -24.878  77.648  29.915  0.00  0.00    -0.245 N 
ATOM     12  H   LIG    1      -25.542  78.053  29.265  0.00  0.00    +0.192 HD
ATOM     13  N   LIG    1      -23.582  78.015  29.841  0.00  0.00    -0.153 NA
ATOM     14  C   LIG    1      -23.015  77.316  30.834  0.00  0.00    +0.165 A 
ATOM     15  C   LIG    1      -23.939  76.515  31.529  0.00  0.00    +0.115 A 
BRANCH  10  16
ATOM     16  O   LIG    1      -26.392  76.281  31.056  0.00  0.00    -0.474 OA
BRANCH  16  18
ATOM     17  C   LIG    1      -28.472  77.026  31.971  0.00  0.00    +0.051 C 
ATOM     18  C   LIG    1      -27.050  76.587  32.292  0.00  0.00    +0.169 C 
ATOM     19  C   LIG    1      -27.040  75.339  33.166  0.00  0.00    +0.051 C 
ENDBRANCH  16  18
ENDBRANCH  10  16
ENDBRANCH   1  14
BRANCH   4  20
ATOM     20  N   LIG    1      -21.134  79.521  35.372  0.00  0.00    -0.304 N 
ATOM     21  H   LIG    1      -21.964  79.002  35.632  0.00  0.00    +0.150 HD
BRANCH  20  22
ATOM     22  C   LIG    1      -21.273  80.981  35.397  0.00  0.00    +0.138 C 
ATOM     23  C   LIG    1      -22.759  81.346  35.358  0.00  0.00    +0.036 C 
BRANCH  22  24
ATOM     24  C   LIG    1      -20.610  81.603  36.631  0.00  0.00    +0.149 A 
ATOM     25  N   LIG    1      -19.857  80.819  37.440  0.00  0.00    -0.236 NA
ATOM     26  C   LIG    1      -19.274  81.417  38.501  0.00  0.00    +0.152 A 
ATOM     27  C   LIG    1      -19.448  82.744  38.804  0.00  0.00    +0.159 A 
ATOM     28  F   LIG    1      -18.860  83.314  39.862  0.00  0.00    -0.202 F 
ATOM     29  C   LIG    1      -20.263  83.454  37.959  0.00  0.00    +0.152 A 
ATOM     30  N   LIG    1      -20.852  82.917  36.867  0.00  0.00    -0.236 NA
ENDBRANCH  22  24
ENDBRANCH  20  22
ENDBRANCH   4  20
TORSDOF 6
ENDMDL
MODEL 3
REMARK VINA RESULT:      -5.4     13.423     17.512
REMARK  Name = pdb/CHEMBL2151323.pdb
REMARK                            x       y       z     vdW  Elec       q    Type
REMARK                         _______ _______ _______ _____ _____    ______ ____
ROOT
ATOM      1  N   LIG    1      -39.994  78.542  24.160  0.00  0.00    -0.266 N 
ATOM      2  C   LIG    1      -39.227  77.481  24.605  0.00  0.00    +0.171 A 
ATOM      3  N   LIG    1      -37.979  77.500  25.107  0.00  0.00    -0.194 NA
ATOM      4  C   LIG    1      -37.520  76.283  25.435  0.00  0.00    +0.218 A 
ATOM      5  N   LIG    1      -38.190  75.123  25.284  0.00  0.00    -0.221 NA
ATOM      6  C   LIG    1      -39.447  75.147  24.778  0.00  0.00    +0.146 A 
ATOM      7  C   LIG    1      -40.022  76.360  24.425  0.00  0.00    +0.126 A 
ATOM      8  N   LIG    1      -41.253  76.689  23.926  0.00  0.00    -0.232 NA
ATOM      9  C   LIG    1      -41.208  78.001  23.790  0.00  0.00    +0.207 A 
ENDROOT
BRANCH   1  14
ATOM     10  C   LIG    1      -39.094  82.002  24.570  0.00  0.00    +0.213 A 
ATOM     11  N   LIG    1      -39.075  81.746  23.223  0.00  0.00    -0.245 N 
ATOM     12  H   LIG    1      -38.845  82.399  22.484  0.00  0.00    +0.192 HD
ATOM     13  N   LIG    1      -39.406  80.478  22.899  0.00  0.00    -0.153 NA
ATOM     14  C   LIG    1      -39.624  79.910  24.093  0.00  0.00    +0.165 A 
ATOM     15  C   LIG    1      -39.435  80.805  25.161  0.00  0.00    +0.115 A 
BRANCH  10  16
ATOM     16  O   LIG    1      -38.804  83.229  25.009  0.00  0.00    -0.474 OA
BRANCH  16  18
ATOM     17  C   LIG    1      -37.662  85.275  24.530  0.00  0.00    +0.051 C 
ATOM     18  C   LIG    1      -37.522  83.764  24.653  0.00  0.00    +0.169 C 
ATOM     19  C   LIG    1      -36.523  83.387  25.741  0.00  0.00    +0.051 C 
ENDBRANCH  16  18
ENDBRANCH  10  16
ENDBRANCH   1  14
BRANCH   4  20
ATOM     20  N   LIG    1      -36.267  76.157  25.999  0.00  0.00    -0.304 N 
ATOM     21  H   LIG    1      -35.906  75.252  25.721  0.00  0.00    +0.150 HD
BRANCH  20  22
ATOM     22  C   LIG    1      -36.205  76.441  27.436  0.00  0.00    +0.138 C 
ATOM     23  C   LIG    1      -35.273  75.431  28.110  0.00  0.00    +0.036 C 
BRANCH  22  24
ATOM     24  C   LIG    1      -35.729  77.869  27.723  0.00  0.00    +0.149 A 
ATOM     25  N   LIG    1      -36.641  78.808  28.079  0.00  0.00    -0.236 NA
ATOM     26  C   LIG    1      -36.171  80.045  28.344  0.00  0.00    +0.152 A 
ATOM     27  C   LIG    1      -34.847  80.387  28.229  0.00  0.00    +0.159 A 
ATOM     28  F   LIG    1      -34.406  81.621  28.498  0.00  0.00    -0.202 F 
ATOM     29  C   LIG    1      -34.000  79.388  27.820  0.00  0.00    +0.152 A 
ATOM     30  N   LIG    1      -34.406  78.125  27.564  0.00  0.00    -0.236 NA
ENDBRANCH  22  24
ENDBRANCH  20  22
ENDBRANCH   4  20
TORSDOF 6
ENDMDL
MODEL 4
REMARK VINA RESULT:      -5.4     13.245     17.456
REMARK  Name = pdb/CHEMBL2151323.pdb
REMARK                            x       y       z     vdW  Elec       q    Type
REMARK                         _______ _______ _______ _____ _____    ______ ____
ROOT
ATOM      1  N   LIG    1      -40.035  78.539  24.052  0.00  0.00    -0.266 N 
ATOM      2  C   LIG    1      -39.298  77.449  24.478  0.00  0.00    +0.171 A 
ATOM      3  N   LIG    1      -38.065  77.430  25.019  0.00  0.00    -0.194 NA
ATOM      4  C   LIG    1      -37.635  76.194  25.313  0.00  0.00    +0.218 A 
ATOM      5  N   LIG    1      -38.317  75.052  25.096  0.00  0.00    -0.221 NA
ATOM      6  C   LIG    1      -39.557  75.115  24.553  0.00  0.00    +0.146 A 
ATOM      7  C   LIG    1      -40.102  76.349  24.231  0.00  0.00    +0.126 A 
ATOM      8  N   LIG    1      -41.313  76.717  23.708  0.00  0.00    -0.232 NA
ATOM      9  C   LIG    1      -41.245  78.031  23.625  0.00  0.00    +0.207 A 
ENDROOT
BRANCH   1  14
ATOM     10  C   LIG    1      -39.087  81.963  24.626  0.00  0.00    +0.213 A 
ATOM     11  N   LIG    1      -39.056  81.766  23.269  0.00  0.00    -0.245 N 
ATOM     12  H   LIG    1      -38.807  82.448  22.561  0.00  0.00    +0.192 HD
ATOM     13  N   LIG    1      -39.403  80.519  22.885  0.00  0.00    -0.153 NA
ATOM     14  C   LIG    1      -39.644  79.903  24.050  0.00  0.00    +0.165 A 
ATOM     15  C   LIG    1      -39.454  80.747  25.159  0.00  0.00    +0.115 A 
BRANCH  10  16
ATOM     16  O   LIG    1      -38.784  83.165  25.121  0.00  0.00    -0.474 OA
BRANCH  16  18
ATOM     17  C   LIG    1      -37.962  85.306  24.446  0.00  0.00    +0.051 C 
ATOM     18  C   LIG    1      -37.635  83.825  24.576  0.00  0.00    +0.169 C 
ATOM     19  C   LIG    1      -36.457  83.599  25.516  0.00  0.00    +0.051 C 
ENDBRANCH  16  18
ENDBRANCH  10  16
ENDBRANCH   1  14
BRANCH   4  20
ATOM     20  N   LIG    1      -36.402  76.026  25.909  0.00  0.00    -0.304 N 
ATOM     21  H   LIG    1      -36.239  75.029  25.981  0.00  0.00    +0.150 HD
BRANCH  20  22
ATOM     22  C   LIG    1      -36.208  76.785  27.150  0.00  0.00    +0.138 C 
ATOM     23  C   LIG    1      -37.164  76.252  28.220  0.00  0.00    +0.036 C 
BRANCH  22  24
ATOM     24  C   LIG    1      -34.763  76.712  27.652  0.00  0.00    +0.149 A 
ATOM     25  N   LIG    1      -33.884  77.673  27.273  0.00  0.00    -0.236 NA
ATOM     26  C   LIG    1      -32.628  77.579  27.760  0.00  0.00    +0.152 A 
ATOM     27  C   LIG    1      -32.211  76.551  28.568  0.00  0.00    +0.159 A 
ATOM     28  F   LIG    1      -30.961  76.481  29.038  0.00  0.00    -0.202 F 
ATOM     29  C   LIG    1      -33.152  75.598  28.866  0.00  0.00    +0.152 A 
ATOM     30  N   LIG    1      -34.430  75.651  28.430  0.00  0.00    -0.236 NA
ENDBRANCH  22  24
ENDBRANCH  20  22
ENDBRANCH   4  20
TORSDOF 6
ENDMDL
MODEL 5
REMARK VINA RESULT:      -5.3     17.378     18.807
REMARK  Name = pdb/CHEMBL2151323.pdb
REMARK                            x       y       z     vdW  Elec       q    Type
REMARK                         _______ _______ _______ _____ _____    ______ ____
ROOT
ATOM      1  N   LIG    1      -22.893  78.190  15.016  0.00  0.00    -0.266 N 
ATOM      2  C   LIG    1      -21.979  79.162  15.379  0.00  0.00    +0.171 A 
ATOM      3  N   LIG    1      -22.196  80.468  15.624  0.00  0.00    -0.194 NA
ATOM      4  C   LIG    1      -21.080  81.139  15.946  0.00  0.00    +0.218 A 
ATOM      5  N   LIG    1      -19.840  80.616  16.015  0.00  0.00    -0.221 NA
ATOM      6  C   LIG    1      -19.665  79.296  15.765  0.00  0.00    +0.146 A 
ATOM      7  C   LIG    1      -20.760  78.507  15.443  0.00  0.00    +0.126 A 
ATOM      8  N   LIG    1      -20.890  77.172  15.171  0.00  0.00    -0.232 NA
ATOM      9  C   LIG    1      -22.177  77.013  14.932  0.00  0.00    +0.207 A 
ENDROOT
BRANCH   1  14
ATOM     10  C   LIG    1      -26.281  78.514  13.847  0.00  0.00    +0.213 A 
ATOM     11  N   LIG    1      -26.315  78.676  15.208  0.00  0.00    -0.245 N 
ATOM     12  H   LIG    1      -27.135  78.847  15.779  0.00  0.00    +0.192 HD
ATOM     13  N   LIG    1      -25.107  78.594  15.803  0.00  0.00    -0.153 NA
ATOM     14  C   LIG    1      -24.282  78.352  14.776  0.00  0.00    +0.165 A 
ATOM     15  C   LIG    1      -24.957  78.283  13.543  0.00  0.00    +0.115 A 
BRANCH  10  16
ATOM     16  O   LIG    1      -27.415  78.598  13.148  0.00  0.00    -0.474 OA
BRANCH  16  18
ATOM     17  C   LIG    1      -28.181  76.357  13.477  0.00  0.00    +0.051 C 
ATOM     18  C   LIG    1      -27.837  77.422  12.445  0.00  0.00    +0.169 C 
ATOM     19  C   LIG    1      -29.048  77.778  11.591  0.00  0.00    +0.051 C 
ENDBRANCH  16  18
ENDBRANCH  10  16
ENDBRANCH   1  14
BRANCH   4  20
ATOM     20  N   LIG    1      -21.160  82.481  16.261  0.00  0.00    -0.304 N 
ATOM     21  H   LIG    1      -20.735  82.597  17.173  0.00  0.00    +0.150 HD
BRANCH  20  22
ATOM     22  C   LIG    1      -22.494  83.072  16.110  0.00  0.00    +0.138 C 
ATOM     23  C   LIG    1      -22.931  83.676  17.446  0.00  0.00    +0.036 C 
BRANCH  22  24
ATOM     24  C   LIG    1      -22.532  84.139  15.012  0.00  0.00    +0.149 A 
ATOM     25  N   LIG    1      -22.528  85.449  15.365  0.00  0.00    -0.236 NA
ATOM     26  C   LIG    1      -22.539  86.352  14.362  0.00  0.00    +0.152 A 
ATOM     27  C   LIG    1      -22.597  86.001  13.036  0.00  0.00    +0.159 A 
ATOM     28  F   LIG    1      -22.607  86.916  12.060  0.00  0.00    -0.202 F 
ATOM     29  C   LIG    1      -22.644  84.657  12.770  0.00  0.00    +0.152 A 
ATOM     30  N   LIG    1      -22.610  83.705  13.729  0.00  0.00    -0.236 NA
ENDBRANCH  22  24
ENDBRANCH  20  22
ENDBRANCH   4  20
TORSDOF 6
ENDMDL
MODEL 6
REMARK VINA RESULT:      -5.3     17.912     20.244
REMARK  Name = pdb/CHEMBL2151323.pdb
REMARK                            x       y       z     vdW  Elec       q    Type
REMARK                         _______ _______ _______ _____ _____    ______ ____
ROOT
ATOM      1  N   LIG    1      -32.258  65.481  19.506  0.00  0.00    -0.266 N 
ATOM      2  C   LIG    1      -33.309  65.777  20.353  0.00  0.00    +0.171 A 
ATOM      3  N   LIG    1      -33.424  66.797  21.224  0.00  0.00    -0.194 NA
ATOM      4  C   LIG    1      -34.579  66.786  21.905  0.00  0.00    +0.218 A 
ATOM      5  N   LIG    1      -35.555  65.865  21.783  0.00  0.00    -0.221 NA
ATOM      6  C   LIG    1      -35.403  64.855  20.892  0.00  0.00    +0.146 A 
ATOM      7  C   LIG    1      -34.250  64.787  20.122  0.00  0.00    +0.126 A 
ATOM      8  N   LIG    1      -33.841  63.919  19.146  0.00  0.00    -0.232 NA
ATOM      9  C   LIG    1      -32.652  64.368  18.791  0.00  0.00    +0.207 A 
ENDROOT
BRANCH   1  14
ATOM     10  C   LIG    1      -29.400  67.550  18.797  0.00  0.00    +0.213 A 
ATOM     11  N   LIG    1      -29.011  66.655  19.760  0.00  0.00    -0.245 N 
ATOM     12  H   LIG    1      -28.098  66.590  20.195  0.00  0.00    +0.192 HD
ATOM     13  N   LIG    1      -29.978  65.789  20.130  0.00  0.00    -0.153 NA
ATOM     14  C   LIG    1      -31.023  66.169  19.383  0.00  0.00    +0.165 A 
ATOM     15  C   LIG    1      -30.724  67.260  18.547  0.00  0.00    +0.115 A 
BRANCH  10  16
ATOM     16  O   LIG    1      -28.520  68.441  18.335  0.00  0.00    -0.474 OA
BRANCH  16  18
ATOM     17  C   LIG    1      -26.906  70.097  18.945  0.00  0.00    +0.051 C 
ATOM     18  C   LIG    1      -28.353  69.646  19.093  0.00  0.00    +0.169 C 
ATOM     19  C   LIG    1      -29.318  70.695  18.552  0.00  0.00    +0.051 C 
ENDBRANCH  16  18
ENDBRANCH  10  16
ENDBRANCH   1  14
BRANCH   4  20
ATOM     20  N   LIG    1      -34.848  67.797  22.806  0.00  0.00    -0.304 N 
ATOM     21  H   LIG    1      -33.970  68.041  23.249  0.00  0.00    +0.150 HD
BRANCH  20  22
ATOM     22  C   LIG    1      -35.959  67.525  23.724  0.00  0.00    +0.138 C 
ATOM     23  C   LIG    1      -35.404  67.288  25.130  0.00  0.00    +0.036 C 
BRANCH  22  24
ATOM     24  C   LIG    1      -36.981  68.667  23.748  0.00  0.00    +0.149 A 
ATOM     25  N   LIG    1      -38.231  68.442  23.272  0.00  0.00    -0.236 NA
ATOM     26  C   LIG    1      -39.103  69.471  23.336  0.00  0.00    +0.152 A 
ATOM     27  C   LIG    1      -38.766  70.713  23.812  0.00  0.00    +0.159 A 
ATOM     28  F   LIG    1      -39.649  71.716  23.864  0.00  0.00    -0.202 F 
ATOM     29  C   LIG    1      -37.469  70.866  24.230  0.00  0.00    +0.152 A 
ATOM     30  N   LIG    1      -36.558  69.868  24.216  0.00  0.00    -0.236 NA
ENDBRANCH  22  24
ENDBRANCH  20  22
ENDBRANCH   4  20
TORSDOF 6
ENDMDL
MODEL 7
REMARK VINA RESULT:      -5.2     12.303     15.600
REMARK  Name = pdb/CHEMBL2151323.pdb
REMARK                            x       y       z     vdW  Elec       q    Type
REMARK                         _______ _______ _______ _____ _____    ______ ____
ROOT
ATOM      1  N   LIG    1      -35.641  75.895  27.414  0.00  0.00    -0.266 N 
ATOM      2  C   LIG    1      -34.836  76.998  27.630  0.00  0.00    +0.171 A 
ATOM      3  N   LIG    1      -35.063  78.282  27.296  0.00  0.00    -0.194 NA
ATOM      4  C   LIG    1      -34.064  79.105  27.645  0.00  0.00    +0.218 A 
ATOM      5  N   LIG    1      -32.919  78.738  28.255  0.00  0.00    -0.221 NA
ATOM      6  C   LIG    1      -32.730  77.436  28.578  0.00  0.00    +0.146 A 
ATOM      7  C   LIG    1      -33.715  76.505  28.278  0.00  0.00    +0.126 A 
ATOM      8  N   LIG    1      -33.812  75.158  28.502  0.00  0.00    -0.232 NA
ATOM      9  C   LIG    1      -34.980  74.827  27.984  0.00  0.00    +0.207 A 
ENDROOT
BRANCH   1  14
ATOM     10  C   LIG    1      -38.506  75.877  25.236  0.00  0.00    +0.213 A 
ATOM     11  N   LIG    1      -38.975  75.673  26.508  0.00  0.00    -0.245 N 
ATOM     12  H   LIG    1      -39.941  75.536  26.785  0.00  0.00    +0.192 HD
ATOM     13  N   LIG    1      -38.014  75.665  27.455  0.00  0.00    -0.153 NA
ATOM     14  C   LIG    1      -36.893  75.854  26.746  0.00  0.00    +0.165 A 
ATOM     15  C   LIG    1      -37.139  75.981  25.367  0.00  0.00    +0.115 A 
BRANCH  10  16
ATOM     16  O   LIG    1      -39.369  75.926  24.218  0.00  0.00    -0.474 OA
BRANCH  16  18
ATOM     17  C   LIG    1      -41.642  75.797  23.486  0.00  0.00    +0.051 C 
ATOM     18  C   LIG    1      -40.562  75.140  24.335  0.00  0.00    +0.169 C 
ATOM     19  C   LIG    1      -40.259  73.728  23.849  0.00  0.00    +0.051 C 
ENDBRANCH  16  18
ENDBRANCH  10  16
ENDBRANCH   1  14
BRANCH   4  20
ATOM     20  N   LIG    1      -34.179  80.459  27.398  0.00  0.00    -0.304 N 
ATOM     21  H   LIG    1      -33.270  80.871  27.572  0.00  0.00    +0.150 HD
BRANCH  20  22
ATOM     22  C   LIG    1      -35.304  81.115  28.072  0.00  0.00    +0.138 C 
ATOM     23  C   LIG    1      -34.765  82.052  29.156  0.00  0.00    +0.036 C 
BRANCH  22  24
ATOM     24  C   LIG    1      -36.188  81.896  27.095  0.00  0.00    +0.149 A 
ATOM     25  N   LIG    1      -35.624  82.851  26.314  0.00  0.00    -0.236 NA
ATOM     26  C   LIG    1      -36.438  83.495  25.452  0.00  0.00    +0.152 A 
ATOM     27  C   LIG    1      -37.787  83.255  25.370  0.00  0.00    +0.159 A 
ATOM     28  F   LIG    1      -38.573  83.907  24.507  0.00  0.00    -0.202 F 
ATOM     29  C   LIG    1      -38.283  82.305  26.227  0.00  0.00    +0.152 A 
ATOM     30  N   LIG    1      -37.514  81.609  27.094  0.00  0.00    -0.236 NA
ENDBRANCH  22  24
ENDBRANCH  20  22
ENDBRANCH   4  20
TORSDOF 6
ENDMDL
MODEL 8
REMARK VINA RESULT:      -5.2      2.543      5.655
REMARK  Name = pdb/CHEMBL2151323.pdb
REMARK                            x       y       z     vdW  Elec       q    Type
REMARK                         _______ _______ _______ _____ _____    ______ ____
ROOT
ATOM      1  N   LIG    1      -26.577  76.886  32.203  0.00  0.00    -0.266 N 
ATOM      2  C   LIG    1      -26.623  77.239  33.539  0.00  0.00    +0.171 A 
ATOM      3  N   LIG    1      -25.736  77.963  34.247  0.00  0.00    -0.194 NA
ATOM      4  C   LIG    1      -26.082  78.114  35.534  0.00  0.00    +0.218 A 
ATOM      5  N   LIG    1      -27.183  77.601  36.118  0.00  0.00    -0.221 NA
ATOM      6  C   LIG    1      -28.053  76.881  35.369  0.00  0.00    +0.146 A 
ATOM      7  C   LIG    1      -27.798  76.684  34.020  0.00  0.00    +0.126 A 
ATOM      8  N   LIG    1      -28.492  76.038  33.032  0.00  0.00    -0.232 NA
ATOM      9  C   LIG    1      -27.742  76.188  31.958  0.00  0.00    +0.207 A 
ENDROOT
BRANCH   1  14
ATOM     10  C   LIG    1      -23.741  77.115  30.000  0.00  0.00    +0.213 A 
ATOM     11  N   LIG    1      -24.509  78.227  29.772  0.00  0.00    -0.245 N 
ATOM     12  H   LIG    1      -24.322  78.969  29.108  0.00  0.00    +0.192 HD
ATOM     13  N   LIG    1      -25.618  78.298  30.539  0.00  0.00    -0.153 NA
ATOM     14  C   LIG    1      -25.552  77.174  31.265  0.00  0.00    +0.165 A 
ATOM     15  C   LIG    1      -24.416  76.400  30.965  0.00  0.00    +0.115 A 
BRANCH  10  16
ATOM     16  O   LIG    1      -22.607  76.949  29.315  0.00  0.00    -0.474 OA
BRANCH  16  18
ATOM     17  C   LIG    1      -20.229  76.764  29.141  0.00  0.00    +0.051 C 
ATOM     18  C   LIG    1      -21.430  76.630  30.068  0.00  0.00    +0.169 C 
ATOM     19  C   LIG    1      -21.332  77.594  31.244  0.00  0.00    +0.051 C 
ENDBRANCH  16  18
ENDBRANCH  10  16
ENDBRANCH   1  14
BRANCH   4  20
ATOM     20  N   LIG    1      -25.282  78.868  36.370  0.00  0.00    -0.304 N 
ATOM     21  H   LIG    1      -25.830  79.077  37.195  0.00  0.00    +0.150 HD
BRANCH  20  22
ATOM     22  C   LIG    1      -24.641  80.023  35.733  0.00  0.00    +0.138 C 
ATOM     23  C   LIG    1      -24.991  81.289  36.518  0.00  0.00    +0.036 C 
BRANCH  22  24
ATOM     24  C   LIG    1      -23.120  79.863  35.644  0.00  0.00    +0.149 A 
ATOM     25  N   LIG    1      -22.581  78.621  35.726  0.00  0.00    -0.236 NA
ATOM     26  C   LIG    1      -21.239  78.529  35.619  0.00  0.00    +0.152 A 
ATOM     27  C   LIG    1      -20.420  79.620  35.477  0.00  0.00    +0.159 A 
ATOM     28  F   LIG    1      -19.092  79.502  35.373  0.00  0.00    -0.202 F 
ATOM     29  C   LIG    1      -21.043  80.842  35.449  0.00  0.00    +0.152 A 
ATOM     30  N   LIG    1      -22.384  80.997  35.525  0.00  0.00    -0.236 NA
ENDBRANCH  22  24
ENDBRANCH  20  22
ENDBRANCH   4  20
TORSDOF 6
ENDMDL
MODEL 9
REMARK VINA RESULT:      -5.2      2.852      6.901
REMARK  Name = pdb/CHEMBL2151323.pdb
REMARK                            x       y       z     vdW  Elec       q    Type
REMARK                         _______ _______ _______ _____ _____    ______ ____
ROOT
ATOM      1  N   LIG    1      -25.956  78.101  34.582  0.00  0.00    -0.266 N 
ATOM      2  C   LIG    1      -25.661  77.678  33.299  0.00  0.00    +0.171 A 
ATOM      3  N   LIG    1      -24.589  77.979  32.542  0.00  0.00    -0.194 NA
ATOM      4  C   LIG    1      -24.617  77.404  31.331  0.00  0.00    +0.218 A 
ATOM      5  N   LIG    1      -25.599  76.610  30.860  0.00  0.00    -0.221 NA
ATOM      6  C   LIG    1      -26.660  76.328  31.656  0.00  0.00    +0.146 A 
ATOM      7  C   LIG    1      -26.717  76.858  32.936  0.00  0.00    +0.126 A 
ATOM      8  N   LIG    1      -27.628  76.730  33.950  0.00  0.00    -0.232 NA
ATOM      9  C   LIG    1      -27.138  77.475  34.922  0.00  0.00    +0.207 A 
ENDROOT
BRANCH   1  14
ATOM     10  C   LIG    1      -23.597  80.071  36.454  0.00  0.00    +0.213 A 
ATOM     11  N   LIG    1      -24.840  80.583  36.723  0.00  0.00    -0.245 N 
ATOM     12  H   LIG    1      -25.057  81.368  37.326  0.00  0.00    +0.192 HD
ATOM     13  N   LIG    1      -25.848  79.938  36.099  0.00  0.00    -0.153 NA
ATOM     14  C   LIG    1      -25.210  78.994  35.394  0.00  0.00    +0.165 A 
ATOM     15  C   LIG    1      -23.815  79.037  35.569  0.00  0.00    +0.115 A 
BRANCH  10  16
ATOM     16  O   LIG    1      -22.524  80.615  37.033  0.00  0.00    -0.474 OA
BRANCH  16  18
ATOM     17  C   LIG    1      -20.956  81.473  35.445  0.00  0.00    +0.051 C 
ATOM     18  C   LIG    1      -21.251  80.350  36.429  0.00  0.00    +0.169 C 
ATOM     19  C   LIG    1      -20.199  80.287  37.530  0.00  0.00    +0.051 C 
ENDBRANCH  16  18
ENDBRANCH  10  16
ENDBRANCH   1  14
BRANCH   4  20
ATOM     20  N   LIG    1      -23.561  77.594  30.462  0.00  0.00    -0.304 N 
ATOM     21  H   LIG    1      -23.941  77.568  29.524  0.00  0.00    +0.150 HD
BRANCH  20  22
ATOM     22  C   LIG    1      -22.405  76.723  30.696  0.00  0.00    +0.138 C 
ATOM     23  C   LIG    1      -21.708  76.442  29.363  0.00  0.00    +0.036 C 
BRANCH  22  24
ATOM     24  C   LIG    1      -21.412  77.334  31.690  0.00  0.00    +0.149 A 
ATOM     25  N   LIG    1      -21.551  77.063  33.012  0.00  0.00    -0.236 NA
ATOM     26  C   LIG    1      -20.638  77.605  33.846  0.00  0.00    +0.152 A 
ATOM     27  C   LIG    1      -19.630  78.432  33.421  0.00  0.00    +0.159 A 
ATOM     28  F   LIG    1      -18.738  78.957  34.268  0.00  0.00    -0.202 F 
ATOM     29  C   LIG    1      -19.590  78.691  32.074  0.00  0.00    +0.152 A 
ATOM     30  N   LIG    1      -20.459  78.158  31.186  0.00  0.00    -0.236 NA
ENDBRANCH  22  24
ENDBRANCH  20  22
ENDBRANCH   4  20
TORSDOF 6
ENDMDL
