MODEL 1
REMARK VINA RESULT:      -6.0      0.000      0.000
REMARK  Name = pdb/CHEMBL3910951.pdb
REMARK                            x       y       z     vdW  Elec       q    Type
REMARK                         _______ _______ _______ _____ _____    ______ ____
ROOT
ATOM      1  C   LIG    1      -41.291  78.537  24.759  0.00  0.00    +0.042 A 
ATOM      2  C   LIG    1      -40.379  77.939  25.653  0.00  0.00    +0.042 A 
ATOM      3  C   LIG    1      -39.895  76.647  25.412  0.00  0.00    +0.086 A 
ATOM      4  C   LIG    1      -40.328  76.052  24.221  0.00  0.00    +0.138 A 
ATOM      5  N   LIG    1      -41.207  76.582  23.341  0.00  0.00    -0.260 NA
ATOM      6  C   LIG    1      -41.661  77.818  23.629  0.00  0.00    +0.122 A 
ENDROOT
BRANCH   1   7
ATOM      7  C   LIG    1      -41.748  79.936  24.964  0.00  0.00    +0.197 C 
ATOM      8  O   LIG    1      -42.625  80.128  25.819  0.00  0.00    -0.287 OA
BRANCH   7  16
ATOM      9  N   LIG    1      -40.845  82.676  22.652  0.00  0.00    -0.338 N 
ATOM     10  C   LIG    1      -39.768  82.753  23.538  0.00  0.00    +0.053 A 
ATOM     11  C   LIG    1      -38.625  83.566  23.590  0.00  0.00    +0.046 A 
ATOM     12  C   LIG    1      -37.781  83.385  24.680  0.00  0.00    +0.113 A 
ATOM     13  N   LIG    1      -37.988  82.506  25.676  0.00  0.00    -0.263 NA
ATOM     14  C   LIG    1      -39.082  81.713  25.621  0.00  0.00    +0.121 A 
ATOM     15  C   LIG    1      -39.986  81.796  24.548  0.00  0.00    +0.029 A 
ATOM     16  C   LIG    1      -41.165  81.054  24.215  0.00  0.00    +0.049 A 
ATOM     17  C   LIG    1      -41.673  81.650  23.076  0.00  0.00    +0.099 A 
BRANCH   9  19
ATOM     18  C   LIG    1      -41.518  84.980  21.945  0.00  0.00    +0.036 C 
ATOM     19  C   LIG    1      -41.134  83.556  21.483  0.00  0.00    +0.063 C 
ATOM     20  C   LIG    1      -42.338  83.036  20.644  0.00  0.00    +0.036 C 
BRANCH  19  21
ATOM     21  C   LIG    1      -39.921  83.680  20.524  0.00  0.00    +0.183 C 
BRANCH  21  22
ATOM     22  O   LIG    1      -39.812  84.974  19.944  0.00  0.00    -0.393 OA
ATOM     23  H   LIG    1      -39.277  84.886  19.135  0.00  0.00    +0.209 HD
ENDBRANCH  21  22
ENDBRANCH  19  21
ENDBRANCH   9  19
ENDBRANCH   7  16
ENDBRANCH   1   7
BRANCH   3  24
ATOM     24  N   LIG    1      -38.953  76.045  26.285  0.00  0.00    -0.214 NA
ATOM     25  C   LIG    1      -37.681  76.163  26.046  0.00  0.00    +0.210 C 
BRANCH  25  26
ATOM     26  O   LIG    1      -37.210  76.733  24.914  0.00  0.00    -0.494 OA
ATOM     27  H   LIG    1      -36.311  76.446  24.669  0.00  0.00    +0.293 HD
ENDBRANCH  25  26
BRANCH  25  28
ATOM     28  C   LIG    1      -36.627  75.649  26.987  0.00  0.00    +0.240 C 
BRANCH  28  29
ATOM     29  N   LIG    1      -35.593  76.623  27.274  0.00  0.00    -0.242 N 
ATOM     30  N   LIG    1      -35.911  77.915  27.487  0.00  0.00    -0.065 NA
ATOM     31  N   LIG    1      -34.780  78.614  27.484  0.00  0.00    -0.125 NA
ATOM     32  C   LIG    1      -33.731  77.747  27.265  0.00  0.00    +0.185 A 
ATOM     33  C   LIG    1      -34.242  76.464  27.177  0.00  0.00    +0.143 A 
BRANCH  32  34
ATOM     34  C   LIG    1      -32.322  78.213  27.115  0.00  0.00    +0.437 C 
ATOM     35  F   LIG    1      -31.618  77.483  26.212  0.00  0.00    -0.164 F 
ATOM     36  F   LIG    1      -31.632  78.177  28.286  0.00  0.00    -0.164 F 
ATOM     37  F   LIG    1      -32.272  79.505  26.687  0.00  0.00    -0.164 F 
ENDBRANCH  32  34
ENDBRANCH  28  29
ENDBRANCH  25  28
ENDBRANCH   3  24
TORSDOF 10
ENDMDL
MODEL 2
REMARK VINA RESULT:      -6.0      4.567      8.536
REMARK  Name = pdb/CHEMBL3910951.pdb
REMARK                            x       y       z     vdW  Elec       q    Type
REMARK                         _______ _______ _______ _____ _____    ______ ____
ROOT
ATOM      1  C   LIG    1      -40.958  75.058  23.789  0.00  0.00    +0.042 A 
ATOM      2  C   LIG    1      -39.741  74.789  24.450  0.00  0.00    +0.042 A 
ATOM      3  C   LIG    1      -38.771  75.790  24.581  0.00  0.00    +0.086 A 
ATOM      4  C   LIG    1      -39.126  77.047  24.080  0.00  0.00    +0.138 A 
ATOM      5  N   LIG    1      -40.275  77.348  23.432  0.00  0.00    -0.260 NA
ATOM      6  C   LIG    1      -41.168  76.346  23.310  0.00  0.00    +0.122 A 
ENDROOT
BRANCH   1   7
ATOM      7  C   LIG    1      -42.025  74.027  23.714  0.00  0.00    +0.197 C 
ATOM      8  O   LIG    1      -43.134  74.320  24.184  0.00  0.00    -0.287 OA
BRANCH   7  16
ATOM      9  N   LIG    1      -40.966  70.654  22.630  0.00  0.00    -0.338 N 
ATOM     10  C   LIG    1      -41.922  70.925  21.650  0.00  0.00    +0.053 A 
ATOM     11  C   LIG    1      -42.379  70.210  20.532  0.00  0.00    +0.046 A 
ATOM     12  C   LIG    1      -43.408  70.790  19.798  0.00  0.00    +0.113 A 
ATOM     13  N   LIG    1      -43.992  71.967  20.089  0.00  0.00    -0.263 NA
ATOM     14  C   LIG    1      -43.544  72.664  21.158  0.00  0.00    +0.121 A 
ATOM     15  C   LIG    1      -42.490  72.179  21.952  0.00  0.00    +0.029 A 
ATOM     16  C   LIG    1      -41.795  72.726  23.078  0.00  0.00    +0.049 A 
ATOM     17  C   LIG    1      -40.905  71.748  23.479  0.00  0.00    +0.099 A 
BRANCH   9  19
ATOM     18  C   LIG    1      -39.378  69.059  21.537  0.00  0.00    +0.036 C 
ATOM     19  C   LIG    1      -40.173  69.405  22.816  0.00  0.00    +0.063 C 
ATOM     20  C   LIG    1      -41.080  68.174  23.106  0.00  0.00    +0.036 C 
BRANCH  19  21
ATOM     21  C   LIG    1      -39.160  69.519  23.986  0.00  0.00    +0.183 C 
BRANCH  21  22
ATOM     22  O   LIG    1      -37.866  69.920  23.553  0.00  0.00    -0.393 OA
ATOM     23  H   LIG    1      -37.913  70.068  22.592  0.00  0.00    +0.209 HD
ENDBRANCH  21  22
ENDBRANCH  19  21
ENDBRANCH   9  19
ENDBRANCH   7  16
ENDBRANCH   1   7
BRANCH   3  24
ATOM     24  N   LIG    1      -37.556  75.543  25.271  0.00  0.00    -0.214 NA
ATOM     25  C   LIG    1      -37.519  75.623  26.567  0.00  0.00    +0.210 C 
BRANCH  25  26
ATOM     26  O   LIG    1      -38.571  76.063  27.292  0.00  0.00    -0.494 OA
ATOM     27  H   LIG    1      -38.663  77.034  27.310  0.00  0.00    +0.293 HD
ENDBRANCH  25  26
BRANCH  25  28
ATOM     28  C   LIG    1      -36.297  75.264  27.368  0.00  0.00    +0.240 C 
BRANCH  28  29
ATOM     29  N   LIG    1      -35.349  76.355  27.481  0.00  0.00    -0.242 N 
ATOM     30  N   LIG    1      -35.775  77.633  27.490  0.00  0.00    -0.065 NA
ATOM     31  N   LIG    1      -34.708  78.415  27.360  0.00  0.00    -0.125 NA
ATOM     32  C   LIG    1      -33.589  77.615  27.268  0.00  0.00    +0.185 A 
ATOM     33  C   LIG    1      -33.990  76.296  27.394  0.00  0.00    +0.143 A 
BRANCH  32  34
ATOM     34  C   LIG    1      -32.224  78.167  27.027  0.00  0.00    +0.437 C 
ATOM     35  F   LIG    1      -31.524  77.459  26.105  0.00  0.00    -0.164 F 
ATOM     36  F   LIG    1      -31.471  78.208  28.158  0.00  0.00    -0.164 F 
ATOM     37  F   LIG    1      -32.283  79.447  26.566  0.00  0.00    -0.164 F 
ENDBRANCH  32  34
ENDBRANCH  28  29
ENDBRANCH  25  28
ENDBRANCH   3  24
TORSDOF 10
ENDMDL
MODEL 3
REMARK VINA RESULT:      -5.9     17.650     19.602
REMARK  Name = pdb/CHEMBL3910951.pdb
REMARK                            x       y       z     vdW  Elec       q    Type
REMARK                         _______ _______ _______ _____ _____    ______ ____
ROOT
ATOM      1  C   LIG    1      -23.729  81.091  15.144  0.00  0.00    +0.042 A 
ATOM      2  C   LIG    1      -23.753  79.699  15.367  0.00  0.00    +0.042 A 
ATOM      3  C   LIG    1      -24.645  78.884  14.658  0.00  0.00    +0.086 A 
ATOM      4  C   LIG    1      -25.431  79.536  13.702  0.00  0.00    +0.138 A 
ATOM      5  N   LIG    1      -25.448  80.867  13.460  0.00  0.00    -0.260 NA
ATOM      6  C   LIG    1      -24.589  81.612  14.184  0.00  0.00    +0.122 A 
ENDROOT
BRANCH   1   7
ATOM      7  C   LIG    1      -22.734  81.953  15.832  0.00  0.00    +0.197 C 
ATOM      8  O   LIG    1      -22.517  81.726  17.031  0.00  0.00    -0.287 OA
BRANCH   7  16
ATOM      9  N   LIG    1      -21.379  85.048  14.329  0.00  0.00    -0.338 N 
ATOM     10  C   LIG    1      -20.481  84.119  13.801  0.00  0.00    +0.053 A 
ATOM     11  C   LIG    1      -19.391  84.231  12.925  0.00  0.00    +0.046 A 
ATOM     12  C   LIG    1      -18.681  83.065  12.661  0.00  0.00    +0.113 A 
ATOM     13  N   LIG    1      -18.959  81.859  13.187  0.00  0.00    -0.263 NA
ATOM     14  C   LIG    1      -20.018  81.746  14.021  0.00  0.00    +0.121 A 
ATOM     15  C   LIG    1      -20.818  82.859  14.333  0.00  0.00    +0.029 A 
ATOM     16  C   LIG    1      -22.005  83.008  15.120  0.00  0.00    +0.049 A 
ATOM     17  C   LIG    1      -22.287  84.361  15.120  0.00  0.00    +0.099 A 
BRANCH   9  19
ATOM     18  C   LIG    1      -21.914  86.931  12.769  0.00  0.00    +0.036 C 
ATOM     19  C   LIG    1      -21.371  86.530  14.160  0.00  0.00    +0.063 C 
ATOM     20  C   LIG    1      -19.934  87.121  14.248  0.00  0.00    +0.036 C 
BRANCH  19  21
ATOM     21  C   LIG    1      -22.234  87.250  15.230  0.00  0.00    +0.183 C 
BRANCH  21  22
ATOM     22  O   LIG    1      -21.528  87.469  16.445  0.00  0.00    -0.393 OA
ATOM     23  H   LIG    1      -21.004  88.283  16.336  0.00  0.00    +0.209 HD
ENDBRANCH  21  22
ENDBRANCH  19  21
ENDBRANCH   9  19
ENDBRANCH   7  16
ENDBRANCH   1   7
BRANCH   3  24
ATOM     24  N   LIG    1      -24.658  77.478  14.849  0.00  0.00    -0.214 NA
ATOM     25  C   LIG    1      -23.796  76.732  14.227  0.00  0.00    +0.210 C 
BRANCH  25  26
ATOM     26  O   LIG    1      -22.955  77.228  13.292  0.00  0.00    -0.494 OA
ATOM     27  H   LIG    1      -23.405  77.592  12.506  0.00  0.00    +0.293 HD
ENDBRANCH  25  26
BRANCH  25  28
ATOM     28  C   LIG    1      -23.680  75.252  14.468  0.00  0.00    +0.240 C 
BRANCH  28  29
ATOM     29  N   LIG    1      -22.713  74.914  15.494  0.00  0.00    -0.242 N 
ATOM     30  N   LIG    1      -21.423  75.278  15.363  0.00  0.00    -0.065 NA
ATOM     31  N   LIG    1      -20.728  74.645  16.303  0.00  0.00    -0.125 NA
ATOM     32  C   LIG    1      -21.597  73.869  17.040  0.00  0.00    +0.185 A 
ATOM     33  C   LIG    1      -22.877  74.075  16.556  0.00  0.00    +0.143 A 
BRANCH  32  34
ATOM     34  C   LIG    1      -21.135  72.956  18.126  0.00  0.00    +0.437 C 
ATOM     35  F   LIG    1      -20.925  71.686  17.695  0.00  0.00    -0.164 F 
ATOM     36  F   LIG    1      -22.015  72.888  19.160  0.00  0.00    -0.164 F 
ATOM     37  F   LIG    1      -19.956  73.381  18.660  0.00  0.00    -0.164 F 
ENDBRANCH  32  34
ENDBRANCH  28  29
ENDBRANCH  25  28
ENDBRANCH   3  24
TORSDOF 10
ENDMDL
MODEL 4
REMARK VINA RESULT:      -5.8      4.465      7.151
REMARK  Name = pdb/CHEMBL3910951.pdb
REMARK                            x       y       z     vdW  Elec       q    Type
REMARK                         _______ _______ _______ _____ _____    ______ ____
ROOT
ATOM      1  C   LIG    1      -40.227  77.006  25.548  0.00  0.00    +0.042 A 
ATOM      2  C   LIG    1      -39.031  77.502  26.107  0.00  0.00    +0.042 A 
ATOM      3  C   LIG    1      -39.006  77.967  27.428  0.00  0.00    +0.086 A 
ATOM      4  C   LIG    1      -40.207  77.841  28.136  0.00  0.00    +0.138 A 
ATOM      5  N   LIG    1      -41.378  77.382  27.640  0.00  0.00    -0.260 NA
ATOM      6  C   LIG    1      -41.357  76.967  26.357  0.00  0.00    +0.122 A 
ENDROOT
BRANCH   1   7
ATOM      7  C   LIG    1      -40.245  76.437  24.176  0.00  0.00    +0.197 C 
ATOM      8  O   LIG    1      -40.008  77.210  23.236  0.00  0.00    -0.287 OA
BRANCH   7  16
ATOM      9  N   LIG    1      -41.481  73.073  23.267  0.00  0.00    -0.338 N 
ATOM     10  C   LIG    1      -40.279  72.721  23.884  0.00  0.00    +0.053 A 
ATOM     11  C   LIG    1      -39.665  71.489  24.156  0.00  0.00    +0.046 A 
ATOM     12  C   LIG    1      -38.410  71.536  24.753  0.00  0.00    +0.113 A 
ATOM     13  N   LIG    1      -37.751  72.664  25.073  0.00  0.00    -0.263 NA
ATOM     14  C   LIG    1      -38.347  73.853  24.823  0.00  0.00    +0.121 A 
ATOM     15  C   LIG    1      -39.627  73.917  24.247  0.00  0.00    +0.029 A 
ATOM     16  C   LIG    1      -40.496  75.012  23.936  0.00  0.00    +0.049 A 
ATOM     17  C   LIG    1      -41.593  74.453  23.308  0.00  0.00    +0.099 A 
BRANCH   9  19
ATOM     18  C   LIG    1      -43.448  72.977  21.723  0.00  0.00    +0.036 C 
ATOM     19  C   LIG    1      -42.471  72.172  22.609  0.00  0.00    +0.063 C 
ATOM     20  C   LIG    1      -43.353  71.416  23.645  0.00  0.00    +0.036 C 
BRANCH  19  21
ATOM     21  C   LIG    1      -41.791  71.103  21.714  0.00  0.00    +0.183 C 
BRANCH  21  22
ATOM     22  O   LIG    1      -42.067  71.291  20.331  0.00  0.00    -0.393 OA
ATOM     23  H   LIG    1      -41.823  70.468  19.871  0.00  0.00    +0.209 HD
ENDBRANCH  21  22
ENDBRANCH  19  21
ENDBRANCH   9  19
ENDBRANCH   7  16
ENDBRANCH   1   7
BRANCH   3  24
ATOM     24  N   LIG    1      -37.803  78.439  28.013  0.00  0.00    -0.214 NA
ATOM     25  C   LIG    1      -37.478  79.692  27.905  0.00  0.00    +0.210 C 
BRANCH  25  26
ATOM     26  O   LIG    1      -38.180  80.555  27.138  0.00  0.00    -0.494 OA
ATOM     27  H   LIG    1      -37.646  81.284  26.770  0.00  0.00    +0.293 HD
ENDBRANCH  25  26
BRANCH  25  28
ATOM     28  C   LIG    1      -36.278  80.281  28.594  0.00  0.00    +0.240 C 
BRANCH  28  29
ATOM     29  N   LIG    1      -35.021  79.747  28.109  0.00  0.00    -0.242 N 
ATOM     30  N   LIG    1      -34.313  80.408  27.172  0.00  0.00    -0.065 NA
ATOM     31  N   LIG    1      -33.353  79.595  26.744  0.00  0.00    -0.125 NA
ATOM     32  C   LIG    1      -33.457  78.401  27.423  0.00  0.00    +0.185 A 
ATOM     33  C   LIG    1      -34.493  78.510  28.333  0.00  0.00    +0.143 A 
BRANCH  32  34
ATOM     34  C   LIG    1      -32.583  77.228  27.125  0.00  0.00    +0.437 C 
ATOM     35  F   LIG    1      -31.800  77.418  26.032  0.00  0.00    -0.164 F 
ATOM     36  F   LIG    1      -33.293  76.088  26.918  0.00  0.00    -0.164 F 
ATOM     37  F   LIG    1      -31.739  76.965  28.162  0.00  0.00    -0.164 F 
ENDBRANCH  32  34
ENDBRANCH  28  29
ENDBRANCH  25  28
ENDBRANCH   3  24
TORSDOF 10
ENDMDL
MODEL 5
REMARK VINA RESULT:      -5.8      5.801      8.309
REMARK  Name = pdb/CHEMBL3910951.pdb
REMARK                            x       y       z     vdW  Elec       q    Type
REMARK                         _______ _______ _______ _____ _____    ______ ____
ROOT
ATOM      1  C   LIG    1      -33.404  77.793  28.008  0.00  0.00    +0.042 A 
ATOM      2  C   LIG    1      -32.253  77.313  28.666  0.00  0.00    +0.042 A 
ATOM      3  C   LIG    1      -32.203  75.992  29.130  0.00  0.00    +0.086 A 
ATOM      4  C   LIG    1      -33.321  75.205  28.836  0.00  0.00    +0.138 A 
ATOM      5  N   LIG    1      -34.449  75.624  28.218  0.00  0.00    -0.260 NA
ATOM      6  C   LIG    1      -34.458  76.909  27.810  0.00  0.00    +0.122 A 
ENDROOT
BRANCH   1   7
ATOM      7  C   LIG    1      -33.437  79.167  27.443  0.00  0.00    +0.197 C 
ATOM      8  O   LIG    1      -32.708  79.399  26.468  0.00  0.00    -0.287 OA
BRANCH   7  16
ATOM      9  N   LIG    1      -35.716  81.994  28.139  0.00  0.00    -0.338 N 
ATOM     10  C   LIG    1      -35.559  81.496  29.434  0.00  0.00    +0.053 A 
ATOM     11  C   LIG    1      -36.047  81.905  30.685  0.00  0.00    +0.046 A 
ATOM     12  C   LIG    1      -35.713  81.110  31.775  0.00  0.00    +0.113 A 
ATOM     13  N   LIG    1      -34.974  79.988  31.711  0.00  0.00    -0.263 NA
ATOM     14  C   LIG    1      -34.492  79.599  30.508  0.00  0.00    +0.121 A 
ATOM     15  C   LIG    1      -34.748  80.347  29.347  0.00  0.00    +0.029 A 
ATOM     16  C   LIG    1      -34.322  80.203  27.988  0.00  0.00    +0.049 A 
ATOM     17  C   LIG    1      -34.966  81.203  27.284  0.00  0.00    +0.099 A 
BRANCH   9  19
ATOM     18  C   LIG    1      -38.059  82.870  28.041  0.00  0.00    +0.036 C 
ATOM     19  C   LIG    1      -36.576  83.128  27.691  0.00  0.00    +0.063 C 
ATOM     20  C   LIG    1      -36.525  83.326  26.148  0.00  0.00    +0.036 C 
BRANCH  19  21
ATOM     21  C   LIG    1      -36.163  84.474  28.344  0.00  0.00    +0.183 C 
BRANCH  21  22
ATOM     22  O   LIG    1      -34.797  84.797  28.114  0.00  0.00    -0.393 OA
ATOM     23  H   LIG    1      -34.715  85.074  27.183  0.00  0.00    +0.209 HD
ENDBRANCH  21  22
ENDBRANCH  19  21
ENDBRANCH   9  19
ENDBRANCH   7  16
ENDBRANCH   1   7
BRANCH   3  24
ATOM     24  N   LIG    1      -31.040  75.486  29.765  0.00  0.00    -0.214 NA
ATOM     25  C   LIG    1      -30.857  75.685  31.036  0.00  0.00    +0.210 C 
BRANCH  25  26
ATOM     26  O   LIG    1      -31.674  76.476  31.766  0.00  0.00    -0.494 OA
ATOM     27  H   LIG    1      -31.344  76.667  32.665  0.00  0.00    +0.293 HD
ENDBRANCH  25  26
BRANCH  25  28
ATOM     28  C   LIG    1      -29.707  75.083  31.795  0.00  0.00    +0.240 C 
BRANCH  28  29
ATOM     29  N   LIG    1      -28.526  75.924  31.805  0.00  0.00    -0.242 N 
ATOM     30  N   LIG    1      -28.616  77.231  31.494  0.00  0.00    -0.065 NA
ATOM     31  N   LIG    1      -27.379  77.697  31.347  0.00  0.00    -0.125 NA
ATOM     32  C   LIG    1      -26.495  76.664  31.571  0.00  0.00    +0.185 A 
ATOM     33  C   LIG    1      -27.223  75.538  31.912  0.00  0.00    +0.143 A 
BRANCH  32  34
ATOM     34  C   LIG    1      -25.020  76.818  31.403  0.00  0.00    +0.437 C 
ATOM     35  F   LIG    1      -24.326  75.722  31.803  0.00  0.00    -0.164 F 
ATOM     36  F   LIG    1      -24.525  77.880  32.091  0.00  0.00    -0.164 F 
ATOM     37  F   LIG    1      -24.690  77.026  30.098  0.00  0.00    -0.164 F 
ENDBRANCH  32  34
ENDBRANCH  28  29
ENDBRANCH  25  28
ENDBRANCH   3  24
TORSDOF 10
ENDMDL
MODEL 6
REMARK VINA RESULT:      -5.7      8.907     12.213
REMARK  Name = pdb/CHEMBL3910951.pdb
REMARK                            x       y       z     vdW  Elec       q    Type
REMARK                         _______ _______ _______ _____ _____    ______ ____
ROOT
ATOM      1  C   LIG    1      -32.821  85.794  30.746  0.00  0.00    +0.042 A 
ATOM      2  C   LIG    1      -33.183  84.601  30.087  0.00  0.00    +0.042 A 
ATOM      3  C   LIG    1      -34.531  84.310  29.840  0.00  0.00    +0.086 A 
ATOM      4  C   LIG    1      -35.444  85.297  30.228  0.00  0.00    +0.138 A 
ATOM      5  N   LIG    1      -35.144  86.449  30.870  0.00  0.00    -0.260 NA
ATOM      6  C   LIG    1      -33.835  86.673  31.106  0.00  0.00    +0.122 A 
ENDROOT
BRANCH   1   7
ATOM      7  C   LIG    1      -31.391  86.149  30.943  0.00  0.00    +0.197 C 
ATOM      8  O   LIG    1      -30.679  86.222  29.931  0.00  0.00    -0.287 OA
BRANCH   7  16
ATOM      9  N   LIG    1      -29.787  87.481  33.996  0.00  0.00    -0.338 N 
ATOM     10  C   LIG    1      -30.274  86.273  34.496  0.00  0.00    +0.053 A 
ATOM     11  C   LIG    1      -30.192  85.652  35.753  0.00  0.00    +0.046 A 
ATOM     12  C   LIG    1      -30.865  84.444  35.896  0.00  0.00    +0.113 A 
ATOM     13  N   LIG    1      -31.585  83.844  34.931  0.00  0.00    -0.263 NA
ATOM     14  C   LIG    1      -31.654  84.434  33.715  0.00  0.00    +0.121 A 
ATOM     15  C   LIG    1      -30.988  85.644  33.456  0.00  0.00    +0.029 A 
ATOM     16  C   LIG    1      -30.846  86.438  32.273  0.00  0.00    +0.049 A 
ATOM     17  C   LIG    1      -30.141  87.562  32.658  0.00  0.00    +0.099 A 
BRANCH   9  19
ATOM     18  C   LIG    1      -29.862  88.994  35.988  0.00  0.00    +0.036 C 
ATOM     19  C   LIG    1      -29.066  88.556  34.737  0.00  0.00    +0.063 C 
ATOM     20  C   LIG    1      -28.881  89.838  33.874  0.00  0.00    +0.036 C 
BRANCH  19  21
ATOM     21  C   LIG    1      -27.657  88.107  35.205  0.00  0.00    +0.183 C 
BRANCH  21  22
ATOM     22  O   LIG    1      -27.068  87.153  34.331  0.00  0.00    -0.393 OA
ATOM     23  H   LIG    1      -26.235  86.857  34.740  0.00  0.00    +0.209 HD
ENDBRANCH  21  22
ENDBRANCH  19  21
ENDBRANCH   9  19
ENDBRANCH   7  16
ENDBRANCH   1   7
BRANCH   3  24
ATOM     24  N   LIG    1      -34.908  83.130  29.150  0.00  0.00    -0.214 NA
ATOM     25  C   LIG    1      -34.983  82.001  29.790  0.00  0.00    +0.210 C 
BRANCH  25  26
ATOM     26  O   LIG    1      -34.588  81.874  31.076  0.00  0.00    -0.494 OA
ATOM     27  H   LIG    1      -35.318  81.703  31.701  0.00  0.00    +0.293 HD
ENDBRANCH  25  26
BRANCH  25  28
ATOM     28  C   LIG    1      -35.484  80.737  29.148  0.00  0.00    +0.240 C 
BRANCH  28  29
ATOM     29  N   LIG    1      -34.459  80.028  28.406  0.00  0.00    -0.242 N 
ATOM     30  N   LIG    1      -34.086  80.452  27.183  0.00  0.00    -0.065 NA
ATOM     31  N   LIG    1      -33.327  79.503  26.643  0.00  0.00    -0.125 NA
ATOM     32  C   LIG    1      -33.220  78.464  27.542  0.00  0.00    +0.185 A 
ATOM     33  C   LIG    1      -33.904  78.816  28.692  0.00  0.00    +0.143 A 
BRANCH  32  34
ATOM     34  C   LIG    1      -32.506  77.194  27.221  0.00  0.00    +0.437 C 
ATOM     35  F   LIG    1      -33.351  76.155  27.000  0.00  0.00    -0.164 F 
ATOM     36  F   LIG    1      -31.651  76.813  28.207  0.00  0.00    -0.164 F 
ATOM     37  F   LIG    1      -31.751  77.323  26.095  0.00  0.00    -0.164 F 
ENDBRANCH  32  34
ENDBRANCH  28  29
ENDBRANCH  25  28
ENDBRANCH   3  24
TORSDOF 10
ENDMDL
MODEL 7
REMARK VINA RESULT:      -5.7     19.046     22.465
REMARK  Name = pdb/CHEMBL3910951.pdb
REMARK                            x       y       z     vdW  Elec       q    Type
REMARK                         _______ _______ _______ _____ _____    ______ ____
ROOT
ATOM      1  C   LIG    1      -22.565  87.723  12.525  0.00  0.00    +0.042 A 
ATOM      2  C   LIG    1      -23.157  89.002  12.460  0.00  0.00    +0.042 A 
ATOM      3  C   LIG    1      -23.555  89.536  11.228  0.00  0.00    +0.086 A 
ATOM      4  C   LIG    1      -23.381  88.698  10.121  0.00  0.00    +0.138 A 
ATOM      5  N   LIG    1      -22.811  87.472  10.134  0.00  0.00    -0.260 NA
ATOM      6  C   LIG    1      -22.424  87.011  11.340  0.00  0.00    +0.122 A 
ENDROOT
BRANCH   1   7
ATOM      7  C   LIG    1      -22.212  87.115  13.834  0.00  0.00    +0.197 C 
ATOM      8  O   LIG    1      -22.353  87.819  14.844  0.00  0.00    -0.287 OA
BRANCH   7  16
ATOM      9  N   LIG    1      -21.731  83.473  14.251  0.00  0.00    -0.338 N 
ATOM     10  C   LIG    1      -20.422  83.848  13.943  0.00  0.00    +0.053 A 
ATOM     11  C   LIG    1      -19.219  83.133  13.841  0.00  0.00    +0.046 A 
ATOM     12  C   LIG    1      -18.096  83.855  13.451  0.00  0.00    +0.113 A 
ATOM     13  N   LIG    1      -18.088  85.168  13.161  0.00  0.00    -0.263 NA
ATOM     14  C   LIG    1      -19.244  85.862  13.272  0.00  0.00    +0.121 A 
ATOM     15  C   LIG    1      -20.432  85.233  13.684  0.00  0.00    +0.029 A 
ATOM     16  C   LIG    1      -21.751  85.727  13.939  0.00  0.00    +0.049 A 
ATOM     17  C   LIG    1      -22.515  84.616  14.243  0.00  0.00    +0.099 A 
BRANCH   9  19
ATOM     18  C   LIG    1      -21.754  81.117  13.409  0.00  0.00    +0.036 C 
ATOM     19  C   LIG    1      -22.259  82.099  14.490  0.00  0.00    +0.063 C 
ATOM     20  C   LIG    1      -23.813  82.050  14.425  0.00  0.00    +0.036 C 
BRANCH  19  21
ATOM     21  C   LIG    1      -21.836  81.538  15.874  0.00  0.00    +0.183 C 
BRANCH  21  22
ATOM     22  O   LIG    1      -21.696  82.555  16.858  0.00  0.00    -0.393 OA
ATOM     23  H   LIG    1      -21.422  82.124  17.686  0.00  0.00    +0.209 HD
ENDBRANCH  21  22
ENDBRANCH  19  21
ENDBRANCH   9  19
ENDBRANCH   7  16
ENDBRANCH   1   7
BRANCH   3  24
ATOM     24  N   LIG    1      -24.181  90.807  11.152  0.00  0.00    -0.214 NA
ATOM     25  C   LIG    1      -25.471  90.902  11.275  0.00  0.00    +0.210 C 
BRANCH  25  26
ATOM     26  O   LIG    1      -26.270  89.815  11.347  0.00  0.00    -0.494 OA
ATOM     27  H   LIG    1      -25.936  89.114  11.938  0.00  0.00    +0.293 HD
ENDBRANCH  25  26
BRANCH  25  28
ATOM     28  C   LIG    1      -26.187  92.224  11.317  0.00  0.00    +0.240 C 
BRANCH  28  29
ATOM     29  N   LIG    1      -26.733  92.537  12.623  0.00  0.00    -0.242 N 
ATOM     30  N   LIG    1      -26.798  91.591  13.581  0.00  0.00    -0.065 NA
ATOM     31  N   LIG    1      -27.545  92.071  14.570  0.00  0.00    -0.125 NA
ATOM     32  C   LIG    1      -27.958  93.341  14.230  0.00  0.00    +0.185 A 
ATOM     33  C   LIG    1      -27.401  93.662  13.005  0.00  0.00    +0.143 A 
BRANCH  32  34
ATOM     34  C   LIG    1      -28.888  94.139  15.081  0.00  0.00    +0.437 C 
ATOM     35  F   LIG    1      -29.768  94.875  14.355  0.00  0.00    -0.164 F 
ATOM     36  F   LIG    1      -28.233  94.997  15.907  0.00  0.00    -0.164 F 
ATOM     37  F   LIG    1      -29.634  93.333  15.887  0.00  0.00    -0.164 F 
ENDBRANCH  32  34
ENDBRANCH  28  29
ENDBRANCH  25  28
ENDBRANCH   3  24
TORSDOF 10
ENDMDL
MODEL 8
REMARK VINA RESULT:      -5.7     16.828     19.645
REMARK  Name = pdb/CHEMBL3910951.pdb
REMARK                            x       y       z     vdW  Elec       q    Type
REMARK                         _______ _______ _______ _____ _____    ______ ____
ROOT
ATOM      1  C   LIG    1      -20.287  80.797  15.771  0.00  0.00    +0.042 A 
ATOM      2  C   LIG    1      -20.110  79.517  16.335  0.00  0.00    +0.042 A 
ATOM      3  C   LIG    1      -18.855  78.895  16.300  0.00  0.00    +0.086 A 
ATOM      4  C   LIG    1      -17.821  79.652  15.739  0.00  0.00    +0.138 A 
ATOM      5  N   LIG    1      -17.945  80.877  15.179  0.00  0.00    -0.260 NA
ATOM      6  C   LIG    1      -19.177  81.423  15.217  0.00  0.00    +0.122 A 
ENDROOT
BRANCH   1   7
ATOM      7  C   LIG    1      -21.594  81.498  15.873  0.00  0.00    +0.197 C 
ATOM      8  O   LIG    1      -21.737  82.301  16.805  0.00  0.00    -0.287 OA
BRANCH   7  16
ATOM      9  N   LIG    1      -23.942  81.439  13.018  0.00  0.00    -0.338 N 
ATOM     10  C   LIG    1      -24.550  80.489  13.840  0.00  0.00    +0.053 A 
ATOM     11  C   LIG    1      -25.720  79.723  13.718  0.00  0.00    +0.046 A 
ATOM     12  C   LIG    1      -25.982  78.818  14.741  0.00  0.00    +0.113 A 
ATOM     13  N   LIG    1      -25.198  78.624  15.816  0.00  0.00    -0.263 NA
ATOM     14  C   LIG    1      -24.077  79.370  15.942  0.00  0.00    +0.121 A 
ATOM     15  C   LIG    1      -23.733  80.333  14.977  0.00  0.00    +0.029 A 
ATOM     16  C   LIG    1      -22.663  81.280  14.892  0.00  0.00    +0.049 A 
ATOM     17  C   LIG    1      -22.809  81.902  13.668  0.00  0.00    +0.099 A 
BRANCH   9  19
ATOM     18  C   LIG    1      -24.267  80.694  10.651  0.00  0.00    +0.036 C 
ATOM     19  C   LIG    1      -24.357  81.868  11.651  0.00  0.00    +0.063 C 
ATOM     20  C   LIG    1      -23.435  82.988  11.085  0.00  0.00    +0.036 C 
BRANCH  19  21
ATOM     21  C   LIG    1      -25.812  82.407  11.619  0.00  0.00    +0.183 C 
BRANCH  21  22
ATOM     22  O   LIG    1      -26.077  83.329  12.669  0.00  0.00    -0.393 OA
ATOM     23  H   LIG    1      -25.409  83.183  13.361  0.00  0.00    +0.209 HD
ENDBRANCH  21  22
ENDBRANCH  19  21
ENDBRANCH   9  19
ENDBRANCH   7  16
ENDBRANCH   1   7
BRANCH   3  24
ATOM     24  N   LIG    1      -18.655  77.622  16.892  0.00  0.00    -0.214 NA
ATOM     25  C   LIG    1      -18.699  76.551  16.156  0.00  0.00    +0.210 C 
BRANCH  25  26
ATOM     26  O   LIG    1      -19.059  76.586  14.854  0.00  0.00    -0.494 OA
ATOM     27  H   LIG    1      -18.893  75.753  14.374  0.00  0.00    +0.293 HD
ENDBRANCH  25  26
BRANCH  25  28
ATOM     28  C   LIG    1      -18.385  75.183  16.695  0.00  0.00    +0.240 C 
BRANCH  28  29
ATOM     29  N   LIG    1      -19.567  74.378  16.935  0.00  0.00    -0.242 N 
ATOM     30  N   LIG    1      -20.710  74.629  16.268  0.00  0.00    -0.065 NA
ATOM     31  N   LIG    1      -21.676  73.920  16.844  0.00  0.00    -0.125 NA
ATOM     32  C   LIG    1      -21.132  73.210  17.892  0.00  0.00    +0.185 A 
ATOM     33  C   LIG    1      -19.772  73.464  17.925  0.00  0.00    +0.143 A 
BRANCH  32  34
ATOM     34  C   LIG    1      -21.957  72.373  18.812  0.00  0.00    +0.437 C 
ATOM     35  F   LIG    1      -22.913  73.087  19.460  0.00  0.00    -0.164 F 
ATOM     36  F   LIG    1      -21.211  71.748  19.759  0.00  0.00    -0.164 F 
ATOM     37  F   LIG    1      -22.608  71.388  18.132  0.00  0.00    -0.164 F 
ENDBRANCH  32  34
ENDBRANCH  28  29
ENDBRANCH  25  28
ENDBRANCH   3  24
TORSDOF 10
ENDMDL
MODEL 9
REMARK VINA RESULT:      -5.6      9.077     12.395
REMARK  Name = pdb/CHEMBL3910951.pdb
REMARK                            x       y       z     vdW  Elec       q    Type
REMARK                         _______ _______ _______ _____ _____    ______ ____
ROOT
ATOM      1  C   LIG    1      -32.874  85.632  31.037  0.00  0.00    +0.042 A 
ATOM      2  C   LIG    1      -33.222  84.505  30.263  0.00  0.00    +0.042 A 
ATOM      3  C   LIG    1      -34.563  84.124  30.130  0.00  0.00    +0.086 A 
ATOM      4  C   LIG    1      -35.495  84.964  30.750  0.00  0.00    +0.138 A 
ATOM      5  N   LIG    1      -35.208  86.047  31.508  0.00  0.00    -0.260 NA
ATOM      6  C   LIG    1      -33.902  86.359  31.625  0.00  0.00    +0.122 A 
ENDROOT
BRANCH   1   7
ATOM      7  C   LIG    1      -31.463  86.089  31.120  0.00  0.00    +0.197 C 
ATOM      8  O   LIG    1      -30.790  86.049  30.081  0.00  0.00    -0.287 OA
BRANCH   7  16
ATOM      9  N   LIG    1      -29.934  86.697  34.431  0.00  0.00    -0.338 N 
ATOM     10  C   LIG    1      -30.155  88.016  34.031  0.00  0.00    +0.053 A 
ATOM     11  C   LIG    1      -29.934  89.256  34.649  0.00  0.00    +0.046 A 
ATOM     12  C   LIG    1      -30.237  90.389  33.901  0.00  0.00    +0.113 A 
ATOM     13  N   LIG    1      -30.712  90.376  32.643  0.00  0.00    -0.263 NA
ATOM     14  C   LIG    1      -30.939  89.181  32.050  0.00  0.00    +0.121 A 
ATOM     15  C   LIG    1      -30.691  87.975  32.728  0.00  0.00    +0.029 A 
ATOM     16  C   LIG    1      -30.893  86.603  32.370  0.00  0.00    +0.049 A 
ATOM     17  C   LIG    1      -30.383  85.863  33.420  0.00  0.00    +0.099 A 
BRANCH   9  19
ATOM     18  C   LIG    1      -30.084  86.642  36.929  0.00  0.00    +0.036 C 
ATOM     19  C   LIG    1      -29.277  86.217  35.681  0.00  0.00    +0.063 C 
ATOM     20  C   LIG    1      -27.854  86.821  35.863  0.00  0.00    +0.036 C 
BRANCH  19  21
ATOM     21  C   LIG    1      -29.132  84.673  35.715  0.00  0.00    +0.183 C 
BRANCH  21  22
ATOM     22  O   LIG    1      -27.784  84.246  35.562  0.00  0.00    -0.393 OA
ATOM     23  H   LIG    1      -27.644  83.499  36.171  0.00  0.00    +0.209 HD
ENDBRANCH  21  22
ENDBRANCH  19  21
ENDBRANCH   9  19
ENDBRANCH   7  16
ENDBRANCH   1   7
BRANCH   3  24
ATOM     24  N   LIG    1      -34.930  83.012  29.329  0.00  0.00    -0.214 NA
ATOM     25  C   LIG    1      -35.029  81.833  29.865  0.00  0.00    +0.210 C 
BRANCH  25  26
ATOM     26  O   LIG    1      -34.668  81.590  31.144  0.00  0.00    -0.494 OA
ATOM     27  H   LIG    1      -34.913  80.701  31.465  0.00  0.00    +0.293 HD
ENDBRANCH  25  26
BRANCH  25  28
ATOM     28  C   LIG    1      -35.521  80.634  29.102  0.00  0.00    +0.240 C 
BRANCH  28  29
ATOM     29  N   LIG    1      -34.471  79.951  28.372  0.00  0.00    -0.242 N 
ATOM     30  N   LIG    1      -34.099  80.379  27.150  0.00  0.00    -0.065 NA
ATOM     31  N   LIG    1      -33.310  79.449  26.621  0.00  0.00    -0.125 NA
ATOM     32  C   LIG    1      -33.181  78.418  27.526  0.00  0.00    +0.185 A 
ATOM     33  C   LIG    1      -33.885  78.756  28.668  0.00  0.00    +0.143 A 
BRANCH  32  34
ATOM     34  C   LIG    1      -32.429  77.167  27.217  0.00  0.00    +0.437 C 
ATOM     35  F   LIG    1      -31.663  76.742  28.254  0.00  0.00    -0.164 F 
ATOM     36  F   LIG    1      -31.610  77.302  26.142  0.00  0.00    -0.164 F 
ATOM     37  F   LIG    1      -33.276  76.142  26.921  0.00  0.00    -0.164 F 
ENDBRANCH  32  34
ENDBRANCH  28  29
ENDBRANCH  25  28
ENDBRANCH   3  24
TORSDOF 10
ENDMDL
