MODEL 1
REMARK VINA RESULT:      -6.2      0.000      0.000
REMARK  Name = pdb/CHEMBL3673488.pdb
REMARK                            x       y       z     vdW  Elec       q    Type
REMARK                         _______ _______ _______ _____ _____    ______ ____
ROOT
ATOM      1  C   LIG    1      -32.780  94.430  25.394  0.00  0.00    +0.161 C 
ENDROOT
BRANCH   1   2
ATOM      2  N   LIG    1      -31.710  94.468  24.403  0.00  0.00    -0.293 N 
ATOM      3  C   LIG    1      -31.875  93.989  23.117  0.00  0.00    +0.162 A 
ATOM      4  N   LIG    1      -32.911  93.247  22.638  0.00  0.00    -0.235 NA
ATOM      5  C   LIG    1      -32.814  93.053  21.293  0.00  0.00    +0.123 A 
ATOM      6  C   LIG    1      -31.812  93.497  20.412  0.00  0.00    +0.021 A 
ATOM      7  C   LIG    1      -30.764  94.217  21.017  0.00  0.00    +0.043 A 
ATOM      8  C   LIG    1      -30.807  94.472  22.394  0.00  0.00    +0.110 A 
ATOM      9  N   LIG    1      -29.963  95.178  23.223  0.00  0.00    -0.213 NA
ATOM     10  C   LIG    1      -30.517  95.159  24.377  0.00  0.00    +0.195 A 
BRANCH   6  11
ATOM     11  C   LIG    1      -31.849  93.248  18.946  0.00  0.00    +0.072 A 
ATOM     12  N   LIG    1      -32.747  92.319  18.525  0.00  0.00    -0.255 NA
ATOM     13  C   LIG    1      -32.845  92.064  17.201  0.00  0.00    +0.111 A 
ATOM     14  C   LIG    1      -32.081  92.691  16.235  0.00  0.00    +0.020 A 
ATOM     15  C   LIG    1      -31.155  93.629  16.658  0.00  0.00    +0.004 A 
ATOM     16  C   LIG    1      -31.032  93.907  18.020  0.00  0.00    +0.028 A 
ENDBRANCH   6  11
BRANCH  10  17
ATOM     17  N   LIG    1      -30.003  95.754  25.501  0.00  0.00    -0.329 N 
ATOM     18  H   LIG    1      -30.101  95.190  26.335  0.00  0.00    +0.145 HD
ATOM     19  H   LIG    1      -30.150  96.731  25.682  0.00  0.00    +0.145 HD
ENDBRANCH  10  17
ENDBRANCH   1   2
BRANCH   1  23
ATOM     20  C   LIG    1      -33.037  91.111  28.266  0.00  0.00    +0.162 A 
ATOM     21  C   LIG    1      -32.697  92.421  28.667  0.00  0.00    +0.162 A 
ATOM     22  C   LIG    1      -32.446  93.441  27.714  0.00  0.00    +0.054 A 
ATOM     23  C   LIG    1      -32.807  93.273  26.376  0.00  0.00    -0.024 A 
ATOM     24  C   LIG    1      -33.330  92.032  26.016  0.00  0.00    +0.009 A 
ATOM     25  C   LIG    1      -33.395  90.962  26.928  0.00  0.00    +0.050 A 
BRANCH  21  26
ATOM     26  O   LIG    1      -32.692  92.932  29.943  0.00  0.00    -0.491 OA
ATOM     27  C   LIG    1      -31.443  93.371  30.467  0.00  0.00    +0.277 C 
ENDBRANCH  21  26
BRANCH  20  28
ATOM     28  O   LIG    1      -32.969  90.044  29.150  0.00  0.00    -0.484 OA
BRANCH  28  29
ATOM     29  C   LIG    1      -33.621  88.794  28.803  0.00  0.00    +0.266 C 
BRANCH  29  33
ATOM     30  C   LIG    1      -31.794  85.451  30.728  0.00  0.00    +0.214 A 
ATOM     31  N   LIG    1      -31.253  86.672  30.909  0.00  0.00    -0.221 NA
ATOM     32  C   LIG    1      -31.829  87.698  30.233  0.00  0.00    +0.121 A 
ATOM     33  C   LIG    1      -32.915  87.569  29.369  0.00  0.00    +0.008 A 
ATOM     34  C   LIG    1      -33.319  86.261  29.075  0.00  0.00    +0.013 A 
ATOM     35  C   LIG    1      -32.781  85.189  29.792  0.00  0.00    +0.067 A 
BRANCH  30  37
ATOM     36  C   LIG    1      -31.224  84.845  32.918  0.00  0.00    +0.279 C 
ATOM     37  O   LIG    1      -31.467  84.415  31.584  0.00  0.00    -0.480 OA
ENDBRANCH  30  37
ENDBRANCH  29  33
ENDBRANCH  28  29
ENDBRANCH  20  28
ENDBRANCH   1  23
TORSDOF 9
ENDMDL
MODEL 2
REMARK VINA RESULT:      -6.2     16.327     19.689
REMARK  Name = pdb/CHEMBL3673488.pdb
REMARK                            x       y       z     vdW  Elec       q    Type
REMARK                         _______ _______ _______ _____ _____    ______ ____
ROOT
ATOM      1  C   LIG    1      -29.067  78.345  10.273  0.00  0.00    +0.161 C 
ENDROOT
BRANCH   1   2
ATOM      2  N   LIG    1      -28.354  77.838  11.440  0.00  0.00    -0.293 N 
ATOM      3  C   LIG    1      -27.308  78.529  12.026  0.00  0.00    +0.162 A 
ATOM      4  N   LIG    1      -26.654  79.614  11.529  0.00  0.00    -0.235 NA
ATOM      5  C   LIG    1      -25.759  80.117  12.424  0.00  0.00    +0.123 A 
ATOM      6  C   LIG    1      -25.451  79.651  13.713  0.00  0.00    +0.021 A 
ATOM      7  C   LIG    1      -26.151  78.497  14.113  0.00  0.00    +0.043 A 
ATOM      8  C   LIG    1      -27.103  77.936  13.251  0.00  0.00    +0.110 A 
ATOM      9  N   LIG    1      -27.953  76.861  13.398  0.00  0.00    -0.213 NA
ATOM     10  C   LIG    1      -28.665  76.836  12.334  0.00  0.00    +0.195 A 
BRANCH   6  11
ATOM     11  C   LIG    1      -24.472  80.323  14.610  0.00  0.00    +0.072 A 
ATOM     12  N   LIG    1      -24.315  81.660  14.419  0.00  0.00    -0.255 NA
ATOM     13  C   LIG    1      -23.457  82.333  15.218  0.00  0.00    +0.111 A 
ATOM     14  C   LIG    1      -22.718  81.746  16.228  0.00  0.00    +0.020 A 
ATOM     15  C   LIG    1      -22.864  80.382  16.419  0.00  0.00    +0.004 A 
ATOM     16  C   LIG    1      -23.741  79.664  15.604  0.00  0.00    +0.028 A 
ENDBRANCH   6  11
BRANCH  10  17
ATOM     17  N   LIG    1      -29.648  75.916  12.073  0.00  0.00    -0.329 N 
ATOM     18  H   LIG    1      -29.949  75.912  11.108  0.00  0.00    +0.145 HD
ATOM     19  H   LIG    1      -30.412  75.780  12.711  0.00  0.00    +0.145 HD
ENDBRANCH  10  17
ENDBRANCH   1   2
BRANCH   1  23
ATOM     20  C   LIG    1      -32.449  81.105  10.800  0.00  0.00    +0.162 A 
ATOM     21  C   LIG    1      -31.429  81.345   9.853  0.00  0.00    +0.162 A 
ATOM     22  C   LIG    1      -30.258  80.545   9.814  0.00  0.00    +0.054 A 
ATOM     23  C   LIG    1      -30.200  79.330  10.498  0.00  0.00    -0.024 A 
ATOM     24  C   LIG    1      -31.300  78.997  11.286  0.00  0.00    +0.009 A 
ATOM     25  C   LIG    1      -32.375  79.887  11.473  0.00  0.00    +0.050 A 
BRANCH  21  26
ATOM     26  O   LIG    1      -31.454  82.228   8.800  0.00  0.00    -0.491 OA
ATOM     27  C   LIG    1      -31.761  81.702   7.514  0.00  0.00    +0.277 C 
ENDBRANCH  21  26
BRANCH  20  28
ATOM     28  O   LIG    1      -33.427  82.052  11.064  0.00  0.00    -0.484 OA
BRANCH  28  29
ATOM     29  C   LIG    1      -34.668  82.018  10.311  0.00  0.00    +0.266 C 
BRANCH  29  33
ATOM     30  C   LIG    1      -37.631  84.802  11.611  0.00  0.00    +0.214 A 
ATOM     31  N   LIG    1      -37.887  84.054  10.519  0.00  0.00    -0.221 NA
ATOM     32  C   LIG    1      -36.896  83.224  10.106  0.00  0.00    +0.121 A 
ATOM     33  C   LIG    1      -35.649  83.109  10.718  0.00  0.00    +0.008 A 
ATOM     34  C   LIG    1      -35.370  84.037  11.730  0.00  0.00    +0.013 A 
ATOM     35  C   LIG    1      -36.385  84.868  12.211  0.00  0.00    +0.067 A 
BRANCH  30  37
ATOM     36  C   LIG    1      -39.162  84.719  13.383  0.00  0.00    +0.279 C 
ATOM     37  O   LIG    1      -38.665  85.446  12.265  0.00  0.00    -0.480 OA
ENDBRANCH  30  37
ENDBRANCH  29  33
ENDBRANCH  28  29
ENDBRANCH  20  28
ENDBRANCH   1  23
TORSDOF 9
ENDMDL
MODEL 3
REMARK VINA RESULT:      -6.0     12.797     18.063
REMARK  Name = pdb/CHEMBL3673488.pdb
REMARK                            x       y       z     vdW  Elec       q    Type
REMARK                         _______ _______ _______ _____ _____    ______ ____
ROOT
ATOM      1  C   LIG    1      -29.194  76.187  32.528  0.00  0.00    +0.161 C 
ENDROOT
BRANCH   1   2
ATOM      2  N   LIG    1      -28.055  75.368  32.132  0.00  0.00    -0.293 N 
ATOM      3  C   LIG    1      -26.856  75.918  31.716  0.00  0.00    +0.162 A 
ATOM      4  N   LIG    1      -26.608  77.220  31.407  0.00  0.00    -0.235 NA
ATOM      5  C   LIG    1      -25.287  77.436  31.154  0.00  0.00    +0.123 A 
ATOM      6  C   LIG    1      -24.229  76.510  31.163  0.00  0.00    +0.021 A 
ATOM      7  C   LIG    1      -24.601  75.183  31.451  0.00  0.00    +0.043 A 
ATOM      8  C   LIG    1      -25.940  74.890  31.740  0.00  0.00    +0.110 A 
ATOM      9  N   LIG    1      -26.566  73.715  32.098  0.00  0.00    -0.213 NA
ATOM     10  C   LIG    1      -27.787  74.029  32.321  0.00  0.00    +0.195 A 
BRANCH   6  11
ATOM     11  C   LIG    1      -22.814  76.889  30.906  0.00  0.00    +0.072 A 
ATOM     12  N   LIG    1      -22.153  77.453  31.951  0.00  0.00    -0.255 NA
ATOM     13  C   LIG    1      -20.855  77.798  31.788  0.00  0.00    +0.111 A 
ATOM     14  C   LIG    1      -20.149  77.616  30.614  0.00  0.00    +0.020 A 
ATOM     15  C   LIG    1      -20.820  77.054  29.542  0.00  0.00    +0.004 A 
ATOM     16  C   LIG    1      -22.161  76.693  29.684  0.00  0.00    +0.028 A 
ENDBRANCH   6  11
BRANCH  10  17
ATOM     17  N   LIG    1      -28.761  73.145  32.709  0.00  0.00    -0.329 N 
ATOM     18  H   LIG    1      -28.420  72.407  33.310  0.00  0.00    +0.145 HD
ATOM     19  H   LIG    1      -29.451  72.816  32.057  0.00  0.00    +0.145 HD
ENDBRANCH  10  17
ENDBRANCH   1   2
BRANCH   1  23
ATOM     20  C   LIG    1      -32.909  75.981  30.185  0.00  0.00    +0.162 A 
ATOM     21  C   LIG    1      -32.910  76.300  31.560  0.00  0.00    +0.162 A 
ATOM     22  C   LIG    1      -31.731  76.192  32.342  0.00  0.00    +0.054 A 
ATOM     23  C   LIG    1      -30.482  76.055  31.735  0.00  0.00    -0.024 A 
ATOM     24  C   LIG    1      -30.466  75.935  30.346  0.00  0.00    +0.009 A 
ATOM     25  C   LIG    1      -31.654  75.848  29.596  0.00  0.00    +0.050 A 
BRANCH  21  26
ATOM     26  O   LIG    1      -33.931  76.862  32.289  0.00  0.00    -0.491 OA
ATOM     27  C   LIG    1      -33.571  77.628  33.435  0.00  0.00    +0.277 C 
ENDBRANCH  21  26
BRANCH  20  28
ATOM     28  O   LIG    1      -34.091  75.771  29.491  0.00  0.00    -0.484 OA
BRANCH  28  29
ATOM     29  C   LIG    1      -34.155  76.109  28.080  0.00  0.00    +0.266 C 
BRANCH  29  33
ATOM     30  C   LIG    1      -34.951  80.289  27.742  0.00  0.00    +0.214 A 
ATOM     31  N   LIG    1      -35.995  79.439  27.807  0.00  0.00    -0.221 NA
ATOM     32  C   LIG    1      -35.698  78.115  27.855  0.00  0.00    +0.121 A 
ATOM     33  C   LIG    1      -34.409  77.589  27.827  0.00  0.00    +0.008 A 
ATOM     34  C   LIG    1      -33.375  78.499  27.573  0.00  0.00    +0.013 A 
ATOM     35  C   LIG    1      -33.642  79.871  27.570  0.00  0.00    +0.067 A 
BRANCH  30  37
ATOM     36  C   LIG    1      -35.784  81.903  29.223  0.00  0.00    +0.279 C 
ATOM     37  O   LIG    1      -35.141  81.638  27.982  0.00  0.00    -0.480 OA
ENDBRANCH  30  37
ENDBRANCH  29  33
ENDBRANCH  28  29
ENDBRANCH  20  28
ENDBRANCH   1  23
TORSDOF 9
ENDMDL
MODEL 4
REMARK VINA RESULT:      -5.9     18.492     21.057
REMARK  Name = pdb/CHEMBL3673488.pdb
REMARK                            x       y       z     vdW  Elec       q    Type
REMARK                         _______ _______ _______ _____ _____    ______ ____
ROOT
ATOM      1  C   LIG    1      -25.722  74.519  13.336  0.00  0.00    +0.161 C 
ENDROOT
BRANCH   1   2
ATOM      2  N   LIG    1      -26.265  75.839  13.633  0.00  0.00    -0.293 N 
ATOM      3  C   LIG    1      -25.502  76.842  14.202  0.00  0.00    +0.162 A 
ATOM      4  N   LIG    1      -24.264  76.726  14.755  0.00  0.00    -0.235 NA
ATOM      5  C   LIG    1      -23.753  77.938  15.109  0.00  0.00    +0.123 A 
ATOM      6  C   LIG    1      -24.342  79.208  14.986  0.00  0.00    +0.021 A 
ATOM      7  C   LIG    1      -25.641  79.212  14.443  0.00  0.00    +0.043 A 
ATOM      8  C   LIG    1      -26.222  78.004  14.037  0.00  0.00    +0.110 A 
ATOM      9  N   LIG    1      -27.433  77.723  13.441  0.00  0.00    -0.213 NA
ATOM     10  C   LIG    1      -27.422  76.462  13.217  0.00  0.00    +0.195 A 
BRANCH   6  11
ATOM     11  C   LIG    1      -23.653  80.467  15.379  0.00  0.00    +0.072 A 
ATOM     12  N   LIG    1      -23.894  81.546  14.589  0.00  0.00    -0.255 NA
ATOM     13  C   LIG    1      -23.316  82.726  14.907  0.00  0.00    +0.111 A 
ATOM     14  C   LIG    1      -22.483  82.910  15.994  0.00  0.00    +0.020 A 
ATOM     15  C   LIG    1      -22.222  81.812  16.796  0.00  0.00    +0.004 A 
ATOM     16  C   LIG    1      -22.804  80.581  16.486  0.00  0.00    +0.028 A 
ENDBRANCH   6  11
BRANCH  10  17
ATOM     17  N   LIG    1      -28.445  75.765  12.626  0.00  0.00    -0.329 N 
ATOM     18  H   LIG    1      -29.344  75.925  13.061  0.00  0.00    +0.145 HD
ATOM     19  H   LIG    1      -28.324  74.810  12.343  0.00  0.00    +0.145 HD
ENDBRANCH  10  17
ENDBRANCH   1   2
BRANCH   1  23
ATOM     20  C   LIG    1      -26.126  71.501  16.507  0.00  0.00    +0.162 A 
ATOM     21  C   LIG    1      -24.868  71.859  15.973  0.00  0.00    +0.162 A 
ATOM     22  C   LIG    1      -24.765  72.700  14.835  0.00  0.00    +0.054 A 
ATOM     23  C   LIG    1      -25.865  73.432  14.386  0.00  0.00    -0.024 A 
ATOM     24  C   LIG    1      -27.074  73.221  15.046  0.00  0.00    +0.009 A 
ATOM     25  C   LIG    1      -27.212  72.241  16.047  0.00  0.00    +0.050 A 
BRANCH  21  26
ATOM     26  O   LIG    1      -23.627  71.598  16.503  0.00  0.00    -0.491 OA
ATOM     27  C   LIG    1      -23.243  72.333  17.660  0.00  0.00    +0.277 C 
ENDBRANCH  21  26
BRANCH  20  28
ATOM     28  O   LIG    1      -26.258  70.445  17.396  0.00  0.00    -0.484 OA
BRANCH  28  29
ATOM     29  C   LIG    1      -27.121  70.596  18.555  0.00  0.00    +0.266 C 
BRANCH  29  33
ATOM     30  C   LIG    1      -30.707  68.283  18.648  0.00  0.00    +0.214 A 
ATOM     31  N   LIG    1      -29.524  67.638  18.684  0.00  0.00    -0.221 NA
ATOM     32  C   LIG    1      -28.410  68.407  18.593  0.00  0.00    +0.121 A 
ATOM     33  C   LIG    1      -28.411  69.793  18.454  0.00  0.00    +0.008 A 
ATOM     34  C   LIG    1      -29.658  70.391  18.237  0.00  0.00    +0.013 A 
ATOM     35  C   LIG    1      -30.826  69.636  18.375  0.00  0.00    +0.067 A 
BRANCH  30  37
ATOM     36  C   LIG    1      -31.629  66.326  19.549  0.00  0.00    +0.279 C 
ATOM     37  O   LIG    1      -31.865  67.626  19.022  0.00  0.00    -0.480 OA
ENDBRANCH  30  37
ENDBRANCH  29  33
ENDBRANCH  28  29
ENDBRANCH  20  28
ENDBRANCH   1  23
TORSDOF 9
ENDMDL
MODEL 5
REMARK VINA RESULT:      -5.9     18.415     22.840
REMARK  Name = pdb/CHEMBL3673488.pdb
REMARK                            x       y       z     vdW  Elec       q    Type
REMARK                         _______ _______ _______ _____ _____    ______ ____
ROOT
ATOM      1  C   LIG    1      -39.451  70.901  24.573  0.00  0.00    +0.161 C 
ENDROOT
BRANCH   1   2
ATOM      2  N   LIG    1      -39.052  72.302  24.499  0.00  0.00    -0.293 N 
ATOM      3  C   LIG    1      -39.923  73.299  24.099  0.00  0.00    +0.162 A 
ATOM      4  N   LIG    1      -41.150  73.145  23.528  0.00  0.00    -0.235 NA
ATOM      5  C   LIG    1      -41.788  74.338  23.375  0.00  0.00    +0.123 A 
ATOM      6  C   LIG    1      -41.334  75.626  23.707  0.00  0.00    +0.021 A 
ATOM      7  C   LIG    1      -40.035  75.678  24.249  0.00  0.00    +0.043 A 
ATOM      8  C   LIG    1      -39.326  74.488  24.454  0.00  0.00    +0.110 A 
ATOM      9  N   LIG    1      -38.085  74.241  25.002  0.00  0.00    -0.213 NA
ATOM     10  C   LIG    1      -37.961  72.967  25.016  0.00  0.00    +0.195 A 
BRANCH   6  11
ATOM     11  C   LIG    1      -42.155  76.852  23.523  0.00  0.00    +0.072 A 
ATOM     12  N   LIG    1      -43.372  76.668  22.945  0.00  0.00    -0.255 NA
ATOM     13  C   LIG    1      -44.177  77.741  22.771  0.00  0.00    +0.111 A 
ATOM     14  C   LIG    1      -43.840  79.028  23.144  0.00  0.00    +0.020 A 
ATOM     15  C   LIG    1      -42.596  79.225  23.720  0.00  0.00    +0.004 A 
ATOM     16  C   LIG    1      -41.746  78.134  23.907  0.00  0.00    +0.028 A 
ENDBRANCH   6  11
BRANCH  10  17
ATOM     17  N   LIG    1      -36.864  72.294  25.489  0.00  0.00    -0.329 N 
ATOM     18  H   LIG    1      -36.011  72.837  25.448  0.00  0.00    +0.145 HD
ATOM     19  H   LIG    1      -36.711  71.328  25.262  0.00  0.00    +0.145 HD
ENDBRANCH  10  17
ENDBRANCH   1   2
BRANCH   1  23
ATOM     20  C   LIG    1      -38.625  68.476  21.000  0.00  0.00    +0.162 A 
ATOM     21  C   LIG    1      -39.940  68.824  21.379  0.00  0.00    +0.162 A 
ATOM     22  C   LIG    1      -40.206  69.453  22.623  0.00  0.00    +0.054 A 
ATOM     23  C   LIG    1      -39.172  70.012  23.375  0.00  0.00    -0.024 A 
ATOM     24  C   LIG    1      -37.875  69.836  22.894  0.00  0.00    +0.009 A 
ATOM     25  C   LIG    1      -37.606  69.043  21.763  0.00  0.00    +0.050 A 
BRANCH  21  26
ATOM     26  O   LIG    1      -41.080  68.752  20.614  0.00  0.00    -0.491 OA
ATOM     27  C   LIG    1      -42.321  68.635  21.300  0.00  0.00    +0.277 C 
ENDBRANCH  21  26
BRANCH  20  28
ATOM     28  O   LIG    1      -38.383  67.589  19.962  0.00  0.00    -0.484 OA
BRANCH  28  29
ATOM     29  C   LIG    1      -37.944  66.240  20.270  0.00  0.00    +0.266 C 
BRANCH  29  33
ATOM     30  C   LIG    1      -33.676  66.194  20.293  0.00  0.00    +0.214 A 
ATOM     31  N   LIG    1      -34.310  66.474  19.137  0.00  0.00    -0.221 NA
ATOM     32  C   LIG    1      -35.665  66.421  19.160  0.00  0.00    +0.121 A 
ATOM     33  C   LIG    1      -36.429  66.087  20.276  0.00  0.00    +0.008 A 
ATOM     34  C   LIG    1      -35.720  65.628  21.394  0.00  0.00    +0.013 A 
ATOM     35  C   LIG    1      -34.326  65.719  21.419  0.00  0.00    +0.067 A 
BRANCH  30  37
ATOM     36  C   LIG    1      -31.657  66.662  19.200  0.00  0.00    +0.279 C 
ATOM     37  O   LIG    1      -32.336  66.503  20.440  0.00  0.00    -0.480 OA
ENDBRANCH  30  37
ENDBRANCH  29  33
ENDBRANCH  28  29
ENDBRANCH  20  28
ENDBRANCH   1  23
TORSDOF 9
ENDMDL
MODEL 6
REMARK VINA RESULT:      -5.8     16.777     19.088
REMARK  Name = pdb/CHEMBL3673488.pdb
REMARK                            x       y       z     vdW  Elec       q    Type
REMARK                         _______ _______ _______ _____ _____    ______ ____
ROOT
ATOM      1  C   LIG    1      -21.078  80.623  16.240  0.00  0.00    +0.161 C 
ENDROOT
BRANCH   1   2
ATOM      2  N   LIG    1      -20.386  81.395  15.214  0.00  0.00    -0.293 N 
ATOM      3  C   LIG    1      -20.856  82.614  14.762  0.00  0.00    +0.162 A 
ATOM      4  N   LIG    1      -22.074  83.172  15.006  0.00  0.00    -0.235 NA
ATOM      5  C   LIG    1      -22.158  84.438  14.509  0.00  0.00    +0.123 A 
ATOM      6  C   LIG    1      -21.188  85.169  13.803  0.00  0.00    +0.021 A 
ATOM      7  C   LIG    1      -19.981  84.484  13.565  0.00  0.00    +0.043 A 
ATOM      8  C   LIG    1      -19.816  83.186  14.064  0.00  0.00    +0.110 A 
ATOM      9  N   LIG    1      -18.747  82.316  14.025  0.00  0.00    -0.213 NA
ATOM     10  C   LIG    1      -19.110  81.293  14.703  0.00  0.00    +0.195 A 
BRANCH   6  11
ATOM     11  C   LIG    1      -21.396  86.570  13.347  0.00  0.00    +0.072 A 
ATOM     12  N   LIG    1      -20.333  87.404  13.492  0.00  0.00    -0.255 NA
ATOM     13  C   LIG    1      -20.451  88.685  13.075  0.00  0.00    +0.111 A 
ATOM     14  C   LIG    1      -21.597  89.210  12.506  0.00  0.00    +0.020 A 
ATOM     15  C   LIG    1      -22.688  88.369  12.368  0.00  0.00    +0.004 A 
ATOM     16  C   LIG    1      -22.592  87.043  12.794  0.00  0.00    +0.028 A 
ENDBRANCH   6  11
BRANCH  10  17
ATOM     17  N   LIG    1      -18.332  80.184  14.920  0.00  0.00    -0.329 N 
ATOM     18  H   LIG    1      -18.851  79.316  14.885  0.00  0.00    +0.145 HD
ATOM     19  H   LIG    1      -17.627  80.178  15.635  0.00  0.00    +0.145 HD
ENDBRANCH  10  17
ENDBRANCH   1   2
BRANCH   1  23
ATOM     20  C   LIG    1      -24.283  77.976  14.807  0.00  0.00    +0.162 A 
ATOM     21  C   LIG    1      -24.503  79.348  15.059  0.00  0.00    +0.162 A 
ATOM     22  C   LIG    1      -23.515  80.150  15.685  0.00  0.00    +0.054 A 
ATOM     23  C   LIG    1      -22.200  79.698  15.806  0.00  0.00    -0.024 A 
ATOM     24  C   LIG    1      -21.938  78.399  15.372  0.00  0.00    +0.009 A 
ATOM     25  C   LIG    1      -22.964  77.542  14.933  0.00  0.00    +0.050 A 
BRANCH  21  26
ATOM     26  O   LIG    1      -25.567  80.115  14.646  0.00  0.00    -0.491 OA
ATOM     27  C   LIG    1      -25.502  80.671  13.337  0.00  0.00    +0.277 C 
ENDBRANCH  21  26
BRANCH  20  28
ATOM     28  O   LIG    1      -25.330  77.120  14.502  0.00  0.00    -0.484 OA
BRANCH  28  29
ATOM     29  C   LIG    1      -25.488  76.652  13.136  0.00  0.00    +0.266 C 
BRANCH  29  33
ATOM     30  C   LIG    1      -28.724  78.258  10.862  0.00  0.00    +0.214 A 
ATOM     31  N   LIG    1      -27.523  78.125  10.266  0.00  0.00    -0.221 NA
ATOM     32  C   LIG    1      -26.508  77.665  11.040  0.00  0.00    +0.121 A 
ATOM     33  C   LIG    1      -26.622  77.343  12.391  0.00  0.00    +0.008 A 
ATOM     34  C   LIG    1      -27.838  77.673  13.004  0.00  0.00    +0.013 A 
ATOM     35  C   LIG    1      -28.917  78.099  12.224  0.00  0.00    +0.067 A 
BRANCH  30  37
ATOM     36  C   LIG    1      -30.851  77.438  10.319  0.00  0.00    +0.279 C 
ATOM     37  O   LIG    1      -29.861  78.435  10.096  0.00  0.00    -0.480 OA
ENDBRANCH  30  37
ENDBRANCH  29  33
ENDBRANCH  28  29
ENDBRANCH  20  28
ENDBRANCH   1  23
TORSDOF 9
ENDMDL
MODEL 7
REMARK VINA RESULT:      -5.8     13.109     18.622
REMARK  Name = pdb/CHEMBL3673488.pdb
REMARK                            x       y       z     vdW  Elec       q    Type
REMARK                         _______ _______ _______ _____ _____    ______ ____
ROOT
ATOM      1  C   LIG    1      -26.869  75.543  33.321  0.00  0.00    +0.161 C 
ENDROOT
BRANCH   1   2
ATOM      2  N   LIG    1      -25.744  76.352  32.866  0.00  0.00    -0.293 N 
ATOM      3  C   LIG    1      -25.318  77.477  33.547  0.00  0.00    +0.162 A 
ATOM      4  N   LIG    1      -25.958  78.119  34.564  0.00  0.00    -0.235 NA
ATOM      5  C   LIG    1      -25.196  79.119  35.087  0.00  0.00    +0.123 A 
ATOM      6  C   LIG    1      -23.912  79.540  34.700  0.00  0.00    +0.021 A 
ATOM      7  C   LIG    1      -23.360  78.840  33.610  0.00  0.00    +0.043 A 
ATOM      8  C   LIG    1      -24.078  77.784  33.033  0.00  0.00    +0.110 A 
ATOM      9  N   LIG    1      -23.768  76.913  32.011  0.00  0.00    -0.213 NA
ATOM     10  C   LIG    1      -24.751  76.096  31.944  0.00  0.00    +0.195 A 
BRANCH   6  11
ATOM     11  C   LIG    1      -23.170  80.630  35.388  0.00  0.00    +0.072 A 
ATOM     12  N   LIG    1      -21.825  80.646  35.191  0.00  0.00    -0.255 NA
ATOM     13  C   LIG    1      -21.096  81.627  35.770  0.00  0.00    +0.111 A 
ATOM     14  C   LIG    1      -21.633  82.624  36.562  0.00  0.00    +0.020 A 
ATOM     15  C   LIG    1      -23.001  82.605  36.778  0.00  0.00    +0.004 A 
ATOM     16  C   LIG    1      -23.775  81.601  36.193  0.00  0.00    +0.028 A 
ENDBRANCH   6  11
BRANCH  10  17
ATOM     17  N   LIG    1      -24.844  75.057  31.054  0.00  0.00    -0.329 N 
ATOM     18  H   LIG    1      -23.951  74.773  30.672  0.00  0.00    +0.145 HD
ATOM     19  H   LIG    1      -25.578  75.025  30.369  0.00  0.00    +0.145 HD
ENDBRANCH  10  17
ENDBRANCH   1   2
BRANCH   1  23
ATOM     20  C   LIG    1      -30.446  75.156  30.793  0.00  0.00    +0.162 A 
ATOM     21  C   LIG    1      -29.883  74.049  31.465  0.00  0.00    +0.162 A 
ATOM     22  C   LIG    1      -28.634  74.150  32.131  0.00  0.00    +0.054 A 
ATOM     23  C   LIG    1      -28.066  75.396  32.398  0.00  0.00    -0.024 A 
ATOM     24  C   LIG    1      -28.732  76.513  31.898  0.00  0.00    +0.009 A 
ATOM     25  C   LIG    1      -29.865  76.392  31.071  0.00  0.00    +0.050 A 
BRANCH  21  26
ATOM     26  O   LIG    1      -30.463  72.825  31.695  0.00  0.00    -0.491 OA
ATOM     27  C   LIG    1      -30.118  71.762  30.813  0.00  0.00    +0.277 C 
ENDBRANCH  21  26
BRANCH  20  28
ATOM     28  O   LIG    1      -31.479  74.999  29.882  0.00  0.00    -0.484 OA
BRANCH  28  29
ATOM     29  C   LIG    1      -32.757  75.638  30.142  0.00  0.00    +0.266 C 
BRANCH  29  33
ATOM     30  C   LIG    1      -33.714  78.927  27.595  0.00  0.00    +0.214 A 
ATOM     31  N   LIG    1      -34.680  78.429  28.392  0.00  0.00    -0.221 NA
ATOM     32  C   LIG    1      -34.350  77.347  29.142  0.00  0.00    +0.121 A 
ATOM     33  C   LIG    1      -33.105  76.722  29.130  0.00  0.00    +0.008 A 
ATOM     34  C   LIG    1      -32.202  77.162  28.155  0.00  0.00    +0.013 A 
ATOM     35  C   LIG    1      -32.492  78.305  27.404  0.00  0.00    +0.067 A 
BRANCH  30  37
ATOM     36  C   LIG    1      -34.897  80.949  27.628  0.00  0.00    +0.279 C 
ATOM     37  O   LIG    1      -33.863  80.179  27.027  0.00  0.00    -0.480 OA
ENDBRANCH  30  37
ENDBRANCH  29  33
ENDBRANCH  28  29
ENDBRANCH  20  28
ENDBRANCH   1  23
TORSDOF 9
ENDMDL
MODEL 8
REMARK VINA RESULT:      -5.8     16.317     21.261
REMARK  Name = pdb/CHEMBL3673488.pdb
REMARK                            x       y       z     vdW  Elec       q    Type
REMARK                         _______ _______ _______ _____ _____    ______ ____
ROOT
ATOM      1  C   LIG    1      -39.837  72.292  25.147  0.00  0.00    +0.161 C 
ENDROOT
BRANCH   1   2
ATOM      2  N   LIG    1      -38.729  71.421  24.773  0.00  0.00    -0.293 N 
ATOM      3  C   LIG    1      -38.820  70.508  23.739  0.00  0.00    +0.162 A 
ATOM      4  N   LIG    1      -39.945  70.122  23.075  0.00  0.00    -0.235 NA
ATOM      5  C   LIG    1      -39.655  69.299  22.029  0.00  0.00    +0.123 A 
ATOM      6  C   LIG    1      -38.402  68.825  21.606  0.00  0.00    +0.021 A 
ATOM      7  C   LIG    1      -37.310  69.248  22.388  0.00  0.00    +0.043 A 
ATOM      8  C   LIG    1      -37.530  70.113  23.468  0.00  0.00    +0.110 A 
ATOM      9  N   LIG    1      -36.662  70.712  24.355  0.00  0.00    -0.213 NA
ATOM     10  C   LIG    1      -37.388  71.465  25.093  0.00  0.00    +0.195 A 
BRANCH   6  11
ATOM     11  C   LIG    1      -38.221  67.955  20.413  0.00  0.00    +0.072 A 
ATOM     12  N   LIG    1      -37.233  68.325  19.555  0.00  0.00    -0.255 NA
ATOM     13  C   LIG    1      -37.003  67.561  18.463  0.00  0.00    +0.111 A 
ATOM     14  C   LIG    1      -37.715  66.417  18.156  0.00  0.00    +0.020 A 
ATOM     15  C   LIG    1      -38.730  66.042  19.019  0.00  0.00    +0.004 A 
ATOM     16  C   LIG    1      -38.990  66.816  20.151  0.00  0.00    +0.028 A 
ENDBRANCH   6  11
BRANCH  10  17
ATOM     17  N   LIG    1      -36.915  72.251  26.112  0.00  0.00    -0.329 N 
ATOM     18  H   LIG    1      -35.927  72.455  26.037  0.00  0.00    +0.145 HD
ATOM     19  H   LIG    1      -37.200  72.094  27.062  0.00  0.00    +0.145 HD
ENDBRANCH  10  17
ENDBRANCH   1   2
BRANCH   1  23
ATOM     20  C   LIG    1      -39.893  76.487  23.832  0.00  0.00    +0.162 A 
ATOM     21  C   LIG    1      -40.939  75.591  23.517  0.00  0.00    +0.162 A 
ATOM     22  C   LIG    1      -40.828  74.204  23.793  0.00  0.00    +0.054 A 
ATOM     23  C   LIG    1      -39.828  73.722  24.639  0.00  0.00    -0.024 A 
ATOM     24  C   LIG    1      -38.901  74.650  25.112  0.00  0.00    +0.009 A 
ATOM     25  C   LIG    1      -38.904  75.989  24.676  0.00  0.00    +0.050 A 
BRANCH  21  26
ATOM     26  O   LIG    1      -42.198  75.901  23.060  0.00  0.00    -0.491 OA
ATOM     27  C   LIG    1      -43.232  76.027  24.030  0.00  0.00    +0.277 C 
ENDBRANCH  21  26
BRANCH  20  28
ATOM     28  O   LIG    1      -39.846  77.762  23.288  0.00  0.00    -0.484 OA
BRANCH  28  29
ATOM     29  C   LIG    1      -39.649  78.901  24.167  0.00  0.00    +0.266 C 
BRANCH  29  33
ATOM     30  C   LIG    1      -41.452  82.329  22.372  0.00  0.00    +0.214 A 
ATOM     31  N   LIG    1      -40.118  82.172  22.263  0.00  0.00    -0.221 NA
ATOM     32  C   LIG    1      -39.578  81.101  22.897  0.00  0.00    +0.121 A 
ATOM     33  C   LIG    1      -40.299  80.178  23.652  0.00  0.00    +0.008 A 
ATOM     34  C   LIG    1      -41.644  80.488  23.886  0.00  0.00    +0.013 A 
ATOM     35  C   LIG    1      -42.241  81.554  23.206  0.00  0.00    +0.067 A 
BRANCH  30  37
ATOM     36  C   LIG    1      -41.381  83.529  20.361  0.00  0.00    +0.279 C 
ATOM     37  O   LIG    1      -42.117  83.206  21.535  0.00  0.00    -0.480 OA
ENDBRANCH  30  37
ENDBRANCH  29  33
ENDBRANCH  28  29
ENDBRANCH  20  28
ENDBRANCH   1  23
TORSDOF 9
ENDMDL
MODEL 9
REMARK VINA RESULT:      -5.8     18.916     21.525
REMARK  Name = pdb/CHEMBL3673488.pdb
REMARK                            x       y       z     vdW  Elec       q    Type
REMARK                         _______ _______ _______ _____ _____    ______ ____
ROOT
ATOM      1  C   LIG    1      -26.730  74.679  12.901  0.00  0.00    +0.161 C 
ENDROOT
BRANCH   1   2
ATOM      2  N   LIG    1      -27.089  76.056  13.220  0.00  0.00    -0.293 N 
ATOM      3  C   LIG    1      -26.216  76.920  13.857  0.00  0.00    +0.162 A 
ATOM      4  N   LIG    1      -25.035  76.606  14.459  0.00  0.00    -0.235 NA
ATOM      5  C   LIG    1      -24.371  77.720  14.877  0.00  0.00    +0.123 A 
ATOM      6  C   LIG    1      -24.761  79.065  14.772  0.00  0.00    +0.021 A 
ATOM      7  C   LIG    1      -26.018  79.276  14.174  0.00  0.00    +0.043 A 
ATOM      8  C   LIG    1      -26.750  78.179  13.702  0.00  0.00    +0.110 A 
ATOM      9  N   LIG    1      -27.959  78.096  13.044  0.00  0.00    -0.213 NA
ATOM     10  C   LIG    1      -28.121  76.855  12.777  0.00  0.00    +0.195 A 
BRANCH   6  11
ATOM     11  C   LIG    1      -23.916  80.197  15.239  0.00  0.00    +0.072 A 
ATOM     12  N   LIG    1      -24.179  81.405  14.674  0.00  0.00    -0.255 NA
ATOM     13  C   LIG    1      -23.461  82.479  15.073  0.00  0.00    +0.111 A 
ATOM     14  C   LIG    1      -22.461  82.429  16.027  0.00  0.00    +0.020 A 
ATOM     15  C   LIG    1      -22.179  81.199  16.596  0.00  0.00    +0.004 A 
ATOM     16  C   LIG    1      -22.904  80.074  16.198  0.00  0.00    +0.028 A 
ENDBRANCH   6  11
BRANCH  10  17
ATOM     17  N   LIG    1      -29.205  76.333  12.119  0.00  0.00    -0.329 N 
ATOM     18  H   LIG    1      -30.091  76.682  12.462  0.00  0.00    +0.145 HD
ATOM     19  H   LIG    1      -29.247  75.358  11.882  0.00  0.00    +0.145 HD
ENDBRANCH  10  17
ENDBRANCH   1   2
BRANCH   1  23
ATOM     20  C   LIG    1      -28.060  71.386  15.494  0.00  0.00    +0.162 A 
ATOM     21  C   LIG    1      -28.431  71.462  14.134  0.00  0.00    +0.162 A 
ATOM     22  C   LIG    1      -28.144  72.614  13.356  0.00  0.00    +0.054 A 
ATOM     23  C   LIG    1      -27.242  73.576  13.810  0.00  0.00    -0.024 A 
ATOM     24  C   LIG    1      -26.720  73.396  15.090  0.00  0.00    +0.009 A 
ATOM     25  C   LIG    1      -27.159  72.355  15.930  0.00  0.00    +0.050 A 
BRANCH  21  26
ATOM     26  O   LIG    1      -28.960  70.463  13.352  0.00  0.00    -0.491 OA
ATOM     27  C   LIG    1      -28.070  69.449  12.897  0.00  0.00    +0.277 C 
ENDBRANCH  21  26
BRANCH  20  28
ATOM     28  O   LIG    1      -28.604  70.431  16.339  0.00  0.00    -0.484 OA
BRANCH  28  29
ATOM     29  C   LIG    1      -28.267  70.459  17.752  0.00  0.00    +0.266 C 
BRANCH  29  33
ATOM     30  C   LIG    1      -28.825  66.556  19.388  0.00  0.00    +0.214 A 
ATOM     31  N   LIG    1      -29.780  67.057  18.579  0.00  0.00    -0.221 NA
ATOM     32  C   LIG    1      -29.591  68.323  18.128  0.00  0.00    +0.121 A 
ATOM     33  C   LIG    1      -28.501  69.127  18.453  0.00  0.00    +0.008 A 
ATOM     34  C   LIG    1      -27.638  68.630  19.437  0.00  0.00    +0.013 A 
ATOM     35  C   LIG    1      -27.777  67.313  19.883  0.00  0.00    +0.067 A 
BRANCH  30  37
ATOM     36  C   LIG    1      -27.529  64.604  19.354  0.00  0.00    +0.279 C 
ATOM     37  O   LIG    1      -28.786  65.200  19.654  0.00  0.00    -0.480 OA
ENDBRANCH  30  37
ENDBRANCH  29  33
ENDBRANCH  28  29
ENDBRANCH  20  28
ENDBRANCH   1  23
TORSDOF 9
ENDMDL
