MODEL 1
REMARK VINA RESULT:      -5.4      0.000      0.000
REMARK  Name = pdb/CHEMBL3675964.pdb
REMARK                            x       y       z     vdW  Elec       q    Type
REMARK                         _______ _______ _______ _____ _____    ______ ____
ROOT
ATOM      1  C   LIG    1      -38.872  77.890  24.501  0.00  0.00    +0.109 C 
ATOM      2  N   LIG    1      -39.336  78.607  25.721  0.00  0.00    -0.308 N 
ATOM      3  C   LIG    1      -40.231  79.708  25.349  0.00  0.00    +0.107 C 
ATOM      4  C   LIG    1      -40.141  79.805  23.834  0.00  0.00    +0.021 C 
ATOM      5  C   LIG    1      -39.854  78.376  23.418  0.00  0.00    +0.029 C 
ENDROOT
BRANCH   2   6
ATOM      6  C   LIG    1      -38.632  78.605  26.922  0.00  0.00    +0.126 A 
ATOM      7  N   LIG    1      -37.535  79.323  27.029  0.00  0.00    -0.212 NA
ATOM      8  C   LIG    1      -36.867  79.319  28.225  0.00  0.00    +0.170 A 
ATOM      9  C   LIG    1      -35.669  79.892  28.614  0.00  0.00    +0.100 A 
ATOM     10  C   LIG    1      -35.536  79.537  29.973  0.00  0.00    +0.150 A 
ATOM     11  N   LIG    1      -36.547  78.795  30.425  0.00  0.00    -0.173 NA
ATOM     12  N   LIG    1      -37.340  78.626  29.340  0.00  0.00    -0.221 N 
ATOM     13  C   LIG    1      -38.481  77.848  29.243  0.00  0.00    +0.118 A 
ATOM     14  C   LIG    1      -39.142  77.770  28.083  0.00  0.00    +0.063 A 
BRANCH   9  15
ATOM     15  C   LIG    1      -34.751  80.667  27.816  0.00  0.00    +0.247 C 
ATOM     16  N   LIG    1      -34.805  82.011  27.989  0.00  0.00    -0.325 N 
ATOM     17  H   LIG    1      -34.230  82.611  27.417  0.00  0.00    +0.145 HD
ATOM     18  H   LIG    1      -35.500  82.418  28.618  0.00  0.00    +0.145 HD
ATOM     19  O   LIG    1      -33.964  80.158  27.013  0.00  0.00    -0.270 OA
ENDBRANCH   9  15
ENDBRANCH   2   6
BRANCH   1  21
ATOM     20  C   LIG    1      -37.834  75.638  25.185  0.00  0.00    +0.126 A 
ATOM     21  C   LIG    1      -38.897  76.369  24.593  0.00  0.00    +0.017 A 
ATOM     22  C   LIG    1      -39.975  75.648  24.037  0.00  0.00    +0.047 A 
ATOM     23  C   LIG    1      -40.016  74.261  24.103  0.00  0.00    +0.124 A 
ATOM     24  F   LIG    1      -41.057  73.599  23.582  0.00  0.00    -0.205 F 
ATOM     25  C   LIG    1      -38.982  73.549  24.681  0.00  0.00    +0.042 A 
ATOM     26  C   LIG    1      -37.885  74.233  25.199  0.00  0.00    +0.049 A 
BRANCH  20  27
ATOM     27  O   LIG    1      -36.743  76.336  25.651  0.00  0.00    -0.489 OA
BRANCH  27  28
ATOM     28  C   LIG    1      -36.181  75.924  26.910  0.00  0.00    +0.257 C 
BRANCH  28  29
ATOM     29  C   LIG    1      -34.782  76.520  27.086  0.00  0.00    +0.200 C 
BRANCH  29  31
ATOM     30  C   LIG    1      -33.127  77.041  28.693  0.00  0.00    +0.194 C 
ATOM     31  O   LIG    1      -34.428  76.507  28.473  0.00  0.00    -0.380 OA
ENDBRANCH  29  31
ENDBRANCH  28  29
ENDBRANCH  27  28
ENDBRANCH  20  27
ENDBRANCH   1  21
TORSDOF 7
ENDMDL
MODEL 2
REMARK VINA RESULT:      -5.0     13.435     17.353
REMARK  Name = pdb/CHEMBL3675964.pdb
REMARK                            x       y       z     vdW  Elec       q    Type
REMARK                         _______ _______ _______ _____ _____    ______ ____
ROOT
ATOM      1  C   LIG    1      -22.717  75.736  33.058  0.00  0.00    +0.109 C 
ATOM      2  N   LIG    1      -22.116  76.362  34.269  0.00  0.00    -0.308 N 
ATOM      3  C   LIG    1      -21.952  75.359  35.327  0.00  0.00    +0.107 C 
ATOM      4  C   LIG    1      -22.678  74.122  34.823  0.00  0.00    +0.021 C 
ATOM      5  C   LIG    1      -22.531  74.229  33.319  0.00  0.00    +0.029 C 
ENDROOT
BRANCH   2   6
ATOM      6  C   LIG    1      -22.211  77.722  34.552  0.00  0.00    +0.126 A 
ATOM      7  N   LIG    1      -21.230  78.319  35.193  0.00  0.00    -0.212 NA
ATOM      8  C   LIG    1      -21.339  79.661  35.447  0.00  0.00    +0.170 A 
ATOM      9  C   LIG    1      -20.532  80.533  36.157  0.00  0.00    +0.100 A 
ATOM     10  C   LIG    1      -21.178  81.782  36.039  0.00  0.00    +0.150 A 
ATOM     11  N   LIG    1      -22.303  81.728  35.327  0.00  0.00    -0.173 NA
ATOM     12  N   LIG    1      -22.422  80.418  35.002  0.00  0.00    -0.221 N 
ATOM     13  C   LIG    1      -23.475  79.806  34.344  0.00  0.00    +0.118 A 
ATOM     14  C   LIG    1      -23.448  78.488  34.118  0.00  0.00    +0.063 A 
BRANCH   9  15
ATOM     15  C   LIG    1      -19.313  80.240  36.870  0.00  0.00    +0.247 C 
ATOM     16  N   LIG    1      -18.436  79.425  36.234  0.00  0.00    -0.325 N 
ATOM     17  H   LIG    1      -17.592  79.135  36.706  0.00  0.00    +0.145 HD
ATOM     18  H   LIG    1      -18.679  79.021  35.327  0.00  0.00    +0.145 HD
ATOM     19  O   LIG    1      -19.070  80.686  37.995  0.00  0.00    -0.270 OA
ENDBRANCH   9  15
ENDBRANCH   2   6
BRANCH   1  21
ATOM     20  C   LIG    1      -22.840  76.357  30.565  0.00  0.00    +0.126 A 
ATOM     21  C   LIG    1      -22.070  76.128  31.735  0.00  0.00    +0.017 A 
ATOM     22  C   LIG    1      -20.665  76.224  31.641  0.00  0.00    +0.047 A 
ATOM     23  C   LIG    1      -20.053  76.572  30.443  0.00  0.00    +0.124 A 
ATOM     24  F   LIG    1      -18.719  76.672  30.382  0.00  0.00    -0.205 F 
ATOM     25  C   LIG    1      -20.802  76.797  29.304  0.00  0.00    +0.042 A 
ATOM     26  C   LIG    1      -22.188  76.668  29.359  0.00  0.00    +0.049 A 
BRANCH  20  27
ATOM     27  O   LIG    1      -24.203  76.181  30.637  0.00  0.00    -0.489 OA
BRANCH  27  28
ATOM     28  C   LIG    1      -25.020  77.362  30.735  0.00  0.00    +0.257 C 
BRANCH  28  29
ATOM     29  C   LIG    1      -26.060  77.197  31.846  0.00  0.00    +0.200 C 
BRANCH  29  31
ATOM     30  C   LIG    1      -28.388  76.918  32.149  0.00  0.00    +0.194 C 
ATOM     31  O   LIG    1      -27.364  77.461  31.322  0.00  0.00    -0.380 OA
ENDBRANCH  29  31
ENDBRANCH  28  29
ENDBRANCH  27  28
ENDBRANCH  20  27
ENDBRANCH   1  21
TORSDOF 7
ENDMDL
MODEL 3
REMARK VINA RESULT:      -4.9     13.403     17.211
REMARK  Name = pdb/CHEMBL3675964.pdb
REMARK                            x       y       z     vdW  Elec       q    Type
REMARK                         _______ _______ _______ _____ _____    ______ ____
ROOT
ATOM      1  C   LIG    1      -21.984  75.614  33.111  0.00  0.00    +0.109 C 
ATOM      2  N   LIG    1      -21.287  76.277  34.248  0.00  0.00    -0.308 N 
ATOM      3  C   LIG    1      -20.964  75.291  35.284  0.00  0.00    +0.107 C 
ATOM      4  C   LIG    1      -21.681  74.018  34.866  0.00  0.00    +0.021 C 
ATOM      5  C   LIG    1      -21.702  74.120  33.355  0.00  0.00    +0.029 C 
ENDROOT
BRANCH   2   6
ATOM      6  C   LIG    1      -21.414  77.633  34.535  0.00  0.00    +0.126 A 
ATOM      7  N   LIG    1      -22.569  78.097  34.963  0.00  0.00    -0.212 NA
ATOM      8  C   LIG    1      -22.667  79.433  35.255  0.00  0.00    +0.170 A 
ATOM      9  C   LIG    1      -23.742  80.216  35.635  0.00  0.00    +0.100 A 
ATOM     10  C   LIG    1      -23.194  81.506  35.800  0.00  0.00    +0.150 A 
ATOM     11  N   LIG    1      -21.887  81.560  35.543  0.00  0.00    -0.173 NA
ATOM     12  N   LIG    1      -21.575  80.297  35.167  0.00  0.00    -0.221 N 
ATOM     13  C   LIG    1      -20.357  79.833  34.700  0.00  0.00    +0.118 A 
ATOM     14  C   LIG    1      -20.219  78.551  34.346  0.00  0.00    +0.063 A 
BRANCH   9  15
ATOM     15  C   LIG    1      -25.116  79.818  35.813  0.00  0.00    +0.247 C 
ATOM     16  N   LIG    1      -25.453  78.607  35.305  0.00  0.00    -0.325 N 
ATOM     17  H   LIG    1      -26.414  78.299  35.345  0.00  0.00    +0.145 HD
ATOM     18  H   LIG    1      -24.762  78.059  34.789  0.00  0.00    +0.145 HD
ATOM     19  O   LIG    1      -25.952  80.527  36.381  0.00  0.00    -0.270 OA
ENDBRANCH   9  15
ENDBRANCH   2   6
BRANCH   1  21
ATOM     20  C   LIG    1      -22.399  76.173  30.634  0.00  0.00    +0.126 A 
ATOM     21  C   LIG    1      -21.502  76.025  31.725  0.00  0.00    +0.017 A 
ATOM     22  C   LIG    1      -20.125  76.221  31.489  0.00  0.00    +0.047 A 
ATOM     23  C   LIG    1      -19.661  76.589  30.232  0.00  0.00    +0.124 A 
ATOM     24  F   LIG    1      -18.351  76.785  30.036  0.00  0.00    -0.205 F 
ATOM     25  C   LIG    1      -20.534  76.735  29.170  0.00  0.00    +0.042 A 
ATOM     26  C   LIG    1      -21.894  76.506  29.366  0.00  0.00    +0.049 A 
BRANCH  20  27
ATOM     27  O   LIG    1      -23.731  75.900  30.845  0.00  0.00    -0.489 OA
BRANCH  27  28
ATOM     28  C   LIG    1      -24.672  76.964  30.609  0.00  0.00    +0.257 C 
BRANCH  28  29
ATOM     29  C   LIG    1      -24.696  77.923  31.801  0.00  0.00    +0.200 C 
BRANCH  29  31
ATOM     30  C   LIG    1      -26.794  76.838  31.919  0.00  0.00    +0.194 C 
ATOM     31  O   LIG    1      -25.854  77.664  32.600  0.00  0.00    -0.380 OA
ENDBRANCH  29  31
ENDBRANCH  28  29
ENDBRANCH  27  28
ENDBRANCH  20  27
ENDBRANCH   1  21
TORSDOF 7
ENDMDL
MODEL 4
REMARK VINA RESULT:      -4.9     14.993     17.892
REMARK  Name = pdb/CHEMBL3675964.pdb
REMARK                            x       y       z     vdW  Elec       q    Type
REMARK                         _______ _______ _______ _____ _____    ______ ____
ROOT
ATOM      1  C   LIG    1      -23.659  77.966  35.161  0.00  0.00    +0.109 C 
ATOM      2  N   LIG    1      -24.491  77.872  33.929  0.00  0.00    -0.308 N 
ATOM      3  C   LIG    1      -25.856  77.458  34.273  0.00  0.00    +0.107 C 
ATOM      4  C   LIG    1      -25.800  77.073  35.743  0.00  0.00    +0.021 C 
ATOM      5  C   LIG    1      -24.708  77.971  36.288  0.00  0.00    +0.029 C 
ENDROOT
BRANCH   2   6
ATOM      6  C   LIG    1      -23.957  77.664  32.660  0.00  0.00    +0.126 A 
ATOM      7  N   LIG    1      -22.732  77.199  32.543  0.00  0.00    -0.212 NA
ATOM      8  C   LIG    1      -22.233  76.988  31.284  0.00  0.00    +0.170 A 
ATOM      9  C   LIG    1      -20.982  76.595  30.843  0.00  0.00    +0.100 A 
ATOM     10  C   LIG    1      -21.105  76.546  29.439  0.00  0.00    +0.150 A 
ATOM     11  N   LIG    1      -22.319  76.883  29.005  0.00  0.00    -0.173 NA
ATOM     12  N   LIG    1      -22.996  77.195  30.135  0.00  0.00    -0.221 N 
ATOM     13  C   LIG    1      -24.280  77.704  30.236  0.00  0.00    +0.118 A 
ATOM     14  C   LIG    1      -24.798  77.982  31.437  0.00  0.00    +0.063 A 
BRANCH   9  15
ATOM     15  C   LIG    1      -19.808  76.310  31.631  0.00  0.00    +0.247 C 
ATOM     16  N   LIG    1      -20.033  75.888  32.899  0.00  0.00    -0.325 N 
ATOM     17  H   LIG    1      -19.252  75.730  33.519  0.00  0.00    +0.145 HD
ATOM     18  H   LIG    1      -20.988  75.834  33.258  0.00  0.00    +0.145 HD
ATOM     19  O   LIG    1      -18.659  76.446  31.198  0.00  0.00    -0.270 OA
ENDBRANCH   9  15
ENDBRANCH   2   6
BRANCH   1  21
ATOM     20  C   LIG    1      -21.359  79.117  35.211  0.00  0.00    +0.126 A 
ATOM     21  C   LIG    1      -22.775  79.204  35.254  0.00  0.00    +0.017 A 
ATOM     22  C   LIG    1      -23.361  80.474  35.436  0.00  0.00    +0.047 A 
ATOM     23  C   LIG    1      -22.575  81.616  35.531  0.00  0.00    +0.124 A 
ATOM     24  F   LIG    1      -23.155  82.812  35.689  0.00  0.00    -0.205 F 
ATOM     25  C   LIG    1      -21.196  81.532  35.488  0.00  0.00    +0.042 A 
ATOM     26  C   LIG    1      -20.590  80.285  35.352  0.00  0.00    +0.049 A 
BRANCH  20  27
ATOM     27  O   LIG    1      -20.785  77.869  35.118  0.00  0.00    -0.489 OA
BRANCH  27  28
ATOM     28  C   LIG    1      -20.116  77.359  36.286  0.00  0.00    +0.257 C 
BRANCH  28  29
ATOM     29  C   LIG    1      -18.598  77.404  36.089  0.00  0.00    +0.200 C 
BRANCH  29  31
ATOM     30  C   LIG    1      -17.427  78.415  34.301  0.00  0.00    +0.194 C 
ATOM     31  O   LIG    1      -18.296  77.357  34.692  0.00  0.00    -0.380 OA
ENDBRANCH  29  31
ENDBRANCH  28  29
ENDBRANCH  27  28
ENDBRANCH  20  27
ENDBRANCH   1  21
TORSDOF 7
ENDMDL
MODEL 5
REMARK VINA RESULT:      -4.9      4.874      7.162
REMARK  Name = pdb/CHEMBL3675964.pdb
REMARK                            x       y       z     vdW  Elec       q    Type
REMARK                         _______ _______ _______ _____ _____    ______ ____
ROOT
ATOM      1  C   LIG    1      -38.130  74.315  24.924  0.00  0.00    +0.109 C 
ATOM      2  N   LIG    1      -37.970  74.139  26.394  0.00  0.00    -0.308 N 
ATOM      3  C   LIG    1      -37.457  75.375  26.996  0.00  0.00    +0.107 C 
ATOM      4  C   LIG    1      -37.084  76.268  25.824  0.00  0.00    +0.021 C 
ATOM      5  C   LIG    1      -38.063  75.844  24.748  0.00  0.00    +0.029 C 
ENDROOT
BRANCH   2   6
ATOM      6  C   LIG    1      -37.797  72.898  27.000  0.00  0.00    +0.126 A 
ATOM      7  N   LIG    1      -36.720  72.192  26.732  0.00  0.00    -0.212 NA
ATOM      8  C   LIG    1      -36.563  70.981  27.353  0.00  0.00    +0.170 A 
ATOM      9  C   LIG    1      -35.603  69.994  27.218  0.00  0.00    +0.100 A 
ATOM     10  C   LIG    1      -35.990  69.001  28.142  0.00  0.00    +0.150 A 
ATOM     11  N   LIG    1      -37.102  69.307  28.810  0.00  0.00    -0.173 NA
ATOM     12  N   LIG    1      -37.475  70.502  28.294  0.00  0.00    -0.221 N 
ATOM     13  C   LIG    1      -38.625  71.219  28.575  0.00  0.00    +0.118 A 
ATOM     14  C   LIG    1      -38.858  72.382  27.956  0.00  0.00    +0.063 A 
BRANCH   9  15
ATOM     15  C   LIG    1      -34.468  69.970  26.328  0.00  0.00    +0.247 C 
ATOM     16  N   LIG    1      -34.464  70.905  25.347  0.00  0.00    -0.325 N 
ATOM     17  H   LIG    1      -33.727  70.902  24.658  0.00  0.00    +0.145 HD
ATOM     18  H   LIG    1      -35.258  71.540  25.243  0.00  0.00    +0.145 HD
ATOM     19  O   LIG    1      -33.551  69.149  26.432  0.00  0.00    -0.270 OA
ENDBRANCH   9  15
ENDBRANCH   2   6
BRANCH   1  21
ATOM     20  C   LIG    1      -39.586  72.402  24.008  0.00  0.00    +0.126 A 
ATOM     21  C   LIG    1      -39.431  73.773  24.343  0.00  0.00    +0.017 A 
ATOM     22  C   LIG    1      -40.504  74.651  24.081  0.00  0.00    +0.047 A 
ATOM     23  C   LIG    1      -41.697  74.181  23.545  0.00  0.00    +0.124 A 
ATOM     24  F   LIG    1      -42.707  75.030  23.320  0.00  0.00    -0.205 F 
ATOM     25  C   LIG    1      -41.849  72.846  23.220  0.00  0.00    +0.042 A 
ATOM     26  C   LIG    1      -40.790  71.965  23.429  0.00  0.00    +0.049 A 
BRANCH  20  27
ATOM     27  O   LIG    1      -38.510  71.562  24.185  0.00  0.00    -0.489 OA
BRANCH  27  28
ATOM     28  C   LIG    1      -38.789  70.172  24.431  0.00  0.00    +0.257 C 
BRANCH  28  29
ATOM     29  C   LIG    1      -37.562  69.319  24.099  0.00  0.00    +0.200 C 
BRANCH  29  31
ATOM     30  C   LIG    1      -37.299  69.030  21.767  0.00  0.00    +0.194 C 
ATOM     31  O   LIG    1      -36.948  69.811  22.904  0.00  0.00    -0.380 OA
ENDBRANCH  29  31
ENDBRANCH  28  29
ENDBRANCH  27  28
ENDBRANCH  20  27
ENDBRANCH   1  21
TORSDOF 7
ENDMDL
MODEL 6
REMARK VINA RESULT:      -4.9     12.897     16.319
REMARK  Name = pdb/CHEMBL3675964.pdb
REMARK                            x       y       z     vdW  Elec       q    Type
REMARK                         _______ _______ _______ _____ _____    ______ ____
ROOT
ATOM      1  C   LIG    1      -23.234  74.563  32.271  0.00  0.00    +0.109 C 
ATOM      2  N   LIG    1      -23.162  74.948  33.708  0.00  0.00    -0.308 N 
ATOM      3  C   LIG    1      -23.089  73.748  34.548  0.00  0.00    +0.107 C 
ATOM      4  C   LIG    1      -23.345  72.582  33.607  0.00  0.00    +0.021 C 
ATOM      5  C   LIG    1      -22.799  73.085  32.286  0.00  0.00    +0.029 C 
ENDROOT
BRANCH   2   6
ATOM      6  C   LIG    1      -23.636  76.161  34.198  0.00  0.00    +0.126 A 
ATOM      7  N   LIG    1      -22.837  77.206  34.221  0.00  0.00    -0.212 NA
ATOM      8  C   LIG    1      -23.330  78.394  34.692  0.00  0.00    +0.170 A 
ATOM      9  C   LIG    1      -22.727  79.619  34.914  0.00  0.00    +0.100 A 
ATOM     10  C   LIG    1      -23.769  80.441  35.392  0.00  0.00    +0.150 A 
ATOM     11  N   LIG    1      -24.939  79.810  35.483  0.00  0.00    -0.173 NA
ATOM     12  N   LIG    1      -24.658  78.543  35.094  0.00  0.00    -0.221 N 
ATOM     13  C   LIG    1      -25.510  77.452  35.097  0.00  0.00    +0.118 A 
ATOM     14  C   LIG    1      -25.066  76.254  34.701  0.00  0.00    +0.063 A 
BRANCH   9  15
ATOM     15  C   LIG    1      -21.345  79.981  34.717  0.00  0.00    +0.247 C 
ATOM     16  N   LIG    1      -20.604  79.114  33.984  0.00  0.00    -0.325 N 
ATOM     17  H   LIG    1      -19.616  79.282  33.861  0.00  0.00    +0.145 HD
ATOM     18  H   LIG    1      -21.019  78.242  33.650  0.00  0.00    +0.145 HD
ATOM     19  O   LIG    1      -20.846  81.008  35.186  0.00  0.00    -0.270 OA
ENDBRANCH   9  15
ENDBRANCH   2   6
BRANCH   1  21
ATOM     20  C   LIG    1      -22.874  76.199  30.319  0.00  0.00    +0.126 A 
ATOM     21  C   LIG    1      -22.338  75.369  31.338  0.00  0.00    +0.017 A 
ATOM     22  C   LIG    1      -20.935  75.262  31.444  0.00  0.00    +0.047 A 
ATOM     23  C   LIG    1      -20.099  75.981  30.599  0.00  0.00    +0.124 A 
ATOM     24  F   LIG    1      -18.770  75.876  30.729  0.00  0.00    -0.205 F 
ATOM     25  C   LIG    1      -20.620  76.792  29.608  0.00  0.00    +0.042 A 
ATOM     26  C   LIG    1      -22.002  76.882  29.454  0.00  0.00    +0.049 A 
BRANCH  20  27
ATOM     27  O   LIG    1      -24.241  76.238  30.162  0.00  0.00    -0.489 OA
BRANCH  27  28
ATOM     28  C   LIG    1      -24.901  77.494  30.401  0.00  0.00    +0.257 C 
BRANCH  28  29
ATOM     29  C   LIG    1      -25.950  77.341  31.506  0.00  0.00    +0.200 C 
BRANCH  29  31
ATOM     30  C   LIG    1      -27.821  76.048  32.153  0.00  0.00    +0.194 C 
ATOM     31  O   LIG    1      -26.954  76.413  31.084  0.00  0.00    -0.380 OA
ENDBRANCH  29  31
ENDBRANCH  28  29
ENDBRANCH  27  28
ENDBRANCH  20  27
ENDBRANCH   1  21
TORSDOF 7
ENDMDL
MODEL 7
REMARK VINA RESULT:      -4.9     19.934     21.895
REMARK  Name = pdb/CHEMBL3675964.pdb
REMARK                            x       y       z     vdW  Elec       q    Type
REMARK                         _______ _______ _______ _____ _____    ______ ____
ROOT
ATOM      1  C   LIG    1      -21.334  81.080  14.713  0.00  0.00    +0.109 C 
ATOM      2  N   LIG    1      -21.913  82.360  15.209  0.00  0.00    -0.308 N 
ATOM      3  C   LIG    1      -22.452  82.179  16.562  0.00  0.00    +0.107 C 
ATOM      4  C   LIG    1      -22.397  80.681  16.818  0.00  0.00    +0.021 C 
ATOM      5  C   LIG    1      -21.204  80.238  15.996  0.00  0.00    +0.029 C 
ENDROOT
BRANCH   2   6
ATOM      6  C   LIG    1      -22.365  83.371  14.367  0.00  0.00    +0.126 A 
ATOM      7  N   LIG    1      -22.162  84.628  14.698  0.00  0.00    -0.212 NA
ATOM      8  C   LIG    1      -22.602  85.607  13.845  0.00  0.00    +0.170 A 
ATOM      9  C   LIG    1      -22.611  86.986  13.951  0.00  0.00    +0.100 A 
ATOM     10  C   LIG    1      -23.181  87.427  12.738  0.00  0.00    +0.150 A 
ATOM     11  N   LIG    1      -23.520  86.429  11.923  0.00  0.00    -0.173 NA
ATOM     12  N   LIG    1      -23.204  85.313  12.621  0.00  0.00    -0.221 N 
ATOM     13  C   LIG    1      -23.446  83.998  12.264  0.00  0.00    +0.118 A 
ATOM     14  C   LIG    1      -23.089  83.003  13.083  0.00  0.00    +0.063 A 
BRANCH   9  15
ATOM     15  C   LIG    1      -22.154  87.798  15.052  0.00  0.00    +0.247 C 
ATOM     16  N   LIG    1      -21.033  87.368  15.681  0.00  0.00    -0.325 N 
ATOM     17  H   LIG    1      -20.698  87.860  16.496  0.00  0.00    +0.145 HD
ATOM     18  H   LIG    1      -20.593  86.490  15.398  0.00  0.00    +0.145 HD
ATOM     19  O   LIG    1      -22.740  88.821  15.420  0.00  0.00    -0.270 OA
ENDBRANCH   9  15
ENDBRANCH   2   6
BRANCH   1  21
ATOM     20  C   LIG    1      -19.552  80.267  13.046  0.00  0.00    +0.126 A 
ATOM     21  C   LIG    1      -19.982  81.204  14.021  0.00  0.00    +0.017 A 
ATOM     22  C   LIG    1      -19.101  82.246  14.382  0.00  0.00    +0.047 A 
ATOM     23  C   LIG    1      -17.860  82.374  13.770  0.00  0.00    +0.124 A 
ATOM     24  F   LIG    1      -17.047  83.379  14.118  0.00  0.00    -0.205 F 
ATOM     25  C   LIG    1      -17.441  81.463  12.819  0.00  0.00    +0.042 A 
ATOM     26  C   LIG    1      -18.275  80.400  12.476  0.00  0.00    +0.049 A 
BRANCH  20  27
ATOM     27  O   LIG    1      -20.377  79.204  12.756  0.00  0.00    -0.489 OA
BRANCH  27  28
ATOM     28  C   LIG    1      -19.788  77.890  12.748  0.00  0.00    +0.257 C 
BRANCH  28  29
ATOM     29  C   LIG    1      -19.671  77.353  14.177  0.00  0.00    +0.200 C 
BRANCH  29  31
ATOM     30  C   LIG    1      -18.203  77.995  15.916  0.00  0.00    +0.194 C 
ATOM     31  O   LIG    1      -18.310  77.439  14.610  0.00  0.00    -0.380 OA
ENDBRANCH  29  31
ENDBRANCH  28  29
ENDBRANCH  27  28
ENDBRANCH  20  27
ENDBRANCH   1  21
TORSDOF 7
ENDMDL
MODEL 8
REMARK VINA RESULT:      -4.8     20.146     22.302
REMARK  Name = pdb/CHEMBL3675964.pdb
REMARK                            x       y       z     vdW  Elec       q    Type
REMARK                         _______ _______ _______ _____ _____    ______ ____
ROOT
ATOM      1  C   LIG    1      -22.256  86.378  14.123  0.00  0.00    +0.109 C 
ATOM      2  N   LIG    1      -22.514  87.260  12.950  0.00  0.00    -0.308 N 
ATOM      3  C   LIG    1      -22.611  88.658  13.383  0.00  0.00    +0.107 C 
ATOM      4  C   LIG    1      -22.629  88.608  14.903  0.00  0.00    +0.021 C 
ATOM      5  C   LIG    1      -21.810  87.371  15.212  0.00  0.00    +0.029 C 
ENDROOT
BRANCH   2   6
ATOM      6  C   LIG    1      -23.106  86.811  11.773  0.00  0.00    +0.126 A 
ATOM      7  N   LIG    1      -24.284  86.227  11.824  0.00  0.00    -0.212 NA
ATOM      8  C   LIG    1      -24.855  85.808  10.651  0.00  0.00    +0.170 A 
ATOM      9  C   LIG    1      -26.017  85.103  10.392  0.00  0.00    +0.100 A 
ATOM     10  C   LIG    1      -26.056  84.998   8.986  0.00  0.00    +0.150 A 
ATOM     11  N   LIG    1      -25.013  85.571   8.385  0.00  0.00    -0.173 NA
ATOM     12  N   LIG    1      -24.256  86.029   9.410  0.00  0.00    -0.221 N 
ATOM     13  C   LIG    1      -23.008  86.623   9.336  0.00  0.00    +0.118 A 
ATOM     14  C   LIG    1      -22.379  87.002  10.454  0.00  0.00    +0.063 A 
BRANCH   9  15
ATOM     15  C   LIG    1      -26.972  84.581  11.338  0.00  0.00    +0.247 C 
ATOM     16  N   LIG    1      -26.458  83.851  12.358  0.00  0.00    -0.325 N 
ATOM     17  H   LIG    1      -27.080  83.409  13.018  0.00  0.00    +0.145 HD
ATOM     18  H   LIG    1      -25.454  83.661  12.395  0.00  0.00    +0.145 HD
ATOM     19  O   LIG    1      -28.188  84.767  11.236  0.00  0.00    -0.270 OA
ENDBRANCH   9  15
ENDBRANCH   2   6
BRANCH   1  21
ATOM     20  C   LIG    1      -21.491  83.926  13.981  0.00  0.00    +0.126 A 
ATOM     21  C   LIG    1      -21.189  85.311  13.910  0.00  0.00    +0.017 A 
ATOM     22  C   LIG    1      -19.849  85.693  13.683  0.00  0.00    +0.047 A 
ATOM     23  C   LIG    1      -18.857  84.738  13.494  0.00  0.00    +0.124 A 
ATOM     24  F   LIG    1      -17.596  85.124  13.265  0.00  0.00    -0.205 F 
ATOM     25  C   LIG    1      -19.151  83.389  13.561  0.00  0.00    +0.042 A 
ATOM     26  C   LIG    1      -20.458  82.986  13.826  0.00  0.00    +0.049 A 
BRANCH  20  27
ATOM     27  O   LIG    1      -22.781  83.556  14.286  0.00  0.00    -0.489 OA
BRANCH  27  28
ATOM     28  C   LIG    1      -23.317  82.404  13.609  0.00  0.00    +0.257 C 
BRANCH  28  29
ATOM     29  C   LIG    1      -23.924  81.429  14.621  0.00  0.00    +0.200 C 
BRANCH  29  31
ATOM     30  C   LIG    1      -25.419  79.990  13.488  0.00  0.00    +0.194 C 
ATOM     31  O   LIG    1      -25.287  81.169  14.275  0.00  0.00    -0.380 OA
ENDBRANCH  29  31
ENDBRANCH  28  29
ENDBRANCH  27  28
ENDBRANCH  20  27
ENDBRANCH   1  21
TORSDOF 7
ENDMDL
MODEL 9
REMARK VINA RESULT:      -4.7     11.569     14.152
REMARK  Name = pdb/CHEMBL3675964.pdb
REMARK                            x       y       z     vdW  Elec       q    Type
REMARK                         _______ _______ _______ _____ _____    ______ ____
ROOT
ATOM      1  C   LIG    1      -35.549  66.152  17.987  0.00  0.00    +0.109 C 
ATOM      2  N   LIG    1      -34.653  66.948  17.104  0.00  0.00    -0.308 N 
ATOM      3  C   LIG    1      -35.074  66.812  15.705  0.00  0.00    +0.107 C 
ATOM      4  C   LIG    1      -36.133  65.721  15.708  0.00  0.00    +0.021 C 
ATOM      5  C   LIG    1      -36.760  65.859  17.081  0.00  0.00    +0.029 C 
ENDROOT
BRANCH   2   6
ATOM      6  C   LIG    1      -33.350  67.293  17.449  0.00  0.00    +0.126 A 
ATOM      7  N   LIG    1      -32.991  68.559  17.439  0.00  0.00    -0.212 NA
ATOM      8  C   LIG    1      -31.708  68.876  17.798  0.00  0.00    +0.170 A 
ATOM      9  C   LIG    1      -31.023  70.078  17.806  0.00  0.00    +0.100 A 
ATOM     10  C   LIG    1      -29.742  69.749  18.294  0.00  0.00    +0.150 A 
ATOM     11  N   LIG    1      -29.601  68.453  18.570  0.00  0.00    -0.173 NA
ATOM     12  N   LIG    1      -30.793  67.913  18.225  0.00  0.00    -0.221 N 
ATOM     13  C   LIG    1      -31.144  66.573  18.224  0.00  0.00    +0.118 A 
ATOM     14  C   LIG    1      -32.366  66.200  17.828  0.00  0.00    +0.063 A 
BRANCH   9  15
ATOM     15  C   LIG    1      -31.499  71.377  17.397  0.00  0.00    +0.247 C 
ATOM     16  N   LIG    1      -31.608  72.305  18.380  0.00  0.00    -0.325 N 
ATOM     17  H   LIG    1      -31.991  73.214  18.168  0.00  0.00    +0.145 HD
ATOM     18  H   LIG    1      -31.405  72.049  19.349  0.00  0.00    +0.145 HD
ATOM     19  O   LIG    1      -31.802  71.645  16.231  0.00  0.00    -0.270 OA
ENDBRANCH   9  15
ENDBRANCH   2   6
BRANCH   1  21
ATOM     20  C   LIG    1      -35.457  66.531  20.530  0.00  0.00    +0.126 A 
ATOM     21  C   LIG    1      -36.000  66.858  19.261  0.00  0.00    +0.017 A 
ATOM     22  C   LIG    1      -37.018  67.833  19.200  0.00  0.00    +0.047 A 
ATOM     23  C   LIG    1      -37.451  68.485  20.349  0.00  0.00    +0.124 A 
ATOM     24  F   LIG    1      -38.408  69.418  20.265  0.00  0.00    -0.205 F 
ATOM     25  C   LIG    1      -36.921  68.168  21.585  0.00  0.00    +0.042 A 
ATOM     26  C   LIG    1      -35.944  67.179  21.678  0.00  0.00    +0.049 A 
BRANCH  20  27
ATOM     27  O   LIG    1      -34.524  65.521  20.599  0.00  0.00    -0.489 OA
BRANCH  27  28
ATOM     28  C   LIG    1      -34.686  64.538  21.638  0.00  0.00    +0.257 C 
BRANCH  28  29
ATOM     29  C   LIG    1      -34.916  63.153  21.028  0.00  0.00    +0.200 C 
BRANCH  29  31
ATOM     30  C   LIG    1      -34.416  61.799  19.155  0.00  0.00    +0.194 C 
ATOM     31  O   LIG    1      -34.167  63.036  19.815  0.00  0.00    -0.380 OA
ENDBRANCH  29  31
ENDBRANCH  28  29
ENDBRANCH  27  28
ENDBRANCH  20  27
ENDBRANCH   1  21
TORSDOF 7
ENDMDL
