MODEL 1
REMARK VINA RESULT:      -6.6      0.000      0.000
REMARK  Name = pdb/CHEMBL3970377.pdb
REMARK                            x       y       z     vdW  Elec       q    Type
REMARK                         _______ _______ _______ _____ _____    ______ ____
ROOT
ATOM      1  C   LIG    1      -36.745  76.785  26.742  0.00  0.00    +0.149 A 
ATOM      2  N   LIG    1      -37.829  77.418  26.267  0.00  0.00    -0.160 NA
ATOM      3  N   LIG    1      -38.570  76.453  25.675  0.00  0.00    -0.218 N 
ATOM      4  C   LIG    1      -37.872  75.243  25.606  0.00  0.00    +0.129 A 
ATOM      5  C   LIG    1      -36.733  75.427  26.342  0.00  0.00    +0.078 A 
ENDROOT
BRANCH   3   6
ATOM      6  C   LIG    1      -39.877  76.757  25.202  0.00  0.00    +0.067 A 
ATOM      7  C   LIG    1      -40.116  76.824  23.822  0.00  0.00    +0.028 A 
ATOM      8  C   LIG    1      -41.386  77.162  23.345  0.00  0.00    +0.002 A 
ATOM      9  C   LIG    1      -42.420  77.434  24.239  0.00  0.00    +0.000 A 
ATOM     10  C   LIG    1      -42.191  77.361  25.610  0.00  0.00    +0.002 A 
ATOM     11  C   LIG    1      -40.919  77.040  26.092  0.00  0.00    +0.028 A 
ENDBRANCH   3   6
BRANCH   4  12
ATOM     12  N   LIG    1      -38.214  74.115  24.861  0.00  0.00    -0.266 N 
ATOM     13  H   LIG    1      -37.635  73.928  24.054  0.00  0.00    +0.157 HD
ATOM     14  C   LIG    1      -39.243  73.170  25.211  0.00  0.00    +0.251 C 
ATOM     15  O   LIG    1      -39.918  73.314  26.206  0.00  0.00    -0.270 OA
BRANCH  14  16
ATOM     16  C   LIG    1      -39.440  72.003  24.279  0.00  0.00    +0.056 A 
ATOM     17  C   LIG    1      -40.580  71.770  23.525  0.00  0.00    +0.054 A 
ATOM     18 CL   LIG    1      -41.910  72.849  23.349  0.00  0.00    -0.083 Cl
ATOM     19  C   LIG    1      -40.717  70.580  22.819  0.00  0.00    +0.041 A 
ATOM     20  C   LIG    1      -39.709  69.615  22.828  0.00  0.00    +0.052 A 
ATOM     21 CL   LIG    1      -40.173  68.105  22.119  0.00  0.00    -0.083 Cl
ATOM     22  C   LIG    1      -38.476  69.854  23.463  0.00  0.00    +0.022 A 
ATOM     23  C   LIG    1      -38.388  71.055  24.225  0.00  0.00    +0.026 A 
BRANCH  22  24
ATOM     24  C   LIG    1      -37.304  68.942  23.408  0.00  0.00    +0.107 A 
ATOM     25  C   LIG    1      -36.701  68.497  22.226  0.00  0.00    +0.149 A 
ATOM     26  F   LIG    1      -37.072  68.955  21.024  0.00  0.00    -0.203 F 
ATOM     27  C   LIG    1      -35.640  67.600  22.274  0.00  0.00    +0.042 A 
ATOM     28  C   LIG    1      -35.129  67.224  23.505  0.00  0.00    +0.023 A 
ATOM     29  C   LIG    1      -35.714  67.760  24.640  0.00  0.00    +0.111 A 
ATOM     30  N   LIG    1      -36.789  68.588  24.621  0.00  0.00    -0.252 NA
ENDBRANCH  22  24
ENDBRANCH  14  16
ENDBRANCH   4  12
BRANCH   1  32
ATOM     31  N   LIG    1      -34.535  77.673  27.038  0.00  0.00    -0.233 NA
ATOM     32  C   LIG    1      -35.706  77.434  27.529  0.00  0.00    +0.237 C 
BRANCH  31  33
ATOM     33  C   LIG    1      -33.443  78.150  27.851  0.00  0.00    +0.140 C 
ATOM     34  C   LIG    1      -32.461  79.074  27.147  0.00  0.00    +0.043 C 
ATOM     35  C   LIG    1      -33.466  79.645  28.091  0.00  0.00    +0.043 C 
BRANCH  33  38
ATOM     36  C   LIG    1      -31.383  75.594  29.664  0.00  0.00    +0.174 C 
ATOM     37  N   LIG    1      -31.986  76.413  28.629  0.00  0.00    -0.256 NA
ATOM     38  C   LIG    1      -32.894  77.267  28.934  0.00  0.00    +0.211 C 
BRANCH  38  39
ATOM     39  O   LIG    1      -33.378  77.511  30.166  0.00  0.00    -0.494 OA
ATOM     40  H   LIG    1      -34.330  77.670  30.155  0.00  0.00    +0.293 HD
ENDBRANCH  38  39
ENDBRANCH  33  38
ENDBRANCH  31  33
BRANCH  32  41
ATOM     41  O   LIG    1      -36.129  77.757  28.772  0.00  0.00    -0.491 OA
ATOM     42  H   LIG    1      -36.106  78.721  28.926  0.00  0.00    +0.294 HD
ENDBRANCH  32  41
ENDBRANCH   1  32
TORSDOF 9
ENDMDL
MODEL 2
REMARK VINA RESULT:      -6.4     11.277     18.405
REMARK  Name = pdb/CHEMBL3970377.pdb
REMARK                            x       y       z     vdW  Elec       q    Type
REMARK                         _______ _______ _______ _____ _____    ______ ____
ROOT
ATOM      1  C   LIG    1      -27.172  76.249  31.913  0.00  0.00    +0.149 A 
ATOM      2  N   LIG    1      -26.139  75.993  31.096  0.00  0.00    -0.160 NA
ATOM      3  N   LIG    1      -25.090  76.657  31.635  0.00  0.00    -0.218 N 
ATOM      4  C   LIG    1      -25.497  77.487  32.685  0.00  0.00    +0.129 A 
ATOM      5  C   LIG    1      -26.812  77.184  32.912  0.00  0.00    +0.078 A 
ENDROOT
BRANCH   3   6
ATOM      6  C   LIG    1      -23.786  76.468  31.101  0.00  0.00    +0.067 A 
ATOM      7  C   LIG    1      -22.956  75.471  31.635  0.00  0.00    +0.028 A 
ATOM      8  C   LIG    1      -21.657  75.303  31.147  0.00  0.00    +0.002 A 
ATOM      9  C   LIG    1      -21.180  76.125  30.127  0.00  0.00    +0.000 A 
ATOM     10  C   LIG    1      -22.002  77.111  29.588  0.00  0.00    +0.002 A 
ATOM     11  C   LIG    1      -23.295  77.295  30.084  0.00  0.00    +0.028 A 
ENDBRANCH   3   6
BRANCH   4  12
ATOM     12  N   LIG    1      -24.748  78.485  33.307  0.00  0.00    -0.266 N 
ATOM     13  H   LIG    1      -25.019  79.436  33.094  0.00  0.00    +0.157 HD
ATOM     14  C   LIG    1      -23.712  78.261  34.281  0.00  0.00    +0.251 C 
ATOM     15  O   LIG    1      -23.398  77.141  34.621  0.00  0.00    -0.270 OA
BRANCH  14  16
ATOM     16  C   LIG    1      -23.037  79.482  34.850  0.00  0.00    +0.056 A 
ATOM     17  C   LIG    1      -21.698  79.801  34.685  0.00  0.00    +0.054 A 
ATOM     18 CL   LIG    1      -20.587  78.986  33.652  0.00  0.00    -0.083 Cl
ATOM     19  C   LIG    1      -21.145  80.869  35.383  0.00  0.00    +0.041 A 
ATOM     20  C   LIG    1      -21.922  81.655  36.235  0.00  0.00    +0.052 A 
ATOM     21 CL   LIG    1      -21.007  82.753  37.210  0.00  0.00    -0.083 Cl
ATOM     22  C   LIG    1      -23.312  81.464  36.336  0.00  0.00    +0.022 A 
ATOM     23  C   LIG    1      -23.839  80.328  35.656  0.00  0.00    +0.026 A 
BRANCH  22  24
ATOM     24  C   LIG    1      -24.233  82.337  37.112  0.00  0.00    +0.107 A 
ATOM     25  C   LIG    1      -24.205  82.480  38.502  0.00  0.00    +0.149 A 
ATOM     26  F   LIG    1      -23.253  81.914  39.255  0.00  0.00    -0.203 F 
ATOM     27  C   LIG    1      -25.143  83.280  39.144  0.00  0.00    +0.042 A 
ATOM     28  C   LIG    1      -26.047  84.004  38.385  0.00  0.00    +0.023 A 
ATOM     29  C   LIG    1      -25.975  83.885  37.007  0.00  0.00    +0.111 A 
ATOM     30  N   LIG    1      -25.109  83.064  36.360  0.00  0.00    -0.252 NA
ENDBRANCH  22  24
ENDBRANCH  14  16
ENDBRANCH   4  12
BRANCH   1  32
ATOM     31  N   LIG    1      -29.389  76.209  30.995  0.00  0.00    -0.233 NA
ATOM     32  C   LIG    1      -28.497  75.664  31.754  0.00  0.00    +0.237 C 
BRANCH  31  33
ATOM     33  C   LIG    1      -30.756  75.747  30.963  0.00  0.00    +0.140 C 
ATOM     34  C   LIG    1      -31.489  75.972  29.649  0.00  0.00    +0.043 C 
ATOM     35  C   LIG    1      -30.995  74.606  29.995  0.00  0.00    +0.043 C 
BRANCH  33  38
ATOM     36  C   LIG    1      -32.568  74.708  34.077  0.00  0.00    +0.174 C 
ATOM     37  N   LIG    1      -31.840  74.693  32.822  0.00  0.00    -0.256 NA
ATOM     38  C   LIG    1      -31.576  75.794  32.219  0.00  0.00    +0.211 C 
BRANCH  38  39
ATOM     39  O   LIG    1      -31.907  77.030  32.636  0.00  0.00    -0.494 OA
ATOM     40  H   LIG    1      -32.852  77.200  32.547  0.00  0.00    +0.293 HD
ENDBRANCH  38  39
ENDBRANCH  33  38
ENDBRANCH  31  33
BRANCH  32  41
ATOM     41  O   LIG    1      -28.640  74.517  32.456  0.00  0.00    -0.491 OA
ATOM     42  H   LIG    1      -28.238  74.580  33.342  0.00  0.00    +0.294 HD
ENDBRANCH  32  41
ENDBRANCH   1  32
TORSDOF 9
ENDMDL
MODEL 3
REMARK VINA RESULT:      -6.3      3.960      9.642
REMARK  Name = pdb/CHEMBL3970377.pdb
REMARK                            x       y       z     vdW  Elec       q    Type
REMARK                         _______ _______ _______ _____ _____    ______ ____
ROOT
ATOM      1  C   LIG    1      -40.628  72.843  23.731  0.00  0.00    +0.149 A 
ATOM      2  N   LIG    1      -40.993  74.118  23.935  0.00  0.00    -0.160 NA
ATOM      3  N   LIG    1      -39.885  74.730  24.416  0.00  0.00    -0.218 N 
ATOM      4  C   LIG    1      -38.873  73.805  24.696  0.00  0.00    +0.129 A 
ATOM      5  C   LIG    1      -39.315  72.608  24.201  0.00  0.00    +0.078 A 
ENDROOT
BRANCH   3   6
ATOM      6  C   LIG    1      -39.877  76.141  24.591  0.00  0.00    +0.067 A 
ATOM      7  C   LIG    1      -39.911  76.678  25.886  0.00  0.00    +0.028 A 
ATOM      8  C   LIG    1      -39.946  78.064  26.071  0.00  0.00    +0.002 A 
ATOM      9  C   LIG    1      -39.946  78.917  24.969  0.00  0.00    +0.000 A 
ATOM     10  C   LIG    1      -39.905  78.390  23.682  0.00  0.00    +0.002 A 
ATOM     11  C   LIG    1      -39.887  77.006  23.491  0.00  0.00    +0.028 A 
ENDBRANCH   3   6
BRANCH   4  12
ATOM     12  N   LIG    1      -37.702  74.032  25.418  0.00  0.00    -0.266 N 
ATOM     13  H   LIG    1      -36.928  74.414  24.892  0.00  0.00    +0.157 HD
ATOM     14  C   LIG    1      -37.557  73.859  26.840  0.00  0.00    +0.251 C 
ATOM     15  O   LIG    1      -38.477  73.470  27.524  0.00  0.00    -0.270 OA
BRANCH  14  16
ATOM     16  C   LIG    1      -36.208  74.180  27.430  0.00  0.00    +0.056 A 
ATOM     17  C   LIG    1      -35.381  73.269  28.068  0.00  0.00    +0.054 A 
ATOM     18 CL   LIG    1      -35.628  71.567  28.147  0.00  0.00    -0.083 Cl
ATOM     19  C   LIG    1      -34.229  73.706  28.712  0.00  0.00    +0.041 A 
ATOM     20  C   LIG    1      -33.866  75.054  28.709  0.00  0.00    +0.052 A 
ATOM     21 CL   LIG    1      -32.562  75.435  29.781  0.00  0.00    -0.083 Cl
ATOM     22  C   LIG    1      -34.593  76.001  27.964  0.00  0.00    +0.022 A 
ATOM     23  C   LIG    1      -35.798  75.535  27.364  0.00  0.00    +0.026 A 
BRANCH  22  24
ATOM     24  C   LIG    1      -34.201  77.426  27.795  0.00  0.00    +0.107 A 
ATOM     25  C   LIG    1      -33.046  77.856  27.134  0.00  0.00    +0.149 A 
ATOM     26  F   LIG    1      -32.238  77.005  26.490  0.00  0.00    -0.203 F 
ATOM     27  C   LIG    1      -32.737  79.210  27.072  0.00  0.00    +0.042 A 
ATOM     28  C   LIG    1      -33.629  80.132  27.594  0.00  0.00    +0.023 A 
ATOM     29  C   LIG    1      -34.796  79.651  28.164  0.00  0.00    +0.111 A 
ATOM     30  N   LIG    1      -35.092  78.333  28.291  0.00  0.00    -0.252 NA
ENDBRANCH  22  24
ENDBRANCH  14  16
ENDBRANCH   4  12
BRANCH   1  32
ATOM     31  N   LIG    1      -41.036  70.928  22.343  0.00  0.00    -0.233 NA
ATOM     32  C   LIG    1      -41.497  71.836  23.138  0.00  0.00    +0.237 C 
BRANCH  31  33
ATOM     33  C   LIG    1      -41.901  70.037  21.609  0.00  0.00    +0.140 C 
ATOM     34  C   LIG    1      -41.281  68.704  21.216  0.00  0.00    +0.043 C 
ATOM     35  C   LIG    1      -42.244  68.764  22.356  0.00  0.00    +0.043 C 
BRANCH  33  38
ATOM     36  C   LIG    1      -45.185  71.130  20.166  0.00  0.00    +0.174 C 
ATOM     37  N   LIG    1      -44.169  70.522  21.004  0.00  0.00    -0.256 NA
ATOM     38  C   LIG    1      -42.931  70.613  20.681  0.00  0.00    +0.211 C 
BRANCH  38  39
ATOM     39  O   LIG    1      -42.433  71.244  19.602  0.00  0.00    -0.494 OA
ATOM     40  H   LIG    1      -43.086  71.322  18.896  0.00  0.00    +0.293 HD
ENDBRANCH  38  39
ENDBRANCH  33  38
ENDBRANCH  31  33
BRANCH  32  41
ATOM     41  O   LIG    1      -42.782  71.965  23.539  0.00  0.00    -0.491 OA
ATOM     42  H   LIG    1      -43.411  71.735  22.829  0.00  0.00    +0.294 HD
ENDBRANCH  32  41
ENDBRANCH   1  32
TORSDOF 9
ENDMDL
MODEL 4
REMARK VINA RESULT:      -6.3      8.930     13.325
REMARK  Name = pdb/CHEMBL3970377.pdb
REMARK                            x       y       z     vdW  Elec       q    Type
REMARK                         _______ _______ _______ _____ _____    ______ ____
ROOT
ATOM      1  C   LIG    1      -27.632  66.093  19.023  0.00  0.00    +0.149 A 
ATOM      2  N   LIG    1      -27.711  67.282  18.406  0.00  0.00    -0.160 NA
ATOM      3  N   LIG    1      -28.922  67.778  18.749  0.00  0.00    -0.218 N 
ATOM      4  C   LIG    1      -29.690  66.825  19.427  0.00  0.00    +0.129 A 
ATOM      5  C   LIG    1      -28.851  65.770  19.663  0.00  0.00    +0.078 A 
ENDROOT
BRANCH   3   6
ATOM      6  C   LIG    1      -29.268  69.110  18.390  0.00  0.00    +0.067 A 
ATOM      7  C   LIG    1      -28.508  70.179  18.887  0.00  0.00    +0.028 A 
ATOM      8  C   LIG    1      -28.862  71.496  18.575  0.00  0.00    +0.002 A 
ATOM      9  C   LIG    1      -29.970  71.752  17.770  0.00  0.00    +0.000 A 
ATOM     10  C   LIG    1      -30.723  70.693  17.269  0.00  0.00    +0.002 A 
ATOM     11  C   LIG    1      -30.384  69.377  17.591  0.00  0.00    +0.028 A 
ENDBRANCH   3   6
BRANCH   4  12
ATOM     12  N   LIG    1      -31.053  66.891  19.714  0.00  0.00    -0.266 N 
ATOM     13  H   LIG    1      -31.387  67.780  20.059  0.00  0.00    +0.157 HD
ATOM     14  C   LIG    1      -32.005  65.841  19.466  0.00  0.00    +0.251 C 
ATOM     15  O   LIG    1      -31.665  64.780  18.990  0.00  0.00    -0.270 OA
BRANCH  14  16
ATOM     16  C   LIG    1      -33.440  66.123  19.832  0.00  0.00    +0.056 A 
ATOM     17  C   LIG    1      -34.493  66.185  18.933  0.00  0.00    +0.054 A 
ATOM     18 CL   LIG    1      -34.420  65.768  17.264  0.00  0.00    -0.083 Cl
ATOM     19  C   LIG    1      -35.748  66.607  19.358  0.00  0.00    +0.041 A 
ATOM     20  C   LIG    1      -35.983  66.947  20.691  0.00  0.00    +0.052 A 
ATOM     21 CL   LIG    1      -37.517  67.698  20.967  0.00  0.00    -0.083 Cl
ATOM     22  C   LIG    1      -34.990  66.773  21.673  0.00  0.00    +0.022 A 
ATOM     23  C   LIG    1      -33.700  66.396  21.198  0.00  0.00    +0.026 A 
BRANCH  22  24
ATOM     24  C   LIG    1      -35.195  66.980  23.131  0.00  0.00    +0.107 A 
ATOM     25  C   LIG    1      -35.662  65.999  24.012  0.00  0.00    +0.149 A 
ATOM     26  F   LIG    1      -35.862  64.733  23.624  0.00  0.00    -0.203 F 
ATOM     27  C   LIG    1      -35.872  66.303  25.352  0.00  0.00    +0.042 A 
ATOM     28  C   LIG    1      -35.529  67.559  25.822  0.00  0.00    +0.023 A 
ATOM     29  C   LIG    1      -34.995  68.464  24.920  0.00  0.00    +0.111 A 
ATOM     30  N   LIG    1      -34.837  68.212  23.595  0.00  0.00    -0.252 NA
ENDBRANCH  22  24
ENDBRANCH  14  16
ENDBRANCH   4  12
BRANCH   1  32
ATOM     31  N   LIG    1      -26.408  64.122  19.638  0.00  0.00    -0.233 NA
ATOM     32  C   LIG    1      -26.450  65.240  18.993  0.00  0.00    +0.237 C 
BRANCH  31  33
ATOM     33  C   LIG    1      -25.193  63.354  19.766  0.00  0.00    +0.140 C 
ATOM     34  C   LIG    1      -25.381  61.847  19.856  0.00  0.00    +0.043 C 
ATOM     35  C   LIG    1      -24.908  62.458  18.579  0.00  0.00    +0.043 C 
BRANCH  33  38
ATOM     36  C   LIG    1      -21.930  65.046  20.509  0.00  0.00    +0.174 C 
ATOM     37  N   LIG    1      -23.040  64.405  19.829  0.00  0.00    -0.256 NA
ATOM     38  C   LIG    1      -24.027  63.943  20.506  0.00  0.00    +0.211 C 
BRANCH  38  39
ATOM     39  O   LIG    1      -24.169  63.990  21.843  0.00  0.00    -0.494 OA
ATOM     40  H   LIG    1      -24.807  64.662  22.115  0.00  0.00    +0.293 HD
ENDBRANCH  38  39
ENDBRANCH  33  38
ENDBRANCH  31  33
BRANCH  32  41
ATOM     41  O   LIG    1      -25.469  65.749  18.214  0.00  0.00    -0.491 OA
ATOM     42  H   LIG    1      -24.708  65.142  18.144  0.00  0.00    +0.294 HD
ENDBRANCH  32  41
ENDBRANCH   1  32
TORSDOF 9
ENDMDL
MODEL 5
REMARK VINA RESULT:      -6.2     14.378     16.524
REMARK  Name = pdb/CHEMBL3970377.pdb
REMARK                            x       y       z     vdW  Elec       q    Type
REMARK                         _______ _______ _______ _____ _____    ______ ____
ROOT
ATOM      1  C   LIG    1      -28.497  77.799  12.226  0.00  0.00    +0.149 A 
ATOM      2  N   LIG    1      -27.505  78.479  12.820  0.00  0.00    -0.160 NA
ATOM      3  N   LIG    1      -26.842  77.561  13.560  0.00  0.00    -0.218 N 
ATOM      4  C   LIG    1      -27.522  76.339  13.587  0.00  0.00    +0.129 A 
ATOM      5  C   LIG    1      -28.545  76.462  12.686  0.00  0.00    +0.078 A 
ENDROOT
BRANCH   3   6
ATOM      6  C   LIG    1      -25.623  77.917  14.201  0.00  0.00    +0.067 A 
ATOM      7  C   LIG    1      -25.622  78.929  15.172  0.00  0.00    +0.028 A 
ATOM      8  C   LIG    1      -24.424  79.317  15.780  0.00  0.00    +0.002 A 
ATOM      9  C   LIG    1      -23.226  78.700  15.425  0.00  0.00    +0.000 A 
ATOM     10  C   LIG    1      -23.223  77.689  14.467  0.00  0.00    +0.002 A 
ATOM     11  C   LIG    1      -24.414  77.310  13.844  0.00  0.00    +0.028 A 
ENDBRANCH   3   6
BRANCH   4  12
ATOM     12  N   LIG    1      -27.274  75.255  14.427  0.00  0.00    -0.266 N 
ATOM     13  H   LIG    1      -27.794  75.240  15.294  0.00  0.00    +0.157 HD
ATOM     14  C   LIG    1      -26.425  74.136  14.110  0.00  0.00    +0.251 C 
ATOM     15  O   LIG    1      -25.832  74.074  13.055  0.00  0.00    -0.270 OA
BRANCH  14  16
ATOM     16  C   LIG    1      -26.306  73.055  15.152  0.00  0.00    +0.056 A 
ATOM     17  C   LIG    1      -25.116  72.609  15.706  0.00  0.00    +0.054 A 
ATOM     18 CL   LIG    1      -23.565  73.318  15.467  0.00  0.00    -0.083 Cl
ATOM     19  C   LIG    1      -25.110  71.499  16.544  0.00  0.00    +0.041 A 
ATOM     20  C   LIG    1      -26.292  70.832  16.867  0.00  0.00    +0.052 A 
ATOM     21 CL   LIG    1      -26.050  69.330  17.693  0.00  0.00    -0.083 Cl
ATOM     22  C   LIG    1      -27.543  71.319  16.446  0.00  0.00    +0.022 A 
ATOM     23  C   LIG    1      -27.513  72.421  15.543  0.00  0.00    +0.026 A 
BRANCH  22  24
ATOM     24  C   LIG    1      -28.855  70.752  16.855  0.00  0.00    +0.107 A 
ATOM     25  C   LIG    1      -29.696  71.317  17.818  0.00  0.00    +0.149 A 
ATOM     26  F   LIG    1      -29.433  72.502  18.384  0.00  0.00    -0.203 F 
ATOM     27  C   LIG    1      -30.882  70.683  18.173  0.00  0.00    +0.042 A 
ATOM     28  C   LIG    1      -31.263  69.536  17.498  0.00  0.00    +0.023 A 
ATOM     29  C   LIG    1      -30.428  69.067  16.497  0.00  0.00    +0.111 A 
ATOM     30  N   LIG    1      -29.237  69.633  16.174  0.00  0.00    -0.252 NA
ENDBRANCH  22  24
ENDBRANCH  14  16
ENDBRANCH   4  12
BRANCH   1  32
ATOM     31  N   LIG    1      -30.495  78.995  11.645  0.00  0.00    -0.233 NA
ATOM     32  C   LIG    1      -29.422  78.387  11.265  0.00  0.00    +0.237 C 
BRANCH  31  33
ATOM     33  C   LIG    1      -31.507  79.425  10.711  0.00  0.00    +0.140 C 
ATOM     34  C   LIG    1      -32.309  80.647  11.135  0.00  0.00    +0.043 C 
ATOM     35  C   LIG    1      -31.240  80.786  10.102  0.00  0.00    +0.043 C 
BRANCH  33  38
ATOM     36  C   LIG    1      -33.916  76.773   9.603  0.00  0.00    +0.174 C 
ATOM     37  N   LIG    1      -33.164  77.720  10.405  0.00  0.00    -0.256 NA
ATOM     38  C   LIG    1      -32.215  78.400   9.872  0.00  0.00    +0.211 C 
BRANCH  38  39
ATOM     39  O   LIG    1      -31.815  78.343   8.589  0.00  0.00    -0.494 OA
ATOM     40  H   LIG    1      -31.487  77.467   8.352  0.00  0.00    +0.293 HD
ENDBRANCH  38  39
ENDBRANCH  33  38
ENDBRANCH  31  33
BRANCH  32  41
ATOM     41  O   LIG    1      -29.001  78.235   9.989  0.00  0.00    -0.491 OA
ATOM     42  H   LIG    1      -28.032  78.323   9.911  0.00  0.00    +0.294 HD
ENDBRANCH  32  41
ENDBRANCH   1  32
TORSDOF 9
ENDMDL
MODEL 6
REMARK VINA RESULT:      -6.2      3.775      6.758
REMARK  Name = pdb/CHEMBL3970377.pdb
REMARK                            x       y       z     vdW  Elec       q    Type
REMARK                         _______ _______ _______ _____ _____    ______ ____
ROOT
ATOM      1  C   LIG    1      -37.417  76.200  26.046  0.00  0.00    +0.149 A 
ATOM      2  N   LIG    1      -37.791  74.916  25.938  0.00  0.00    -0.160 NA
ATOM      3  N   LIG    1      -38.771  74.911  25.004  0.00  0.00    -0.218 N 
ATOM      4  C   LIG    1      -39.152  76.212  24.658  0.00  0.00    +0.129 A 
ATOM      5  C   LIG    1      -38.249  77.039  25.269  0.00  0.00    +0.078 A 
ENDROOT
BRANCH   3   6
ATOM      6  C   LIG    1      -39.286  73.674  24.527  0.00  0.00    +0.067 A 
ATOM      7  C   LIG    1      -38.517  72.508  24.657  0.00  0.00    +0.028 A 
ATOM      8  C   LIG    1      -38.994  71.293  24.154  0.00  0.00    +0.002 A 
ATOM      9  C   LIG    1      -40.235  71.235  23.523  0.00  0.00    +0.000 A 
ATOM     10  C   LIG    1      -41.005  72.388  23.398  0.00  0.00    +0.002 A 
ATOM     11  C   LIG    1      -40.526  73.608  23.883  0.00  0.00    +0.028 A 
ENDBRANCH   3   6
BRANCH   4  12
ATOM     12  N   LIG    1      -40.274  76.593  23.925  0.00  0.00    -0.266 N 
ATOM     13  H   LIG    1      -40.173  76.572  22.919  0.00  0.00    +0.157 HD
ATOM     14  C   LIG    1      -41.563  76.910  24.484  0.00  0.00    +0.251 C 
ATOM     15  O   LIG    1      -41.754  76.883  25.680  0.00  0.00    -0.270 OA
BRANCH  14  16
ATOM     16  C   LIG    1      -42.654  77.280  23.513  0.00  0.00    +0.056 A 
ATOM     17  C   LIG    1      -43.179  78.553  23.353  0.00  0.00    +0.054 A 
ATOM     18 CL   LIG    1      -42.572  79.992  24.077  0.00  0.00    -0.083 Cl
ATOM     19  C   LIG    1      -44.290  78.750  22.541  0.00  0.00    +0.041 A 
ATOM     20  C   LIG    1      -44.880  77.690  21.852  0.00  0.00    +0.052 A 
ATOM     21 CL   LIG    1      -46.397  78.083  21.118  0.00  0.00    -0.083 Cl
ATOM     22  C   LIG    1      -44.310  76.403  21.869  0.00  0.00    +0.022 A 
ATOM     23  C   LIG    1      -43.209  76.219  22.754  0.00  0.00    +0.026 A 
BRANCH  22  24
ATOM     24  C   LIG    1      -44.792  75.252  21.061  0.00  0.00    +0.107 A 
ATOM     25  C   LIG    1      -44.777  75.205  19.663  0.00  0.00    +0.149 A 
ATOM     26  F   LIG    1      -44.213  76.170  18.926  0.00  0.00    -0.203 F 
ATOM     27  C   LIG    1      -45.300  74.105  18.993  0.00  0.00    +0.042 A 
ATOM     28  C   LIG    1      -45.751  73.020  19.725  0.00  0.00    +0.023 A 
ATOM     29  C   LIG    1      -45.666  73.090  21.105  0.00  0.00    +0.111 A 
ATOM     30  N   LIG    1      -45.217  74.176  21.784  0.00  0.00    -0.252 NA
ENDBRANCH  22  24
ENDBRANCH  14  16
ENDBRANCH   4  12
BRANCH   1  32
ATOM     31  N   LIG    1      -36.341  77.822  27.450  0.00  0.00    -0.233 NA
ATOM     32  C   LIG    1      -36.322  76.657  26.891  0.00  0.00    +0.237 C 
BRANCH  31  33
ATOM     33  C   LIG    1      -35.194  78.361  28.140  0.00  0.00    +0.140 C 
ATOM     34  C   LIG    1      -35.510  79.327  29.271  0.00  0.00    +0.043 C 
ATOM     35  C   LIG    1      -35.092  77.929  29.588  0.00  0.00    +0.043 C 
BRANCH  33  38
ATOM     36  C   LIG    1      -31.904  77.783  26.435  0.00  0.00    +0.174 C 
ATOM     37  N   LIG    1      -33.108  77.613  27.227  0.00  0.00    -0.256 NA
ATOM     38  C   LIG    1      -33.921  78.593  27.378  0.00  0.00    +0.211 C 
BRANCH  38  39
ATOM     39  O   LIG    1      -33.788  79.827  26.858  0.00  0.00    -0.494 OA
ATOM     40  H   LIG    1      -33.179  80.372  27.372  0.00  0.00    +0.293 HD
ENDBRANCH  38  39
ENDBRANCH  33  38
ENDBRANCH  31  33
BRANCH  32  41
ATOM     41  O   LIG    1      -35.349  75.727  27.020  0.00  0.00    -0.491 OA
ATOM     42  H   LIG    1      -34.591  75.907  26.432  0.00  0.00    +0.294 HD
ENDBRANCH  32  41
ENDBRANCH   1  32
TORSDOF 9
ENDMDL
MODEL 7
REMARK VINA RESULT:      -6.2      3.541      9.178
REMARK  Name = pdb/CHEMBL3970377.pdb
REMARK                            x       y       z     vdW  Elec       q    Type
REMARK                         _______ _______ _______ _____ _____    ______ ____
ROOT
ATOM      1  C   LIG    1      -38.847  71.945  24.253  0.00  0.00    +0.149 A 
ATOM      2  N   LIG    1      -39.864  72.792  24.030  0.00  0.00    -0.160 NA
ATOM      3  N   LIG    1      -39.387  74.013  24.367  0.00  0.00    -0.218 N 
ATOM      4  C   LIG    1      -38.134  73.919  24.983  0.00  0.00    +0.129 A 
ATOM      5  C   LIG    1      -37.754  72.611  24.855  0.00  0.00    +0.078 A 
ENDROOT
BRANCH   3   6
ATOM      6  C   LIG    1      -40.164  75.173  24.098  0.00  0.00    +0.067 A 
ATOM      7  C   LIG    1      -41.535  75.043  23.832  0.00  0.00    +0.028 A 
ATOM      8  C   LIG    1      -42.301  76.172  23.525  0.00  0.00    +0.002 A 
ATOM      9  C   LIG    1      -41.706  77.432  23.484  0.00  0.00    +0.000 A 
ATOM     10  C   LIG    1      -40.348  77.568  23.755  0.00  0.00    +0.002 A 
ATOM     11  C   LIG    1      -39.574  76.441  24.045  0.00  0.00    +0.028 A 
ENDBRANCH   3   6
BRANCH   4  12
ATOM     12  N   LIG    1      -37.457  74.924  25.672  0.00  0.00    -0.266 N 
ATOM     13  H   LIG    1      -36.754  75.422  25.145  0.00  0.00    +0.157 HD
ATOM     14  C   LIG    1      -37.754  75.356  27.013  0.00  0.00    +0.251 C 
ATOM     15  O   LIG    1      -38.634  74.836  27.662  0.00  0.00    -0.270 OA
BRANCH  14  16
ATOM     16  C   LIG    1      -36.914  76.477  27.568  0.00  0.00    +0.056 A 
ATOM     17  C   LIG    1      -37.236  77.824  27.496  0.00  0.00    +0.054 A 
ATOM     18 CL   LIG    1      -38.730  78.475  26.941  0.00  0.00    -0.083 Cl
ATOM     19  C   LIG    1      -36.314  78.783  27.902  0.00  0.00    +0.041 A 
ATOM     20  C   LIG    1      -35.068  78.417  28.413  0.00  0.00    +0.052 A 
ATOM     21 CL   LIG    1      -33.970  79.740  28.607  0.00  0.00    -0.083 Cl
ATOM     22  C   LIG    1      -34.740  77.067  28.636  0.00  0.00    +0.022 A 
ATOM     23  C   LIG    1      -35.678  76.107  28.156  0.00  0.00    +0.026 A 
BRANCH  22  24
ATOM     24  C   LIG    1      -33.495  76.596  29.298  0.00  0.00    +0.107 A 
ATOM     25  C   LIG    1      -32.243  76.531  28.677  0.00  0.00    +0.149 A 
ATOM     26  F   LIG    1      -32.039  77.003  27.441  0.00  0.00    -0.203 F 
ATOM     27  C   LIG    1      -31.146  76.026  29.363  0.00  0.00    +0.042 A 
ATOM     28  C   LIG    1      -31.285  75.672  30.695  0.00  0.00    +0.023 A 
ATOM     29  C   LIG    1      -32.529  75.834  31.280  0.00  0.00    +0.111 A 
ATOM     30  N   LIG    1      -33.630  76.268  30.615  0.00  0.00    -0.252 NA
ENDBRANCH  22  24
ENDBRANCH  14  16
ENDBRANCH   4  12
BRANCH   1  32
ATOM     31  N   LIG    1      -37.967  69.948  23.255  0.00  0.00    -0.233 NA
ATOM     32  C   LIG    1      -38.895  70.521  23.947  0.00  0.00    +0.237 C 
BRANCH  31  33
ATOM     33  C   LIG    1      -38.085  68.586  22.792  0.00  0.00    +0.140 C 
ATOM     34  C   LIG    1      -36.769  67.845  22.609  0.00  0.00    +0.043 C 
ATOM     35  C   LIG    1      -37.622  67.555  23.800  0.00  0.00    +0.043 C 
BRANCH  33  38
ATOM     36  C   LIG    1      -41.291  67.159  21.472  0.00  0.00    +0.174 C 
ATOM     37  N   LIG    1      -40.153  67.473  22.314  0.00  0.00    -0.256 NA
ATOM     38  C   LIG    1      -39.210  68.220  21.868  0.00  0.00    +0.211 C 
BRANCH  38  39
ATOM     39  O   LIG    1      -39.148  68.782  20.647  0.00  0.00    -0.494 OA
ATOM     40  H   LIG    1      -39.663  68.289  19.996  0.00  0.00    +0.293 HD
ENDBRANCH  38  39
ENDBRANCH  33  38
ENDBRANCH  31  33
BRANCH  32  41
ATOM     41  O   LIG    1      -39.978  69.916  24.485  0.00  0.00    -0.491 OA
ATOM     42  H   LIG    1      -40.720  70.538  24.609  0.00  0.00    +0.294 HD
ENDBRANCH  32  41
ENDBRANCH   1  32
TORSDOF 9
ENDMDL
MODEL 8
REMARK VINA RESULT:      -6.1     15.392     17.365
REMARK  Name = pdb/CHEMBL3970377.pdb
REMARK                            x       y       z     vdW  Elec       q    Type
REMARK                         _______ _______ _______ _____ _____    ______ ____
ROOT
ATOM      1  C   LIG    1      -28.533  77.826  12.147  0.00  0.00    +0.149 A 
ATOM      2  N   LIG    1      -27.581  78.523  12.786  0.00  0.00    -0.160 NA
ATOM      3  N   LIG    1      -26.872  77.600  13.477  0.00  0.00    -0.218 N 
ATOM      4  C   LIG    1      -27.486  76.344  13.430  0.00  0.00    +0.129 A 
ATOM      5  C   LIG    1      -28.511  76.464  12.530  0.00  0.00    +0.078 A 
ENDROOT
BRANCH   3   6
ATOM      6  C   LIG    1      -25.677  77.984  14.145  0.00  0.00    +0.067 A 
ATOM      7  C   LIG    1      -25.730  78.954  15.157  0.00  0.00    +0.028 A 
ATOM      8  C   LIG    1      -24.556  79.370  15.793  0.00  0.00    +0.002 A 
ATOM      9  C   LIG    1      -23.328  78.822  15.426  0.00  0.00    +0.000 A 
ATOM     10  C   LIG    1      -23.271  77.853  14.428  0.00  0.00    +0.002 A 
ATOM     11  C   LIG    1      -24.439  77.447  13.777  0.00  0.00    +0.028 A 
ENDBRANCH   3   6
BRANCH   4  12
ATOM     12  N   LIG    1      -27.183  75.229  14.209  0.00  0.00    -0.266 N 
ATOM     13  H   LIG    1      -27.717  75.129  15.062  0.00  0.00    +0.157 HD
ATOM     14  C   LIG    1      -26.258  74.188  13.844  0.00  0.00    +0.251 C 
ATOM     15  O   LIG    1      -25.644  74.228  12.800  0.00  0.00    -0.270 OA
BRANCH  14  16
ATOM     16  C   LIG    1      -26.088  73.055  14.822  0.00  0.00    +0.056 A 
ATOM     17  C   LIG    1      -27.062  72.116  15.130  0.00  0.00    +0.054 A 
ATOM     18 CL   LIG    1      -28.576  71.935  14.331  0.00  0.00    -0.083 Cl
ATOM     19  C   LIG    1      -26.852  71.208  16.161  0.00  0.00    +0.041 A 
ATOM     20  C   LIG    1      -25.658  71.199  16.885  0.00  0.00    +0.052 A 
ATOM     21 CL   LIG    1      -25.692  70.188  18.289  0.00  0.00    -0.083 Cl
ATOM     22  C   LIG    1      -24.584  72.036  16.528  0.00  0.00    +0.022 A 
ATOM     23  C   LIG    1      -24.849  72.994  15.508  0.00  0.00    +0.026 A 
BRANCH  22  24
ATOM     24  C   LIG    1      -23.236  71.997  17.155  0.00  0.00    +0.107 A 
ATOM     25  C   LIG    1      -22.665  73.054  17.870  0.00  0.00    +0.149 A 
ATOM     26  F   LIG    1      -23.346  74.172  18.149  0.00  0.00    -0.203 F 
ATOM     27  C   LIG    1      -21.375  72.943  18.375  0.00  0.00    +0.042 A 
ATOM     28  C   LIG    1      -20.697  71.743  18.239  0.00  0.00    +0.023 A 
ATOM     29  C   LIG    1      -21.344  70.704  17.592  0.00  0.00    +0.111 A 
ATOM     30  N   LIG    1      -22.579  70.807  17.038  0.00  0.00    -0.252 NA
ENDBRANCH  22  24
ENDBRANCH  14  16
ENDBRANCH   4  12
BRANCH   1  32
ATOM     31  N   LIG    1      -30.542  79.033  11.629  0.00  0.00    -0.233 NA
ATOM     32  C   LIG    1      -29.484  78.417  11.215  0.00  0.00    +0.237 C 
BRANCH  31  33
ATOM     33  C   LIG    1      -31.581  79.467  10.726  0.00  0.00    +0.140 C 
ATOM     34  C   LIG    1      -32.396  80.662  11.197  0.00  0.00    +0.043 C 
ATOM     35  C   LIG    1      -31.351  80.847  10.147  0.00  0.00    +0.043 C 
BRANCH  33  38
ATOM     36  C   LIG    1      -33.934  76.768   9.612  0.00  0.00    +0.174 C 
ATOM     37  N   LIG    1      -33.183  77.711  10.420  0.00  0.00    -0.256 NA
ATOM     38  C   LIG    1      -32.286  78.450   9.876  0.00  0.00    +0.211 C 
BRANCH  38  39
ATOM     39  O   LIG    1      -31.944  78.462   8.575  0.00  0.00    -0.494 OA
ATOM     40  H   LIG    1      -31.677  79.342   8.280  0.00  0.00    +0.293 HD
ENDBRANCH  38  39
ENDBRANCH  33  38
ENDBRANCH  31  33
BRANCH  32  41
ATOM     41  O   LIG    1      -29.106  78.261   9.926  0.00  0.00    -0.491 OA
ATOM     42  H   LIG    1      -29.672  77.620   9.455  0.00  0.00    +0.294 HD
ENDBRANCH  32  41
ENDBRANCH   1  32
TORSDOF 9
ENDMDL
MODEL 9
REMARK VINA RESULT:      -6.1     16.740     20.350
REMARK  Name = pdb/CHEMBL3970377.pdb
REMARK                            x       y       z     vdW  Elec       q    Type
REMARK                         _______ _______ _______ _____ _____    ______ ____
ROOT
ATOM      1  C   LIG    1      -24.914  82.964  37.365  0.00  0.00    +0.149 A 
ATOM      2  N   LIG    1      -23.966  83.243  38.272  0.00  0.00    -0.160 NA
ATOM      3  N   LIG    1      -22.874  82.556  37.864  0.00  0.00    -0.218 N 
ATOM      4  C   LIG    1      -23.181  81.691  36.808  0.00  0.00    +0.129 A 
ATOM      5  C   LIG    1      -24.464  81.993  36.440  0.00  0.00    +0.078 A 
ENDROOT
BRANCH   3   6
ATOM      6  C   LIG    1      -21.628  82.756  38.520  0.00  0.00    +0.067 A 
ATOM      7  C   LIG    1      -20.685  83.631  37.962  0.00  0.00    +0.028 A 
ATOM      8  C   LIG    1      -19.440  83.805  38.575  0.00  0.00    +0.002 A 
ATOM      9  C   LIG    1      -19.131  83.110  39.743  0.00  0.00    +0.000 A 
ATOM     10  C   LIG    1      -20.066  82.245  40.305  0.00  0.00    +0.002 A 
ATOM     11  C   LIG    1      -21.305  82.055  39.687  0.00  0.00    +0.028 A 
ENDBRANCH   3   6
BRANCH   4  12
ATOM     12  N   LIG    1      -22.383  80.667  36.300  0.00  0.00    -0.266 N 
ATOM     13  H   LIG    1      -22.677  79.726  36.523  0.00  0.00    +0.157 HD
ATOM     14  C   LIG    1      -21.258  80.850  35.420  0.00  0.00    +0.251 C 
ATOM     15  O   LIG    1      -20.907  81.955  35.067  0.00  0.00    -0.270 OA
BRANCH  14  16
ATOM     16  C   LIG    1      -20.539  79.606  34.966  0.00  0.00    +0.056 A 
ATOM     17  C   LIG    1      -19.354  79.130  35.505  0.00  0.00    +0.054 A 
ATOM     18 CL   LIG    1      -18.569  79.740  36.912  0.00  0.00    -0.083 Cl
ATOM     19  C   LIG    1      -18.697  78.061  34.907  0.00  0.00    +0.041 A 
ATOM     20  C   LIG    1      -19.222  77.429  33.779  0.00  0.00    +0.052 A 
ATOM     21 CL   LIG    1      -18.137  76.309  33.029  0.00  0.00    -0.083 Cl
ATOM     22  C   LIG    1      -20.487  77.780  33.271  0.00  0.00    +0.022 A 
ATOM     23  C   LIG    1      -21.108  78.915  33.867  0.00  0.00    +0.026 A 
BRANCH  22  24
ATOM     24  C   LIG    1      -21.180  77.073  32.161  0.00  0.00    +0.107 A 
ATOM     25  C   LIG    1      -21.100  77.442  30.815  0.00  0.00    +0.149 A 
ATOM     26  F   LIG    1      -20.286  78.418  30.393  0.00  0.00    -0.203 F 
ATOM     27  C   LIG    1      -21.828  76.750  29.854  0.00  0.00    +0.042 A 
ATOM     28  C   LIG    1      -22.560  75.637  30.232  0.00  0.00    +0.023 A 
ATOM     29  C   LIG    1      -22.536  75.270  31.567  0.00  0.00    +0.111 A 
ATOM     30  N   LIG    1      -21.883  75.965  32.533  0.00  0.00    -0.252 NA
ENDBRANCH  22  24
ENDBRANCH  14  16
ENDBRANCH   4  12
BRANCH   1  32
ATOM     31  N   LIG    1      -27.258  82.956  36.849  0.00  0.00    -0.233 NA
ATOM     32  C   LIG    1      -26.243  83.562  37.369  0.00  0.00    +0.237 C 
BRANCH  31  33
ATOM     33  C   LIG    1      -28.538  83.603  36.685  0.00  0.00    +0.140 C 
ATOM     34  C   LIG    1      -29.746  82.680  36.739  0.00  0.00    +0.043 C 
ATOM     35  C   LIG    1      -29.418  83.538  37.916  0.00  0.00    +0.043 C 
BRANCH  33  38
ATOM     36  C   LIG    1      -28.796  87.161  35.532  0.00  0.00    +0.174 C 
ATOM     37  N   LIG    1      -28.766  85.965  36.352  0.00  0.00    -0.256 NA
ATOM     38  C   LIG    1      -28.641  84.813  35.802  0.00  0.00    +0.211 C 
BRANCH  38  39
ATOM     39  O   LIG    1      -28.522  84.566  34.485  0.00  0.00    -0.494 OA
ATOM     40  H   LIG    1      -28.392  85.376  33.977  0.00  0.00    +0.293 HD
ENDBRANCH  38  39
ENDBRANCH  33  38
ENDBRANCH  31  33
BRANCH  32  41
ATOM     41  O   LIG    1      -26.264  84.764  37.988  0.00  0.00    -0.491 OA
ATOM     42  H   LIG    1      -25.423  84.952  38.447  0.00  0.00    +0.294 HD
ENDBRANCH  32  41
ENDBRANCH   1  32
TORSDOF 9
ENDMDL
