MODEL 1
REMARK VINA RESULT:      -6.0      0.000      0.000
REMARK  Name = pdb/CHEMBL3960311.pdb
REMARK                            x       y       z     vdW  Elec       q    Type
REMARK                         _______ _______ _______ _____ _____    ______ ____
ROOT
ATOM      1  C   LIG    1      -20.809  76.950  30.514  0.00  0.00    +0.042 A 
ATOM      2  C   LIG    1      -20.764  77.783  31.644  0.00  0.00    +0.042 A 
ATOM      3  C   LIG    1      -19.535  78.148  32.206  0.00  0.00    +0.086 A 
ATOM      4  C   LIG    1      -18.402  77.534  31.670  0.00  0.00    +0.138 A 
ATOM      5  N   LIG    1      -18.386  76.767  30.565  0.00  0.00    -0.260 NA
ATOM      6  C   LIG    1      -19.585  76.550  29.989  0.00  0.00    +0.122 A 
ENDROOT
BRANCH   1   7
ATOM      7  C   LIG    1      -22.128  76.592  29.903  0.00  0.00    +0.197 C 
ATOM      8  O   LIG    1      -22.334  76.923  28.737  0.00  0.00    -0.287 OA
BRANCH   7  16
ATOM      9  N   LIG    1      -24.197  74.104  31.670  0.00  0.00    -0.338 N 
ATOM     10  C   LIG    1      -25.106  75.151  31.604  0.00  0.00    +0.053 A 
ATOM     11  C   LIG    1      -26.448  75.299  31.981  0.00  0.00    +0.046 A 
ATOM     12  C   LIG    1      -27.033  76.539  31.803  0.00  0.00    +0.113 A 
ATOM     13  N   LIG    1      -26.406  77.609  31.295  0.00  0.00    -0.263 NA
ATOM     14  C   LIG    1      -25.121  77.471  30.895  0.00  0.00    +0.121 A 
ATOM     15  C   LIG    1      -24.440  76.248  31.023  0.00  0.00    +0.029 A 
ATOM     16  C   LIG    1      -23.125  75.821  30.651  0.00  0.00    +0.049 A 
ATOM     17  C   LIG    1      -22.977  74.573  31.218  0.00  0.00    +0.099 A 
BRANCH   9  19
ATOM     18  C   LIG    1      -22.947  72.035  32.131  0.00  0.00    +0.036 C 
ATOM     19  C   LIG    1      -24.330  72.727  32.222  0.00  0.00    +0.063 C 
ATOM     20  C   LIG    1      -25.342  71.890  31.393  0.00  0.00    +0.036 C 
BRANCH  19  21
ATOM     21  C   LIG    1      -24.808  72.670  33.694  0.00  0.00    +0.183 C 
BRANCH  21  22
ATOM     22  O   LIG    1      -23.983  73.464  34.546  0.00  0.00    -0.393 OA
ATOM     23  H   LIG    1      -23.435  72.862  35.078  0.00  0.00    +0.209 HD
ENDBRANCH  21  22
ENDBRANCH  19  21
ENDBRANCH   9  19
ENDBRANCH   7  16
ENDBRANCH   1   7
BRANCH   3  24
ATOM     24  N   LIG    1      -19.497  79.084  33.257  0.00  0.00    -0.216 NA
ATOM     25  C   LIG    1      -19.631  78.707  34.491  0.00  0.00    +0.192 C 
BRANCH  25  26
ATOM     26  O   LIG    1      -19.773  77.408  34.846  0.00  0.00    -0.495 OA
ATOM     27  H   LIG    1      -19.792  77.251  35.803  0.00  0.00    +0.293 HD
ENDBRANCH  25  26
BRANCH  25  28
ATOM     28  C   LIG    1      -19.576  79.643  35.677  0.00  0.00    +0.130 C 
BRANCH  28  29
ATOM     29  C   LIG    1      -20.802  80.501  35.865  0.00  0.00    -0.038 A 
ATOM     30  C   LIG    1      -20.720  81.711  36.566  0.00  0.00    +0.005 A 
ATOM     31  C   LIG    1      -21.861  82.494  36.763  0.00  0.00    +0.019 A 
ATOM     32  C   LIG    1      -23.098  82.067  36.270  0.00  0.00    +0.052 A 
ATOM     33  C   LIG    1      -23.186  80.867  35.564  0.00  0.00    +0.019 A 
ATOM     34  C   LIG    1      -22.041  80.101  35.343  0.00  0.00    +0.005 A 
BRANCH  32  35
ATOM     35  C   LIG    1      -24.278  82.862  36.479  0.00  0.00    +0.099 C 
ATOM     36  N   LIG    1      -25.226  83.498  36.639  0.00  0.00    -0.191 NA
ENDBRANCH  32  35
ENDBRANCH  28  29
ENDBRANCH  25  28
ENDBRANCH   3  24
TORSDOF 10
ENDMDL
MODEL 2
REMARK VINA RESULT:      -5.9     16.197     20.166
REMARK  Name = pdb/CHEMBL3960311.pdb
REMARK                            x       y       z     vdW  Elec       q    Type
REMARK                         _______ _______ _______ _____ _____    ______ ____
ROOT
ATOM      1  C   LIG    1      -23.594  80.981  15.324  0.00  0.00    +0.042 A 
ATOM      2  C   LIG    1      -23.614  79.608  15.621  0.00  0.00    +0.042 A 
ATOM      3  C   LIG    1      -24.511  78.756  14.966  0.00  0.00    +0.086 A 
ATOM      4  C   LIG    1      -25.448  79.367  14.131  0.00  0.00    +0.138 A 
ATOM      5  N   LIG    1      -25.443  80.666  13.780  0.00  0.00    -0.260 NA
ATOM      6  C   LIG    1      -24.477  81.417  14.343  0.00  0.00    +0.122 A 
ENDROOT
BRANCH   1   7
ATOM      7  C   LIG    1      -22.607  81.878  16.006  0.00  0.00    +0.197 C 
ATOM      8  O   LIG    1      -22.460  81.759  17.221  0.00  0.00    -0.287 OA
BRANCH   7  16
ATOM      9  N   LIG    1      -21.164  84.671  14.080  0.00  0.00    -0.338 N 
ATOM     10  C   LIG    1      -20.156  83.732  13.910  0.00  0.00    +0.053 A 
ATOM     11  C   LIG    1      -18.958  83.712  13.181  0.00  0.00    +0.046 A 
ATOM     12  C   LIG    1      -18.158  82.590  13.291  0.00  0.00    +0.113 A 
ATOM     13  N   LIG    1      -18.447  81.521  14.045  0.00  0.00    -0.263 NA
ATOM     14  C   LIG    1      -19.616  81.512  14.727  0.00  0.00    +0.121 A 
ATOM     15  C   LIG    1      -20.505  82.600  14.672  0.00  0.00    +0.029 A 
ATOM     16  C   LIG    1      -21.797  82.832  15.243  0.00  0.00    +0.049 A 
ATOM     17  C   LIG    1      -22.069  84.161  14.993  0.00  0.00    +0.099 A 
BRANCH   9  19
ATOM     18  C   LIG    1      -22.560  86.694  14.207  0.00  0.00    +0.036 C 
ATOM     19  C   LIG    1      -21.308  86.057  13.554  0.00  0.00    +0.063 C 
ATOM     20  C   LIG    1      -21.520  86.049  12.016  0.00  0.00    +0.036 C 
BRANCH  19  21
ATOM     21  C   LIG    1      -20.093  86.976  13.829  0.00  0.00    +0.183 C 
BRANCH  21  22
ATOM     22  O   LIG    1      -20.034  87.375  15.198  0.00  0.00    -0.393 OA
ATOM     23  H   LIG    1      -20.929  87.303  15.569  0.00  0.00    +0.209 HD
ENDBRANCH  21  22
ENDBRANCH  19  21
ENDBRANCH   9  19
ENDBRANCH   7  16
ENDBRANCH   1   7
BRANCH   3  24
ATOM     24  N   LIG    1      -24.437  77.366  15.177  0.00  0.00    -0.216 NA
ATOM     25  C   LIG    1      -23.828  76.594  14.331  0.00  0.00    +0.192 C 
BRANCH  25  26
ATOM     26  O   LIG    1      -23.200  77.069  13.230  0.00  0.00    -0.495 OA
ATOM     27  H   LIG    1      -22.233  77.099  13.298  0.00  0.00    +0.293 HD
ENDBRANCH  25  26
BRANCH  25  28
ATOM     28  C   LIG    1      -23.681  75.098  14.499  0.00  0.00    +0.130 C 
BRANCH  28  29
ATOM     29  C   LIG    1      -22.601  74.672  15.461  0.00  0.00    -0.038 A 
ATOM     30  C   LIG    1      -22.911  73.864  16.563  0.00  0.00    +0.005 A 
ATOM     31  C   LIG    1      -21.915  73.490  17.469  0.00  0.00    +0.019 A 
ATOM     32  C   LIG    1      -20.601  73.931  17.289  0.00  0.00    +0.052 A 
ATOM     33  C   LIG    1      -20.283  74.729  16.189  0.00  0.00    +0.019 A 
ATOM     34  C   LIG    1      -21.272  75.077  15.269  0.00  0.00    +0.005 A 
BRANCH  32  35
ATOM     35  C   LIG    1      -19.574  73.559  18.224  0.00  0.00    +0.099 C 
ATOM     36  N   LIG    1      -18.754  73.254  18.974  0.00  0.00    -0.191 NA
ENDBRANCH  32  35
ENDBRANCH  28  29
ENDBRANCH  25  28
ENDBRANCH   3  24
TORSDOF 10
ENDMDL
MODEL 3
REMARK VINA RESULT:      -5.8     12.679     17.781
REMARK  Name = pdb/CHEMBL3960311.pdb
REMARK                            x       y       z     vdW  Elec       q    Type
REMARK                         _______ _______ _______ _____ _____    ______ ____
ROOT
ATOM      1  C   LIG    1      -37.663  82.295  26.703  0.00  0.00    +0.042 A 
ATOM      2  C   LIG    1      -38.278  81.090  26.326  0.00  0.00    +0.042 A 
ATOM      3  C   LIG    1      -39.425  81.103  25.523  0.00  0.00    +0.086 A 
ATOM      4  C   LIG    1      -39.978  82.355  25.252  0.00  0.00    +0.138 A 
ATOM      5  N   LIG    1      -39.406  83.535  25.551  0.00  0.00    -0.260 NA
ATOM      6  C   LIG    1      -38.236  83.464  26.215  0.00  0.00    +0.122 A 
ENDROOT
BRANCH   1   7
ATOM      7  C   LIG    1      -36.418  82.269  27.535  0.00  0.00    +0.197 C 
ATOM      8  O   LIG    1      -35.912  83.342  27.854  0.00  0.00    -0.287 OA
BRANCH   7  16
ATOM      9  N   LIG    1      -34.562  79.141  28.144  0.00  0.00    -0.338 N 
ATOM     10  C   LIG    1      -35.593  78.977  29.060  0.00  0.00    +0.053 A 
ATOM     11  C   LIG    1      -35.962  77.945  29.934  0.00  0.00    +0.046 A 
ATOM     12  C   LIG    1      -37.052  78.158  30.756  0.00  0.00    +0.113 A 
ATOM     13  N   LIG    1      -37.781  79.283  30.776  0.00  0.00    -0.263 NA
ATOM     14  C   LIG    1      -37.457  80.274  29.913  0.00  0.00    +0.121 A 
ATOM     15  C   LIG    1      -36.372  80.150  29.027  0.00  0.00    +0.029 A 
ATOM     16  C   LIG    1      -35.847  81.002  28.004  0.00  0.00    +0.049 A 
ATOM     17  C   LIG    1      -34.658  80.419  27.623  0.00  0.00    +0.099 A 
BRANCH   9  19
ATOM     18  C   LIG    1      -33.972  77.079  26.938  0.00  0.00    +0.036 C 
ATOM     19  C   LIG    1      -33.422  78.253  27.786  0.00  0.00    +0.063 C 
ATOM     20  C   LIG    1      -32.759  77.659  29.057  0.00  0.00    +0.036 C 
BRANCH  19  21
ATOM     21  C   LIG    1      -32.296  78.949  26.982  0.00  0.00    +0.183 C 
BRANCH  21  22
ATOM     22  O   LIG    1      -32.368  78.633  25.592  0.00  0.00    -0.393 OA
ATOM     23  H   LIG    1      -32.999  77.901  25.485  0.00  0.00    +0.209 HD
ENDBRANCH  21  22
ENDBRANCH  19  21
ENDBRANCH   9  19
ENDBRANCH   7  16
ENDBRANCH   1   7
BRANCH   3  24
ATOM     24  N   LIG    1      -39.958  79.889  25.046  0.00  0.00    -0.216 NA
ATOM     25  C   LIG    1      -39.734  79.494  23.831  0.00  0.00    +0.192 C 
BRANCH  25  26
ATOM     26  O   LIG    1      -38.954  80.188  22.969  0.00  0.00    -0.495 OA
ATOM     27  H   LIG    1      -39.358  80.355  22.104  0.00  0.00    +0.293 HD
ENDBRANCH  25  26
BRANCH  25  28
ATOM     28  C   LIG    1      -40.247  78.195  23.252  0.00  0.00    +0.130 C 
BRANCH  28  29
ATOM     29  C   LIG    1      -39.627  76.952  23.839  0.00  0.00    -0.038 A 
ATOM     30  C   LIG    1      -40.389  75.787  23.998  0.00  0.00    +0.005 A 
ATOM     31  C   LIG    1      -39.823  74.642  24.566  0.00  0.00    +0.019 A 
ATOM     32  C   LIG    1      -38.492  74.656  24.993  0.00  0.00    +0.052 A 
ATOM     33  C   LIG    1      -37.725  75.810  24.831  0.00  0.00    +0.019 A 
ATOM     34  C   LIG    1      -38.282  76.942  24.237  0.00  0.00    +0.005 A 
BRANCH  32  35
ATOM     35  C   LIG    1      -37.907  73.485  25.589  0.00  0.00    +0.099 C 
ATOM     36  N   LIG    1      -37.445  72.545  26.070  0.00  0.00    -0.191 NA
ENDBRANCH  32  35
ENDBRANCH  28  29
ENDBRANCH  25  28
ENDBRANCH   3  24
TORSDOF 10
ENDMDL
MODEL 4
REMARK VINA RESULT:      -5.8     11.111     16.298
REMARK  Name = pdb/CHEMBL3960311.pdb
REMARK                            x       y       z     vdW  Elec       q    Type
REMARK                         _______ _______ _______ _____ _____    ______ ____
ROOT
ATOM      1  C   LIG    1      -34.108  71.122  28.224  0.00  0.00    +0.042 A 
ATOM      2  C   LIG    1      -34.979  71.474  27.180  0.00  0.00    +0.042 A 
ATOM      3  C   LIG    1      -35.119  70.639  26.065  0.00  0.00    +0.086 A 
ATOM      4  C   LIG    1      -34.259  69.543  26.000  0.00  0.00    +0.138 A 
ATOM      5  N   LIG    1      -33.442  69.139  26.989  0.00  0.00    -0.260 NA
ATOM      6  C   LIG    1      -33.440  69.910  28.094  0.00  0.00    +0.122 A 
ENDROOT
BRANCH   1   7
ATOM      7  C   LIG    1      -33.990  72.006  29.427  0.00  0.00    +0.197 C 
ATOM      8  O   LIG    1      -34.203  71.512  30.532  0.00  0.00    -0.287 OA
BRANCH   7  16
ATOM      9  N   LIG    1      -33.451  75.559  28.600  0.00  0.00    -0.338 N 
ATOM     10  C   LIG    1      -32.334  75.338  29.394  0.00  0.00    +0.053 A 
ATOM     11  C   LIG    1      -31.232  76.122  29.763  0.00  0.00    +0.046 A 
ATOM     12  C   LIG    1      -30.312  75.569  30.634  0.00  0.00    +0.113 A 
ATOM     13  N   LIG    1      -30.400  74.335  31.150  0.00  0.00    -0.263 NA
ATOM     14  C   LIG    1      -31.441  73.555  30.775  0.00  0.00    +0.121 A 
ATOM     15  C   LIG    1      -32.424  74.020  29.884  0.00  0.00    +0.029 A 
ATOM     16  C   LIG    1      -33.578  73.407  29.300  0.00  0.00    +0.049 A 
ATOM     17  C   LIG    1      -34.251  74.432  28.670  0.00  0.00    +0.099 A 
BRANCH   9  19
ATOM     18  C   LIG    1      -35.204  76.418  27.100  0.00  0.00    +0.036 C 
ATOM     19  C   LIG    1      -33.903  76.772  27.863  0.00  0.00    +0.063 C 
ATOM     20  C   LIG    1      -32.841  77.219  26.822  0.00  0.00    +0.036 C 
BRANCH  19  21
ATOM     21  C   LIG    1      -34.185  78.000  28.764  0.00  0.00    +0.183 C 
BRANCH  21  22
ATOM     22  O   LIG    1      -33.146  78.973  28.667  0.00  0.00    -0.393 OA
ATOM     23  H   LIG    1      -33.502  79.745  28.195  0.00  0.00    +0.209 HD
ENDBRANCH  21  22
ENDBRANCH  19  21
ENDBRANCH   9  19
ENDBRANCH   7  16
ENDBRANCH   1   7
BRANCH   3  24
ATOM     24  N   LIG    1      -36.086  70.938  25.086  0.00  0.00    -0.216 NA
ATOM     25  C   LIG    1      -37.353  70.830  25.345  0.00  0.00    +0.192 C 
BRANCH  25  26
ATOM     26  O   LIG    1      -37.821  70.470  26.563  0.00  0.00    -0.495 OA
ATOM     27  H   LIG    1      -38.486  69.765  26.548  0.00  0.00    +0.293 HD
ENDBRANCH  25  26
BRANCH  25  28
ATOM     28  C   LIG    1      -38.452  71.156  24.359  0.00  0.00    +0.130 C 
BRANCH  28  29
ATOM     29  C   LIG    1      -38.915  72.591  24.378  0.00  0.00    -0.038 A 
ATOM     30  C   LIG    1      -38.096  73.593  24.914  0.00  0.00    +0.005 A 
ATOM     31  C   LIG    1      -38.535  74.919  24.956  0.00  0.00    +0.019 A 
ATOM     32  C   LIG    1      -39.803  75.254  24.472  0.00  0.00    +0.052 A 
ATOM     33  C   LIG    1      -40.621  74.263  23.929  0.00  0.00    +0.019 A 
ATOM     34  C   LIG    1      -40.170  72.945  23.862  0.00  0.00    +0.005 A 
BRANCH  32  35
ATOM     35  C   LIG    1      -40.265  76.615  24.523  0.00  0.00    +0.099 C 
ATOM     36  N   LIG    1      -40.630  77.707  24.569  0.00  0.00    -0.191 NA
ENDBRANCH  32  35
ENDBRANCH  28  29
ENDBRANCH  25  28
ENDBRANCH   3  24
TORSDOF 10
ENDMDL
MODEL 5
REMARK VINA RESULT:      -5.6     12.165     17.349
REMARK  Name = pdb/CHEMBL3960311.pdb
REMARK                            x       y       z     vdW  Elec       q    Type
REMARK                         _______ _______ _______ _____ _____    ______ ____
ROOT
ATOM      1  C   LIG    1      -37.400  79.725  28.704  0.00  0.00    +0.042 A 
ATOM      2  C   LIG    1      -37.824  78.973  27.596  0.00  0.00    +0.042 A 
ATOM      3  C   LIG    1      -38.799  79.480  26.729  0.00  0.00    +0.086 A 
ATOM      4  C   LIG    1      -39.401  80.681  27.108  0.00  0.00    +0.138 A 
ATOM      5  N   LIG    1      -39.002  81.459  28.130  0.00  0.00    -0.260 NA
ATOM      6  C   LIG    1      -37.973  80.982  28.858  0.00  0.00    +0.122 A 
ENDROOT
BRANCH   1   7
ATOM      7  C   LIG    1      -36.333  79.187  29.606  0.00  0.00    +0.197 C 
ATOM      8  O   LIG    1      -36.312  79.573  30.773  0.00  0.00    -0.287 OA
BRANCH   7  16
ATOM      9  N   LIG    1      -34.177  76.270  28.940  0.00  0.00    -0.338 N 
ATOM     10  C   LIG    1      -33.553  77.206  28.126  0.00  0.00    +0.053 A 
ATOM     11  C   LIG    1      -32.403  77.184  27.324  0.00  0.00    +0.046 A 
ATOM     12  C   LIG    1      -32.106  78.321  26.596  0.00  0.00    +0.113 A 
ATOM     13  N   LIG    1      -32.841  79.442  26.603  0.00  0.00    -0.263 NA
ATOM     14  C   LIG    1      -33.934  79.489  27.399  0.00  0.00    +0.121 A 
ATOM     15  C   LIG    1      -34.314  78.389  28.189  0.00  0.00    +0.029 A 
ATOM     16  C   LIG    1      -35.373  78.186  29.131  0.00  0.00    +0.049 A 
ATOM     17  C   LIG    1      -35.342  76.839  29.423  0.00  0.00    +0.099 A 
BRANCH   9  19
ATOM     18  C   LIG    1      -34.923  74.283  30.185  0.00  0.00    +0.036 C 
ATOM     19  C   LIG    1      -33.846  74.847  29.225  0.00  0.00    +0.063 C 
ATOM     20  C   LIG    1      -32.466  74.725  29.925  0.00  0.00    +0.036 C 
BRANCH  19  21
ATOM     21  C   LIG    1      -33.789  73.939  27.971  0.00  0.00    +0.183 C 
BRANCH  21  22
ATOM     22  O   LIG    1      -35.093  73.541  27.549  0.00  0.00    -0.393 OA
ATOM     23  H   LIG    1      -35.173  72.583  27.691  0.00  0.00    +0.209 HD
ENDBRANCH  21  22
ENDBRANCH  19  21
ENDBRANCH   9  19
ENDBRANCH   7  16
ENDBRANCH   1   7
BRANCH   3  24
ATOM     24  N   LIG    1      -39.124  78.775  25.554  0.00  0.00    -0.216 NA
ATOM     25  C   LIG    1      -40.011  77.828  25.568  0.00  0.00    +0.192 C 
BRANCH  25  26
ATOM     26  O   LIG    1      -40.700  77.489  26.682  0.00  0.00    -0.495 OA
ATOM     27  H   LIG    1      -41.617  77.802  26.701  0.00  0.00    +0.293 HD
ENDBRANCH  25  26
BRANCH  25  28
ATOM     28  C   LIG    1      -40.435  77.044  24.346  0.00  0.00    +0.130 C 
BRANCH  28  29
ATOM     29  C   LIG    1      -39.996  75.601  24.337  0.00  0.00    -0.038 A 
ATOM     30  C   LIG    1      -40.847  74.604  23.843  0.00  0.00    +0.005 A 
ATOM     31  C   LIG    1      -40.452  73.264  23.857  0.00  0.00    +0.019 A 
ATOM     32  C   LIG    1      -39.205  72.906  24.378  0.00  0.00    +0.052 A 
ATOM     33  C   LIG    1      -38.348  73.894  24.864  0.00  0.00    +0.019 A 
ATOM     34  C   LIG    1      -38.732  75.235  24.822  0.00  0.00    +0.005 A 
BRANCH  32  35
ATOM     35  C   LIG    1      -38.796  71.527  24.407  0.00  0.00    +0.099 C 
ATOM     36  N   LIG    1      -38.468  70.423  24.422  0.00  0.00    -0.191 NA
ENDBRANCH  32  35
ENDBRANCH  28  29
ENDBRANCH  25  28
ENDBRANCH   3  24
TORSDOF 10
ENDMDL
MODEL 6
REMARK VINA RESULT:      -5.5     12.633     16.652
REMARK  Name = pdb/CHEMBL3960311.pdb
REMARK                            x       y       z     vdW  Elec       q    Type
REMARK                         _______ _______ _______ _____ _____    ______ ____
ROOT
ATOM      1  C   LIG    1      -36.573  70.222  25.773  0.00  0.00    +0.042 A 
ATOM      2  C   LIG    1      -35.656  71.101  26.371  0.00  0.00    +0.042 A 
ATOM      3  C   LIG    1      -34.966  70.724  27.530  0.00  0.00    +0.086 A 
ATOM      4  C   LIG    1      -35.346  69.512  28.109  0.00  0.00    +0.138 A 
ATOM      5  N   LIG    1      -36.183  68.617  27.555  0.00  0.00    -0.260 NA
ATOM      6  C   LIG    1      -36.723  68.977  26.374  0.00  0.00    +0.122 A 
ENDROOT
BRANCH   1   7
ATOM      7  C   LIG    1      -37.281  70.623  24.516  0.00  0.00    +0.197 C 
ATOM      8  O   LIG    1      -37.132  69.921  23.518  0.00  0.00    -0.287 OA
BRANCH   7  16
ATOM      9  N   LIG    1      -39.044  73.840  24.886  0.00  0.00    -0.338 N 
ATOM     10  C   LIG    1      -40.037  73.108  24.249  0.00  0.00    +0.053 A 
ATOM     11  C   LIG    1      -41.364  73.378  23.888  0.00  0.00    +0.046 A 
ATOM     12  C   LIG    1      -42.056  72.397  23.202  0.00  0.00    +0.113 A 
ATOM     13  N   LIG    1      -41.546  71.206  22.858  0.00  0.00    -0.263 NA
ATOM     14  C   LIG    1      -40.277  70.919  23.231  0.00  0.00    +0.121 A 
ATOM     15  C   LIG    1      -39.494  71.845  23.942  0.00  0.00    +0.029 A 
ATOM     16  C   LIG    1      -38.171  71.788  24.486  0.00  0.00    +0.049 A 
ATOM     17  C   LIG    1      -37.892  73.075  24.893  0.00  0.00    +0.099 A 
BRANCH   9  19
ATOM     18  C   LIG    1      -40.164  75.378  26.447  0.00  0.00    +0.036 C 
ATOM     19  C   LIG    1      -39.036  75.240  25.395  0.00  0.00    +0.063 C 
ATOM     20  C   LIG    1      -39.319  76.250  24.250  0.00  0.00    +0.036 C 
BRANCH  19  21
ATOM     21  C   LIG    1      -37.702  75.675  26.051  0.00  0.00    +0.183 C 
BRANCH  21  22
ATOM     22  O   LIG    1      -36.978  76.581  25.219  0.00  0.00    -0.393 OA
ATOM     23  H   LIG    1      -37.008  77.459  25.637  0.00  0.00    +0.209 HD
ENDBRANCH  21  22
ENDBRANCH  19  21
ENDBRANCH   9  19
ENDBRANCH   7  16
ENDBRANCH   1   7
BRANCH   3  24
ATOM     24  N   LIG    1      -33.958  71.560  28.047  0.00  0.00    -0.216 NA
ATOM     25  C   LIG    1      -34.224  72.437  28.964  0.00  0.00    +0.192 C 
BRANCH  25  26
ATOM     26  O   LIG    1      -35.457  72.577  29.505  0.00  0.00    -0.495 OA
ATOM     27  H   LIG    1      -35.686  73.484  29.759  0.00  0.00    +0.293 HD
ENDBRANCH  25  26
BRANCH  25  28
ATOM     28  C   LIG    1      -33.195  73.352  29.589  0.00  0.00    +0.130 C 
BRANCH  28  29
ATOM     29  C   LIG    1      -33.040  74.689  28.908  0.00  0.00    -0.038 A 
ATOM     30  C   LIG    1      -32.004  75.557  29.278  0.00  0.00    +0.005 A 
ATOM     31  C   LIG    1      -31.875  76.806  28.666  0.00  0.00    +0.019 A 
ATOM     32  C   LIG    1      -32.789  77.206  27.687  0.00  0.00    +0.052 A 
ATOM     33  C   LIG    1      -33.818  76.344  27.307  0.00  0.00    +0.019 A 
ATOM     34  C   LIG    1      -33.929  75.085  27.898  0.00  0.00    +0.005 A 
BRANCH  32  35
ATOM     35  C   LIG    1      -32.669  78.496  27.062  0.00  0.00    +0.099 C 
ATOM     36  N   LIG    1      -32.580  79.527  26.557  0.00  0.00    -0.191 NA
ENDBRANCH  32  35
ENDBRANCH  28  29
ENDBRANCH  25  28
ENDBRANCH   3  24
TORSDOF 10
ENDMDL
MODEL 7
REMARK VINA RESULT:      -5.5     12.251     16.362
REMARK  Name = pdb/CHEMBL3960311.pdb
REMARK                            x       y       z     vdW  Elec       q    Type
REMARK                         _______ _______ _______ _____ _____    ______ ____
ROOT
ATOM      1  C   LIG    1      -37.776  77.121  26.199  0.00  0.00    +0.042 A 
ATOM      2  C   LIG    1      -36.578  76.818  26.868  0.00  0.00    +0.042 A 
ATOM      3  C   LIG    1      -36.302  77.391  28.116  0.00  0.00    +0.086 A 
ATOM      4  C   LIG    1      -37.202  78.357  28.567  0.00  0.00    +0.138 A 
ATOM      5  N   LIG    1      -38.380  78.649  27.988  0.00  0.00    -0.260 NA
ATOM      6  C   LIG    1      -38.655  77.975  26.854  0.00  0.00    +0.122 A 
ENDROOT
BRANCH   1   7
ATOM      7  C   LIG    1      -38.076  76.478  24.880  0.00  0.00    +0.197 C 
ATOM      8  O   LIG    1      -37.860  77.124  23.858  0.00  0.00    -0.287 OA
BRANCH   7  16
ATOM      9  N   LIG    1      -38.634  72.832  24.879  0.00  0.00    -0.338 N 
ATOM     10  C   LIG    1      -39.804  73.242  24.255  0.00  0.00    +0.053 A 
ATOM     11  C   LIG    1      -40.889  72.564  23.682  0.00  0.00    +0.046 A 
ATOM     12  C   LIG    1      -41.930  73.324  23.182  0.00  0.00    +0.113 A 
ATOM     13  N   LIG    1      -41.974  74.664  23.206  0.00  0.00    -0.263 NA
ATOM     14  C   LIG    1      -40.917  75.331  23.725  0.00  0.00    +0.121 A 
ATOM     15  C   LIG    1      -39.804  74.650  24.248  0.00  0.00    +0.029 A 
ATOM     16  C   LIG    1      -38.562  75.096  24.805  0.00  0.00    +0.049 A 
ATOM     17  C   LIG    1      -37.972  73.963  25.322  0.00  0.00    +0.099 A 
BRANCH   9  19
ATOM     18  C   LIG    1      -37.966  70.686  23.878  0.00  0.00    +0.036 C 
ATOM     19  C   LIG    1      -38.124  71.471  25.204  0.00  0.00    +0.063 C 
ATOM     20  C   LIG    1      -39.127  70.700  26.103  0.00  0.00    +0.036 C 
BRANCH  19  21
ATOM     21  C   LIG    1      -36.763  71.457  25.943  0.00  0.00    +0.183 C 
BRANCH  21  22
ATOM     22  O   LIG    1      -35.680  71.208  25.047  0.00  0.00    -0.393 OA
ATOM     23  H   LIG    1      -35.925  70.455  24.484  0.00  0.00    +0.209 HD
ENDBRANCH  21  22
ENDBRANCH  19  21
ENDBRANCH   9  19
ENDBRANCH   7  16
ENDBRANCH   1   7
BRANCH   3  24
ATOM     24  N   LIG    1      -35.161  76.984  28.834  0.00  0.00    -0.216 NA
ATOM     25  C   LIG    1      -33.973  77.123  28.333  0.00  0.00    +0.192 C 
BRANCH  25  26
ATOM     26  O   LIG    1      -33.751  77.697  27.127  0.00  0.00    -0.495 OA
ATOM     27  H   LIG    1      -33.916  78.652  27.098  0.00  0.00    +0.293 HD
ENDBRANCH  25  26
BRANCH  25  28
ATOM     28  C   LIG    1      -32.698  76.737  29.050  0.00  0.00    +0.130 C 
BRANCH  28  29
ATOM     29  C   LIG    1      -32.481  75.252  29.200  0.00  0.00    -0.038 A 
ATOM     30  C   LIG    1      -31.377  74.766  29.911  0.00  0.00    +0.005 A 
ATOM     31  C   LIG    1      -31.160  73.390  30.029  0.00  0.00    +0.019 A 
ATOM     32  C   LIG    1      -32.041  72.487  29.425  0.00  0.00    +0.052 A 
ATOM     33  C   LIG    1      -33.148  72.964  28.722  0.00  0.00    +0.019 A 
ATOM     34  C   LIG    1      -33.379  74.337  28.630  0.00  0.00    +0.005 A 
BRANCH  32  35
ATOM     35  C   LIG    1      -31.818  71.070  29.532  0.00  0.00    +0.099 C 
ATOM     36  N   LIG    1      -31.644  69.935  29.625  0.00  0.00    -0.191 NA
ENDBRANCH  32  35
ENDBRANCH  28  29
ENDBRANCH  25  28
ENDBRANCH   3  24
TORSDOF 10
ENDMDL
MODEL 8
REMARK VINA RESULT:      -5.5     10.791     16.106
REMARK  Name = pdb/CHEMBL3960311.pdb
REMARK                            x       y       z     vdW  Elec       q    Type
REMARK                         _______ _______ _______ _____ _____    ______ ____
ROOT
ATOM      1  C   LIG    1      -34.654  77.261  27.595  0.00  0.00    +0.042 A 
ATOM      2  C   LIG    1      -35.782  76.544  27.162  0.00  0.00    +0.042 A 
ATOM      3  C   LIG    1      -37.051  77.135  27.196  0.00  0.00    +0.086 A 
ATOM      4  C   LIG    1      -37.134  78.389  27.801  0.00  0.00    +0.138 A 
ATOM      5  N   LIG    1      -36.083  79.133  28.190  0.00  0.00    -0.260 NA
ATOM      6  C   LIG    1      -34.873  78.566  28.018  0.00  0.00    +0.122 A 
ENDROOT
BRANCH   1   7
ATOM      7  C   LIG    1      -33.298  76.631  27.524  0.00  0.00    +0.197 C 
ATOM      8  O   LIG    1      -32.561  76.947  26.593  0.00  0.00    -0.287 OA
BRANCH   7  16
ATOM      9  N   LIG    1      -31.684  74.827  30.306  0.00  0.00    -0.338 N 
ATOM     10  C   LIG    1      -32.401  73.781  29.742  0.00  0.00    +0.053 A 
ATOM     11  C   LIG    1      -32.491  72.408  30.009  0.00  0.00    +0.046 A 
ATOM     12  C   LIG    1      -33.371  71.661  29.248  0.00  0.00    +0.113 A 
ATOM     13  N   LIG    1      -34.145  72.158  28.273  0.00  0.00    -0.263 NA
ATOM     14  C   LIG    1      -34.043  73.476  27.982  0.00  0.00    +0.121 A 
ATOM     15  C   LIG    1      -33.168  74.319  28.689  0.00  0.00    +0.029 A 
ATOM     16  C   LIG    1      -32.837  75.706  28.564  0.00  0.00    +0.049 A 
ATOM     17  C   LIG    1      -32.067  75.995  29.671  0.00  0.00    +0.099 A 
BRANCH   9  19
ATOM     18  C   LIG    1      -31.594  74.882  32.765  0.00  0.00    +0.036 C 
ATOM     19  C   LIG    1      -30.751  74.859  31.466  0.00  0.00    +0.063 C 
ATOM     20  C   LIG    1      -29.873  76.139  31.440  0.00  0.00    +0.036 C 
BRANCH  19  21
ATOM     21  C   LIG    1      -29.778  73.656  31.538  0.00  0.00    +0.183 C 
BRANCH  21  22
ATOM     22  O   LIG    1      -30.010  72.860  32.700  0.00  0.00    -0.393 OA
ATOM     23  H   LIG    1      -30.067  73.457  33.465  0.00  0.00    +0.209 HD
ENDBRANCH  21  22
ENDBRANCH  19  21
ENDBRANCH   9  19
ENDBRANCH   7  16
ENDBRANCH   1   7
BRANCH   3  24
ATOM     24  N   LIG    1      -38.153  76.455  26.642  0.00  0.00    -0.216 NA
ATOM     25  C   LIG    1      -38.330  76.406  25.358  0.00  0.00    +0.192 C 
BRANCH  25  26
ATOM     26  O   LIG    1      -37.460  76.958  24.479  0.00  0.00    -0.495 OA
ATOM     27  H   LIG    1      -37.194  77.866  24.691  0.00  0.00    +0.293 HD
ENDBRANCH  25  26
BRANCH  25  28
ATOM     28  C   LIG    1      -39.470  75.676  24.684  0.00  0.00    +0.130 C 
BRANCH  28  29
ATOM     29  C   LIG    1      -39.258  74.193  24.509  0.00  0.00    -0.038 A 
ATOM     30  C   LIG    1      -40.252  73.399  23.923  0.00  0.00    +0.005 A 
ATOM     31  C   LIG    1      -40.067  72.021  23.784  0.00  0.00    +0.019 A 
ATOM     32  C   LIG    1      -38.890  71.422  24.240  0.00  0.00    +0.052 A 
ATOM     33  C   LIG    1      -37.892  72.207  24.818  0.00  0.00    +0.019 A 
ATOM     34  C   LIG    1      -38.066  73.587  24.930  0.00  0.00    +0.005 A 
BRANCH  32  35
ATOM     35  C   LIG    1      -38.698  70.002  24.111  0.00  0.00    +0.099 C 
ATOM     36  N   LIG    1      -38.545  68.864  24.015  0.00  0.00    -0.191 NA
ENDBRANCH  32  35
ENDBRANCH  28  29
ENDBRANCH  25  28
ENDBRANCH   3  24
TORSDOF 10
ENDMDL
MODEL 9
REMARK VINA RESULT:      -5.4     11.148     16.076
REMARK  Name = pdb/CHEMBL3960311.pdb
REMARK                            x       y       z     vdW  Elec       q    Type
REMARK                         _______ _______ _______ _____ _____    ______ ____
ROOT
ATOM      1  C   LIG    1      -33.376  75.569  29.125  0.00  0.00    +0.042 A 
ATOM      2  C   LIG    1      -34.159  75.599  27.959  0.00  0.00    +0.042 A 
ATOM      3  C   LIG    1      -35.075  76.637  27.750  0.00  0.00    +0.086 A 
ATOM      4  C   LIG    1      -35.252  77.530  28.807  0.00  0.00    +0.138 A 
ATOM      5  N   LIG    1      -34.498  77.571  29.921  0.00  0.00    -0.260 NA
ATOM      6  C   LIG    1      -33.544  76.624  30.014  0.00  0.00    +0.122 A 
ENDROOT
BRANCH   1   7
ATOM      7  C   LIG    1      -32.376  74.472  29.323  0.00  0.00    +0.197 C 
ATOM      8  O   LIG    1      -31.270  74.770  29.769  0.00  0.00    -0.287 OA
BRANCH   7  16
ATOM      9  N   LIG    1      -33.847  71.228  28.369  0.00  0.00    -0.338 N 
ATOM     10  C   LIG    1      -32.781  70.778  29.138  0.00  0.00    +0.053 A 
ATOM     11  C   LIG    1      -32.353  69.512  29.560  0.00  0.00    +0.046 A 
ATOM     12  C   LIG    1      -31.186  69.441  30.298  0.00  0.00    +0.113 A 
ATOM     13  N   LIG    1      -30.436  70.498  30.637  0.00  0.00    -0.263 NA
ATOM     14  C   LIG    1      -30.856  71.730  30.266  0.00  0.00    +0.121 A 
ATOM     15  C   LIG    1      -32.037  71.910  29.524  0.00  0.00    +0.029 A 
ATOM     16  C   LIG    1      -32.721  73.074  29.048  0.00  0.00    +0.049 A 
ATOM     17  C   LIG    1      -33.710  72.596  28.215  0.00  0.00    +0.099 A 
BRANCH   9  19
ATOM     18  C   LIG    1      -35.835  69.824  28.735  0.00  0.00    +0.036 C 
ATOM     19  C   LIG    1      -34.927  70.483  27.666  0.00  0.00    +0.063 C 
ATOM     20  C   LIG    1      -34.339  69.357  26.774  0.00  0.00    +0.036 C 
BRANCH  19  21
ATOM     21  C   LIG    1      -35.815  71.358  26.747  0.00  0.00    +0.183 C 
BRANCH  21  22
ATOM     22  O   LIG    1      -35.435  71.236  25.377  0.00  0.00    -0.393 OA
ATOM     23  H   LIG    1      -34.469  71.129  25.342  0.00  0.00    +0.209 HD
ENDBRANCH  21  22
ENDBRANCH  19  21
ENDBRANCH   9  19
ENDBRANCH   7  16
ENDBRANCH   1   7
BRANCH   3  24
ATOM     24  N   LIG    1      -35.762  76.726  26.524  0.00  0.00    -0.216 NA
ATOM     25  C   LIG    1      -37.015  76.404  26.436  0.00  0.00    +0.192 C 
BRANCH  25  26
ATOM     26  O   LIG    1      -37.744  76.007  27.505  0.00  0.00    -0.495 OA
ATOM     27  H   LIG    1      -37.259  75.466  28.146  0.00  0.00    +0.293 HD
ENDBRANCH  25  26
BRANCH  25  28
ATOM     28  C   LIG    1      -37.829  76.497  25.164  0.00  0.00    +0.130 C 
BRANCH  28  29
ATOM     29  C   LIG    1      -38.578  75.240  24.798  0.00  0.00    -0.038 A 
ATOM     30  C   LIG    1      -37.978  73.985  24.963  0.00  0.00    +0.005 A 
ATOM     31  C   LIG    1      -38.661  72.821  24.599  0.00  0.00    +0.019 A 
ATOM     32  C   LIG    1      -39.947  72.903  24.056  0.00  0.00    +0.052 A 
ATOM     33  C   LIG    1      -40.554  74.149  23.896  0.00  0.00    +0.019 A 
ATOM     34  C   LIG    1      -39.882  75.308  24.287  0.00  0.00    +0.005 A 
BRANCH  32  35
ATOM     35  C   LIG    1      -40.651  71.710  23.668  0.00  0.00    +0.099 C 
ATOM     36  N   LIG    1      -41.219  70.755  23.365  0.00  0.00    -0.191 NA
ENDBRANCH  32  35
ENDBRANCH  28  29
ENDBRANCH  25  28
ENDBRANCH   3  24
TORSDOF 10
ENDMDL
