MODEL 1
REMARK VINA RESULT:      -5.9      0.000      0.000
REMARK  Name = pdb/CHEMBL3676076.pdb
REMARK                            x       y       z     vdW  Elec       q    Type
REMARK                         _______ _______ _______ _____ _____    ______ ____
ROOT
ATOM      1  C   LIG    1      -22.656  82.429  15.175  0.00  0.00    +0.109 C 
ATOM      2  N   LIG    1      -21.456  82.309  14.300  0.00  0.00    -0.308 N 
ATOM      3  C   LIG    1      -20.667  81.191  14.847  0.00  0.00    +0.107 C 
ATOM      4  C   LIG    1      -20.889  81.216  16.353  0.00  0.00    +0.021 C 
ATOM      5  C   LIG    1      -22.117  82.088  16.572  0.00  0.00    +0.029 C 
ENDROOT
BRANCH   2   6
ATOM      6  C   LIG    1      -20.748  83.459  13.955  0.00  0.00    +0.126 A 
ATOM      7  N   LIG    1      -21.344  84.631  13.888  0.00  0.00    -0.212 NA
ATOM      8  C   LIG    1      -20.557  85.736  13.641  0.00  0.00    +0.170 A 
ATOM      9  C   LIG    1      -20.849  87.084  13.499  0.00  0.00    +0.100 A 
ATOM     10  C   LIG    1      -19.585  87.705  13.383  0.00  0.00    +0.150 A 
ATOM     11  N   LIG    1      -18.573  86.837  13.360  0.00  0.00    -0.173 NA
ATOM     12  N   LIG    1      -19.169  85.630  13.484  0.00  0.00    -0.221 N 
ATOM     13  C   LIG    1      -18.549  84.392  13.497  0.00  0.00    +0.118 A 
ATOM     14  C   LIG    1      -19.267  83.285  13.716  0.00  0.00    +0.063 A 
BRANCH   9  15
ATOM     15  C   LIG    1      -22.133  87.766  13.483  0.00  0.00    +0.249 C 
ATOM     16  N   LIG    1      -22.397  88.459  12.313  0.00  0.00    -0.308 N 
ATOM     17  H   LIG    1      -21.695  88.426  11.583  0.00  0.00    +0.149 HD
ATOM     18  O   LIG    1      -22.911  87.690  14.414  0.00  0.00    -0.270 OA
BRANCH  16  19
ATOM     19  C   LIG    1      -23.626  89.153  12.082  0.00  0.00    +0.073 C 
ATOM     20  C   LIG    1      -24.526  88.709  10.958  0.00  0.00    +0.024 C 
ATOM     21  C   LIG    1      -23.817  90.026  10.872  0.00  0.00    +0.024 C 
ENDBRANCH  16  19
ENDBRANCH   9  15
ENDBRANCH   2   6
BRANCH   1  23
ATOM     22  C   LIG    1      -24.393  81.856  13.262  0.00  0.00    +0.126 A 
ATOM     23  C   LIG    1      -23.819  81.649  14.538  0.00  0.00    +0.017 A 
ATOM     24  C   LIG    1      -24.292  80.544  15.290  0.00  0.00    +0.047 A 
ATOM     25  C   LIG    1      -25.271  79.687  14.799  0.00  0.00    +0.124 A 
ATOM     26  F   LIG    1      -25.672  78.642  15.534  0.00  0.00    -0.205 F 
ATOM     27  C   LIG    1      -25.818  79.890  13.551  0.00  0.00    +0.042 A 
ATOM     28  C   LIG    1      -25.382  80.971  12.787  0.00  0.00    +0.049 A 
BRANCH  22  29
ATOM     29  O   LIG    1      -23.966  82.930  12.533  0.00  0.00    -0.489 OA
BRANCH  29  30
ATOM     30  C   LIG    1      -24.747  83.413  11.433  0.00  0.00    +0.262 C 
BRANCH  30  31
ATOM     31  C   LIG    1      -24.908  84.940  11.480  0.00  0.00    +0.177 C 
BRANCH  31  32
ATOM     32  O   LIG    1      -24.330  85.494  12.676  0.00  0.00    -0.386 OA
ATOM     33  H   LIG    1      -23.631  86.119  12.417  0.00  0.00    +0.210 HD
ENDBRANCH  31  32
BRANCH  31  34
ATOM     34  C   LIG    1      -26.385  85.343  11.446  0.00  0.00    +0.190 C 
BRANCH  34  35
ATOM     35  O   LIG    1      -27.126  84.543  12.367  0.00  0.00    -0.392 OA
ATOM     36  H   LIG    1      -26.824  83.622  12.236  0.00  0.00    +0.210 HD
ENDBRANCH  34  35
ENDBRANCH  31  34
ENDBRANCH  30  31
ENDBRANCH  29  30
ENDBRANCH  22  29
ENDBRANCH   1  23
TORSDOF 10
ENDMDL
MODEL 2
REMARK VINA RESULT:      -5.9     22.796     24.273
REMARK  Name = pdb/CHEMBL3676076.pdb
REMARK                            x       y       z     vdW  Elec       q    Type
REMARK                         _______ _______ _______ _____ _____    ______ ____
ROOT
ATOM      1  C   LIG    1      -39.800  69.787  23.384  0.00  0.00    +0.109 C 
ATOM      2  N   LIG    1      -39.398  69.598  21.962  0.00  0.00    -0.308 N 
ATOM      3  C   LIG    1      -40.617  69.179  21.249  0.00  0.00    +0.107 C 
ATOM      4  C   LIG    1      -41.427  68.361  22.243  0.00  0.00    +0.021 C 
ATOM      5  C   LIG    1      -40.842  68.682  23.611  0.00  0.00    +0.029 C 
ENDROOT
BRANCH   2   6
ATOM      6  C   LIG    1      -38.234  68.887  21.673  0.00  0.00    +0.126 A 
ATOM      7  N   LIG    1      -37.332  68.652  22.602  0.00  0.00    -0.212 NA
ATOM      8  C   LIG    1      -36.258  67.855  22.266  0.00  0.00    +0.170 A 
ATOM      9  C   LIG    1      -35.148  67.424  22.977  0.00  0.00    +0.100 A 
ATOM     10  C   LIG    1      -34.493  66.534  22.097  0.00  0.00    +0.150 A 
ATOM     11  N   LIG    1      -35.070  66.460  20.897  0.00  0.00    -0.173 NA
ATOM     12  N   LIG    1      -36.131  67.294  20.988  0.00  0.00    -0.221 N 
ATOM     13  C   LIG    1      -37.049  67.587  19.994  0.00  0.00    +0.118 A 
ATOM     14  C   LIG    1      -38.101  68.368  20.261  0.00  0.00    +0.063 A 
BRANCH   9  15
ATOM     15  C   LIG    1      -34.712  67.760  24.322  0.00  0.00    +0.249 C 
ATOM     16  N   LIG    1      -34.598  66.674  25.174  0.00  0.00    -0.308 N 
ATOM     17  H   LIG    1      -34.814  65.760  24.795  0.00  0.00    +0.149 HD
ATOM     18  O   LIG    1      -34.439  68.902  24.641  0.00  0.00    -0.270 OA
BRANCH  16  19
ATOM     19  C   LIG    1      -34.137  66.791  26.523  0.00  0.00    +0.073 C 
ATOM     20  C   LIG    1      -34.177  65.584  27.426  0.00  0.00    +0.024 C 
ATOM     21  C   LIG    1      -35.091  66.743  27.684  0.00  0.00    +0.024 C 
ENDBRANCH  16  19
ENDBRANCH   9  15
ENDBRANCH   2   6
BRANCH   1  23
ATOM     22  C   LIG    1      -39.268  72.261  24.157  0.00  0.00    +0.126 A 
ATOM     23  C   LIG    1      -40.124  71.273  23.618  0.00  0.00    +0.017 A 
ATOM     24  C   LIG    1      -41.393  71.698  23.150  0.00  0.00    +0.047 A 
ATOM     25  C   LIG    1      -41.786  73.031  23.203  0.00  0.00    +0.124 A 
ATOM     26  F   LIG    1      -42.985  73.391  22.729  0.00  0.00    -0.205 F 
ATOM     27  C   LIG    1      -40.942  73.990  23.720  0.00  0.00    +0.042 A 
ATOM     28  C   LIG    1      -39.691  73.606  24.196  0.00  0.00    +0.049 A 
BRANCH  22  29
ATOM     29  O   LIG    1      -38.051  71.866  24.634  0.00  0.00    -0.489 OA
BRANCH  29  30
ATOM     30  C   LIG    1      -37.617  72.278  25.937  0.00  0.00    +0.262 C 
BRANCH  30  31
ATOM     31  C   LIG    1      -36.410  71.458  26.417  0.00  0.00    +0.177 C 
BRANCH  31  32
ATOM     32  O   LIG    1      -35.417  71.328  25.382  0.00  0.00    -0.386 OA
ATOM     33  H   LIG    1      -35.586  72.009  24.708  0.00  0.00    +0.210 HD
ENDBRANCH  31  32
BRANCH  31  34
ATOM     34  C   LIG    1      -36.830  70.048  26.840  0.00  0.00    +0.190 C 
BRANCH  34  35
ATOM     35  O   LIG    1      -37.273  69.312  25.700  0.00  0.00    -0.392 OA
ATOM     36  H   LIG    1      -37.002  69.830  24.915  0.00  0.00    +0.210 HD
ENDBRANCH  34  35
ENDBRANCH  31  34
ENDBRANCH  30  31
ENDBRANCH  29  30
ENDBRANCH  22  29
ENDBRANCH   1  23
TORSDOF 10
ENDMDL
MODEL 3
REMARK VINA RESULT:      -5.3     19.484     21.667
REMARK  Name = pdb/CHEMBL3676076.pdb
REMARK                            x       y       z     vdW  Elec       q    Type
REMARK                         _______ _______ _______ _____ _____    ______ ____
ROOT
ATOM      1  C   LIG    1      -37.863  76.173  25.139  0.00  0.00    +0.109 C 
ATOM      2  N   LIG    1      -38.627  76.975  26.136  0.00  0.00    -0.308 N 
ATOM      3  C   LIG    1      -39.683  77.666  25.376  0.00  0.00    +0.107 C 
ATOM      4  C   LIG    1      -39.093  77.956  24.003  0.00  0.00    +0.021 C 
ATOM      5  C   LIG    1      -37.868  77.061  23.885  0.00  0.00    +0.029 C 
ENDROOT
BRANCH   2   6
ATOM      6  C   LIG    1      -37.931  77.742  27.069  0.00  0.00    +0.126 A 
ATOM      7  N   LIG    1      -36.620  77.667  27.170  0.00  0.00    -0.212 NA
ATOM      8  C   LIG    1      -35.995  78.530  28.044  0.00  0.00    +0.170 A 
ATOM      9  C   LIG    1      -34.665  78.710  28.397  0.00  0.00    +0.100 A 
ATOM     10  C   LIG    1      -34.680  79.836  29.251  0.00  0.00    +0.150 A 
ATOM     11  N   LIG    1      -35.908  80.289  29.502  0.00  0.00    -0.173 NA
ATOM     12  N   LIG    1      -36.716  79.470  28.791  0.00  0.00    -0.221 N 
ATOM     13  C   LIG    1      -38.098  79.511  28.729  0.00  0.00    +0.118 A 
ATOM     14  C   LIG    1      -38.757  78.685  27.909  0.00  0.00    +0.063 A 
BRANCH   9  15
ATOM     15  C   LIG    1      -33.484  77.961  28.003  0.00  0.00    +0.249 C 
ATOM     16  N   LIG    1      -32.811  77.359  29.053  0.00  0.00    -0.308 N 
ATOM     17  H   LIG    1      -33.195  77.481  29.983  0.00  0.00    +0.149 HD
ATOM     18  O   LIG    1      -33.152  77.853  26.837  0.00  0.00    -0.270 OA
BRANCH  16  19
ATOM     19  C   LIG    1      -31.655  76.538  28.867  0.00  0.00    +0.073 C 
ATOM     20  C   LIG    1      -31.646  75.135  29.417  0.00  0.00    +0.024 C 
ATOM     21  C   LIG    1      -30.755  76.180  30.018  0.00  0.00    +0.024 C 
ENDBRANCH  16  19
ENDBRANCH   9  15
ENDBRANCH   2   6
BRANCH   1  23
ATOM     22  C   LIG    1      -38.101  73.687  26.014  0.00  0.00    +0.126 A 
ATOM     23  C   LIG    1      -38.417  74.738  25.122  0.00  0.00    +0.017 A 
ATOM     24  C   LIG    1      -39.424  74.488  24.156  0.00  0.00    +0.047 A 
ATOM     25  C   LIG    1      -40.087  73.268  24.086  0.00  0.00    +0.124 A 
ATOM     26  F   LIG    1      -41.048  73.083  23.172  0.00  0.00    -0.205 F 
ATOM     27  C   LIG    1      -39.780  72.252  24.965  0.00  0.00    +0.042 A 
ATOM     28  C   LIG    1      -38.791  72.461  25.923  0.00  0.00    +0.049 A 
BRANCH  22  29
ATOM     29  O   LIG    1      -37.117  73.903  26.936  0.00  0.00    -0.489 OA
BRANCH  29  30
ATOM     30  C   LIG    1      -36.601  72.813  27.712  0.00  0.00    +0.262 C 
BRANCH  30  31
ATOM     31  C   LIG    1      -35.288  73.189  28.413  0.00  0.00    +0.177 C 
BRANCH  31  32
ATOM     32  O   LIG    1      -35.227  72.643  29.744  0.00  0.00    -0.386 OA
ATOM     33  H   LIG    1      -35.654  73.271  30.353  0.00  0.00    +0.210 HD
ENDBRANCH  31  32
BRANCH  31  34
ATOM     34  C   LIG    1      -35.134  74.708  28.525  0.00  0.00    +0.190 C 
BRANCH  34  35
ATOM     35  O   LIG    1      -34.696  75.244  27.277  0.00  0.00    -0.392 OA
ATOM     36  H   LIG    1      -34.157  74.547  26.852  0.00  0.00    +0.210 HD
ENDBRANCH  34  35
ENDBRANCH  31  34
ENDBRANCH  30  31
ENDBRANCH  29  30
ENDBRANCH  22  29
ENDBRANCH   1  23
TORSDOF 10
ENDMDL
MODEL 4
REMARK VINA RESULT:      -5.3     20.395     22.559
REMARK  Name = pdb/CHEMBL3676076.pdb
REMARK                            x       y       z     vdW  Elec       q    Type
REMARK                         _______ _______ _______ _____ _____    ______ ____
ROOT
ATOM      1  C   LIG    1      -36.743  71.055  24.780  0.00  0.00    +0.109 C 
ATOM      2  N   LIG    1      -37.945  71.530  25.523  0.00  0.00    -0.308 N 
ATOM      3  C   LIG    1      -38.885  70.396  25.539  0.00  0.00    +0.107 C 
ATOM      4  C   LIG    1      -38.669  69.650  24.231  0.00  0.00    +0.021 C 
ATOM      5  C   LIG    1      -37.332  70.141  23.694  0.00  0.00    +0.029 C 
ENDROOT
BRANCH   2   6
ATOM      6  C   LIG    1      -38.483  72.779  25.217  0.00  0.00    +0.126 A 
ATOM      7  N   LIG    1      -37.901  73.888  25.621  0.00  0.00    -0.212 NA
ATOM      8  C   LIG    1      -38.436  75.085  25.193  0.00  0.00    +0.170 A 
ATOM      9  C   LIG    1      -38.090  76.407  25.429  0.00  0.00    +0.100 A 
ATOM     10  C   LIG    1      -38.960  77.149  24.599  0.00  0.00    +0.150 A 
ATOM     11  N   LIG    1      -39.847  76.391  23.955  0.00  0.00    -0.173 NA
ATOM     12  N   LIG    1      -39.548  75.130  24.343  0.00  0.00    -0.221 N 
ATOM     13  C   LIG    1      -40.197  73.966  23.965  0.00  0.00    +0.118 A 
ATOM     14  C   LIG    1      -39.729  72.779  24.365  0.00  0.00    +0.063 A 
BRANCH   9  15
ATOM     15  C   LIG    1      -37.070  76.964  26.301  0.00  0.00    +0.249 C 
ATOM     16  N   LIG    1      -35.943  76.170  26.444  0.00  0.00    -0.308 N 
ATOM     17  H   LIG    1      -35.922  75.295  25.934  0.00  0.00    +0.149 HD
ATOM     18  O   LIG    1      -37.198  78.055  26.823  0.00  0.00    -0.270 OA
BRANCH  16  19
ATOM     19  C   LIG    1      -34.808  76.565  27.220  0.00  0.00    +0.073 C 
ATOM     20  C   LIG    1      -33.845  75.515  27.710  0.00  0.00    +0.024 C 
ATOM     21  C   LIG    1      -34.714  76.247  28.687  0.00  0.00    +0.024 C 
ENDBRANCH  16  19
ENDBRANCH   9  15
ENDBRANCH   2   6
BRANCH   1  23
ATOM     22  C   LIG    1      -34.758  69.511  25.603  0.00  0.00    +0.126 A 
ATOM     23  C   LIG    1      -35.698  70.550  25.790  0.00  0.00    +0.017 A 
ATOM     24  C   LIG    1      -35.622  71.283  27.002  0.00  0.00    +0.047 A 
ATOM     25  C   LIG    1      -34.661  71.006  27.967  0.00  0.00    +0.124 A 
ATOM     26  F   LIG    1      -34.612  71.739  29.087  0.00  0.00    -0.205 F 
ATOM     27  C   LIG    1      -33.742  69.999  27.773  0.00  0.00    +0.042 A 
ATOM     28  C   LIG    1      -33.792  69.254  26.597  0.00  0.00    +0.049 A 
BRANCH  22  29
ATOM     29  O   LIG    1      -34.831  68.780  24.451  0.00  0.00    -0.489 OA
BRANCH  29  30
ATOM     30  C   LIG    1      -34.945  67.352  24.508  0.00  0.00    +0.262 C 
BRANCH  30  31
ATOM     31  C   LIG    1      -34.842  66.720  23.113  0.00  0.00    +0.177 C 
BRANCH  31  32
ATOM     32  O   LIG    1      -34.532  67.705  22.110  0.00  0.00    -0.386 OA
ATOM     33  H   LIG    1      -35.237  67.691  21.439  0.00  0.00    +0.210 HD
ENDBRANCH  31  32
BRANCH  31  34
ATOM     34  C   LIG    1      -36.157  66.044  22.711  0.00  0.00    +0.190 C 
BRANCH  34  35
ATOM     35  O   LIG    1      -37.031  67.003  22.117  0.00  0.00    -0.392 OA
ATOM     36  H   LIG    1      -37.095  66.768  21.170  0.00  0.00    +0.210 HD
ENDBRANCH  34  35
ENDBRANCH  31  34
ENDBRANCH  30  31
ENDBRANCH  29  30
ENDBRANCH  22  29
ENDBRANCH   1  23
TORSDOF 10
ENDMDL
MODEL 5
REMARK VINA RESULT:      -5.3     19.059     21.472
REMARK  Name = pdb/CHEMBL3676076.pdb
REMARK                            x       y       z     vdW  Elec       q    Type
REMARK                         _______ _______ _______ _____ _____    ______ ____
ROOT
ATOM      1  C   LIG    1      -38.204  75.640  24.815  0.00  0.00    +0.109 C 
ATOM      2  N   LIG    1      -38.100  75.658  26.302  0.00  0.00    -0.308 N 
ATOM      3  C   LIG    1      -39.051  76.685  26.761  0.00  0.00    +0.107 C 
ATOM      4  C   LIG    1      -39.067  77.758  25.682  0.00  0.00    +0.021 C 
ATOM      5  C   LIG    1      -38.438  77.114  24.454  0.00  0.00    +0.029 C 
ENDROOT
BRANCH   2   6
ATOM      6  C   LIG    1      -36.839  75.669  26.895  0.00  0.00    +0.126 A 
ATOM      7  N   LIG    1      -36.132  76.777  26.971  0.00  0.00    -0.212 NA
ATOM      8  C   LIG    1      -34.940  76.730  27.662  0.00  0.00    +0.170 A 
ATOM      9  C   LIG    1      -33.967  77.683  27.922  0.00  0.00    +0.100 A 
ATOM     10  C   LIG    1      -33.060  77.029  28.786  0.00  0.00    +0.150 A 
ATOM     11  N   LIG    1      -33.364  75.749  28.997  0.00  0.00    -0.173 NA
ATOM     12  N   LIG    1      -34.496  75.555  28.283  0.00  0.00    -0.221 N 
ATOM     13  C   LIG    1      -35.210  74.376  28.155  0.00  0.00    +0.118 A 
ATOM     14  C   LIG    1      -36.365  74.361  27.481  0.00  0.00    +0.063 A 
BRANCH   9  15
ATOM     15  C   LIG    1      -33.855  79.056  27.458  0.00  0.00    +0.249 C 
ATOM     16  N   LIG    1      -34.922  79.867  27.808  0.00  0.00    -0.308 N 
ATOM     17  H   LIG    1      -35.666  79.448  28.353  0.00  0.00    +0.149 HD
ATOM     18  O   LIG    1      -32.880  79.448  26.846  0.00  0.00    -0.270 OA
BRANCH  16  19
ATOM     19  C   LIG    1      -34.976  81.260  27.488  0.00  0.00    +0.073 C 
ATOM     20  C   LIG    1      -35.498  82.234  28.513  0.00  0.00    +0.024 C 
ATOM     21  C   LIG    1      -36.289  81.962  27.269  0.00  0.00    +0.024 C 
ENDBRANCH  16  19
ENDBRANCH   9  15
ENDBRANCH   2   6
BRANCH   1  23
ATOM     22  C   LIG    1      -39.029  73.138  24.564  0.00  0.00    +0.126 A 
ATOM     23  C   LIG    1      -39.188  74.533  24.396  0.00  0.00    +0.017 A 
ATOM     24  C   LIG    1      -40.424  74.987  23.872  0.00  0.00    +0.047 A 
ATOM     25  C   LIG    1      -41.449  74.107  23.542  0.00  0.00    +0.124 A 
ATOM     26  F   LIG    1      -42.609  74.581  23.071  0.00  0.00    -0.205 F 
ATOM     27  C   LIG    1      -41.290  72.749  23.717  0.00  0.00    +0.042 A 
ATOM     28  C   LIG    1      -40.085  72.268  24.224  0.00  0.00    +0.049 A 
BRANCH  22  29
ATOM     29  O   LIG    1      -37.835  72.681  25.046  0.00  0.00    -0.489 OA
BRANCH  29  30
ATOM     30  C   LIG    1      -37.242  71.495  24.502  0.00  0.00    +0.262 C 
BRANCH  30  31
ATOM     31  C   LIG    1      -36.197  70.897  25.455  0.00  0.00    +0.177 C 
BRANCH  31  32
ATOM     32  O   LIG    1      -35.556  69.744  24.877  0.00  0.00    -0.386 OA
ATOM     33  H   LIG    1      -36.083  68.957  25.100  0.00  0.00    +0.210 HD
ENDBRANCH  31  32
BRANCH  31  34
ATOM     34  C   LIG    1      -36.835  70.462  26.777  0.00  0.00    +0.190 C 
BRANCH  34  35
ATOM     35  O   LIG    1      -38.220  70.185  26.577  0.00  0.00    -0.392 OA
ATOM     36  H   LIG    1      -38.276  69.252  26.289  0.00  0.00    +0.210 HD
ENDBRANCH  34  35
ENDBRANCH  31  34
ENDBRANCH  30  31
ENDBRANCH  29  30
ENDBRANCH  22  29
ENDBRANCH   1  23
TORSDOF 10
ENDMDL
MODEL 6
REMARK VINA RESULT:      -5.3     18.673     21.792
REMARK  Name = pdb/CHEMBL3676076.pdb
REMARK                            x       y       z     vdW  Elec       q    Type
REMARK                         _______ _______ _______ _____ _____    ______ ____
ROOT
ATOM      1  C   LIG    1      -37.648  75.328  25.274  0.00  0.00    +0.109 C 
ATOM      2  N   LIG    1      -37.645  74.901  26.702  0.00  0.00    -0.308 N 
ATOM      3  C   LIG    1      -38.174  76.043  27.467  0.00  0.00    +0.107 C 
ATOM      4  C   LIG    1      -37.717  77.293  26.729  0.00  0.00    +0.021 C 
ATOM      5  C   LIG    1      -37.291  76.820  25.347  0.00  0.00    +0.029 C 
ENDROOT
BRANCH   2   6
ATOM      6  C   LIG    1      -36.513  74.275  27.223  0.00  0.00    +0.126 A 
ATOM      7  N   LIG    1      -35.468  74.974  27.613  0.00  0.00    -0.212 NA
ATOM      8  C   LIG    1      -34.430  74.292  28.212  0.00  0.00    +0.170 A 
ATOM      9  C   LIG    1      -33.206  74.702  28.719  0.00  0.00    +0.100 A 
ATOM     10  C   LIG    1      -32.662  73.536  29.303  0.00  0.00    +0.150 A 
ATOM     11  N   LIG    1      -33.416  72.453  29.115  0.00  0.00    -0.173 NA
ATOM     12  N   LIG    1      -34.482  72.908  28.419  0.00  0.00    -0.221 N 
ATOM     13  C   LIG    1      -35.554  72.164  27.956  0.00  0.00    +0.118 A 
ATOM     14  C   LIG    1      -36.581  72.773  27.354  0.00  0.00    +0.063 A 
BRANCH   9  15
ATOM     15  C   LIG    1      -32.579  76.013  28.702  0.00  0.00    +0.249 C 
ATOM     16  N   LIG    1      -33.397  77.032  28.243  0.00  0.00    -0.308 N 
ATOM     17  H   LIG    1      -34.342  76.786  27.974  0.00  0.00    +0.149 HD
ATOM     18  O   LIG    1      -31.441  76.185  29.097  0.00  0.00    -0.270 OA
BRANCH  16  19
ATOM     19  C   LIG    1      -32.981  78.400  28.197  0.00  0.00    +0.073 C 
ATOM     20  C   LIG    1      -33.899  79.433  27.595  0.00  0.00    +0.024 C 
ATOM     21  C   LIG    1      -32.625  79.067  26.896  0.00  0.00    +0.024 C 
ENDBRANCH  16  19
ENDBRANCH   9  15
ENDBRANCH   2   6
BRANCH   1  23
ATOM     22  C   LIG    1      -39.322  73.490  24.367  0.00  0.00    +0.126 A 
ATOM     23  C   LIG    1      -38.941  74.831  24.606  0.00  0.00    +0.017 A 
ATOM     24  C   LIG    1      -39.885  75.840  24.288  0.00  0.00    +0.047 A 
ATOM     25  C   LIG    1      -41.139  75.534  23.770  0.00  0.00    +0.124 A 
ATOM     26  F   LIG    1      -42.008  76.518  23.505  0.00  0.00    -0.205 F 
ATOM     27  C   LIG    1      -41.506  74.225  23.549  0.00  0.00    +0.042 A 
ATOM     28  C   LIG    1      -40.600  73.208  23.844  0.00  0.00    +0.049 A 
BRANCH  22  29
ATOM     29  O   LIG    1      -38.415  72.507  24.646  0.00  0.00    -0.489 OA
BRANCH  29  30
ATOM     30  C   LIG    1      -38.803  71.128  24.585  0.00  0.00    +0.262 C 
BRANCH  30  31
ATOM     31  C   LIG    1      -37.592  70.208  24.374  0.00  0.00    +0.177 C 
BRANCH  31  32
ATOM     32  O   LIG    1      -36.376  70.965  24.225  0.00  0.00    -0.386 OA
ATOM     33  H   LIG    1      -36.107  70.931  23.290  0.00  0.00    +0.210 HD
ENDBRANCH  31  32
BRANCH  31  34
ATOM     34  C   LIG    1      -37.761  69.347  23.119  0.00  0.00    +0.190 C 
BRANCH  34  35
ATOM     35  O   LIG    1      -36.482  69.025  22.577  0.00  0.00    -0.392 OA
ATOM     36  H   LIG    1      -35.827  69.537  23.093  0.00  0.00    +0.210 HD
ENDBRANCH  34  35
ENDBRANCH  31  34
ENDBRANCH  30  31
ENDBRANCH  29  30
ENDBRANCH  22  29
ENDBRANCH   1  23
TORSDOF 10
ENDMDL
MODEL 7
REMARK VINA RESULT:      -5.2      6.125     10.958
REMARK  Name = pdb/CHEMBL3676076.pdb
REMARK                            x       y       z     vdW  Elec       q    Type
REMARK                         _______ _______ _______ _____ _____    ______ ____
ROOT
ATOM      1  C   LIG    1      -23.954  78.725  15.526  0.00  0.00    +0.109 C 
ATOM      2  N   LIG    1      -23.743  78.098  14.191  0.00  0.00    -0.308 N 
ATOM      3  C   LIG    1      -24.650  78.800  13.266  0.00  0.00    +0.107 C 
ATOM      4  C   LIG    1      -25.877  79.175  14.084  0.00  0.00    +0.021 C 
ATOM      5  C   LIG    1      -25.458  79.039  15.540  0.00  0.00    +0.029 C 
ENDROOT
BRANCH   2   6
ATOM      6  C   LIG    1      -23.707  76.708  14.091  0.00  0.00    +0.126 A 
ATOM      7  N   LIG    1      -23.320  75.962  15.105  0.00  0.00    -0.212 NA
ATOM      8  C   LIG    1      -23.409  74.594  14.964  0.00  0.00    +0.170 A 
ATOM      9  C   LIG    1      -23.087  73.540  15.805  0.00  0.00    +0.100 A 
ATOM     10  C   LIG    1      -23.532  72.391  15.112  0.00  0.00    +0.150 A 
ATOM     11  N   LIG    1      -24.015  72.663  13.900  0.00  0.00    -0.173 NA
ATOM     12  N   LIG    1      -23.909  74.007  13.794  0.00  0.00    -0.221 N 
ATOM     13  C   LIG    1      -24.261  74.788  12.706  0.00  0.00    +0.118 A 
ATOM     14  C   LIG    1      -24.179  76.120  12.783  0.00  0.00    +0.063 A 
BRANCH   9  15
ATOM     15  C   LIG    1      -22.454  73.548  17.113  0.00  0.00    +0.249 C 
ATOM     16  N   LIG    1      -21.137  73.119  17.114  0.00  0.00    -0.308 N 
ATOM     17  H   LIG    1      -20.733  72.852  16.223  0.00  0.00    +0.149 HD
ATOM     18  O   LIG    1      -23.038  73.938  18.106  0.00  0.00    -0.270 OA
BRANCH  16  19
ATOM     19  C   LIG    1      -20.327  73.101  18.292  0.00  0.00    +0.073 C 
ATOM     20  C   LIG    1      -19.153  72.158  18.369  0.00  0.00    +0.024 C 
ATOM     21  C   LIG    1      -20.351  71.933  19.241  0.00  0.00    +0.024 C 
ENDBRANCH  16  19
ENDBRANCH   9  15
ENDBRANCH   2   6
BRANCH   1  23
ATOM     22  C   LIG    1      -21.487  79.655  15.755  0.00  0.00    +0.126 A 
ATOM     23  C   LIG    1      -22.892  79.818  15.739  0.00  0.00    +0.017 A 
ATOM     24  C   LIG    1      -23.393  81.141  15.834  0.00  0.00    +0.047 A 
ATOM     25  C   LIG    1      -22.548  82.240  15.929  0.00  0.00    +0.124 A 
ATOM     26  F   LIG    1      -23.064  83.474  15.994  0.00  0.00    -0.205 F 
ATOM     27  C   LIG    1      -21.180  82.075  15.934  0.00  0.00    +0.042 A 
ATOM     28  C   LIG    1      -20.653  80.788  15.850  0.00  0.00    +0.049 A 
BRANCH  22  29
ATOM     29  O   LIG    1      -20.988  78.386  15.688  0.00  0.00    -0.489 OA
BRANCH  29  30
ATOM     30  C   LIG    1      -19.702  78.145  15.103  0.00  0.00    +0.262 C 
BRANCH  30  31
ATOM     31  C   LIG    1      -19.139  76.777  15.515  0.00  0.00    +0.177 C 
BRANCH  31  32
ATOM     32  O   LIG    1      -20.192  75.854  15.852  0.00  0.00    -0.386 OA
ATOM     33  H   LIG    1      -20.910  76.352  16.280  0.00  0.00    +0.210 HD
ENDBRANCH  31  32
BRANCH  31  34
ATOM     34  C   LIG    1      -18.220  76.900  16.734  0.00  0.00    +0.190 C 
BRANCH  34  35
ATOM     35  O   LIG    1      -18.548  78.077  17.470  0.00  0.00    -0.392 OA
ATOM     36  H   LIG    1      -19.404  78.394  17.118  0.00  0.00    +0.210 HD
ENDBRANCH  34  35
ENDBRANCH  31  34
ENDBRANCH  30  31
ENDBRANCH  29  30
ENDBRANCH  22  29
ENDBRANCH   1  23
TORSDOF 10
ENDMDL
MODEL 8
REMARK VINA RESULT:      -5.1     21.704     23.649
REMARK  Name = pdb/CHEMBL3676076.pdb
REMARK                            x       y       z     vdW  Elec       q    Type
REMARK                         _______ _______ _______ _____ _____    ______ ____
ROOT
ATOM      1  C   LIG    1      -39.023  72.293  24.693  0.00  0.00    +0.109 C 
ATOM      2  N   LIG    1      -39.980  71.347  24.053  0.00  0.00    -0.308 N 
ATOM      3  C   LIG    1      -40.879  70.892  25.127  0.00  0.00    +0.107 C 
ATOM      4  C   LIG    1      -40.039  70.861  26.395  0.00  0.00    +0.021 C 
ATOM      5  C   LIG    1      -38.799  71.687  26.086  0.00  0.00    +0.029 C 
ENDROOT
BRANCH   2   6
ATOM      6  C   LIG    1      -39.491  70.364  23.193  0.00  0.00    +0.126 A 
ATOM      7  N   LIG    1      -38.304  69.827  23.378  0.00  0.00    -0.212 NA
ATOM      8  C   LIG    1      -37.934  68.789  22.549  0.00  0.00    +0.170 A 
ATOM      9  C   LIG    1      -36.781  68.022  22.460  0.00  0.00    +0.100 A 
ATOM     10  C   LIG    1      -37.085  67.047  21.484  0.00  0.00    +0.150 A 
ATOM     11  N   LIG    1      -38.284  67.217  20.926  0.00  0.00    -0.173 NA
ATOM     12  N   LIG    1      -38.791  68.303  21.553  0.00  0.00    -0.221 N 
ATOM     13  C   LIG    1      -40.015  68.905  21.320  0.00  0.00    +0.118 A 
ATOM     14  C   LIG    1      -40.417  69.925  22.085  0.00  0.00    +0.063 A 
BRANCH   9  15
ATOM     15  C   LIG    1      -35.527  68.133  23.185  0.00  0.00    +0.249 C 
ATOM     16  N   LIG    1      -35.624  68.796  24.398  0.00  0.00    -0.308 N 
ATOM     17  H   LIG    1      -36.539  69.131  24.674  0.00  0.00    +0.149 HD
ATOM     18  O   LIG    1      -34.496  67.645  22.762  0.00  0.00    -0.270 OA
BRANCH  16  19
ATOM     19  C   LIG    1      -34.512  68.965  25.281  0.00  0.00    +0.073 C 
ATOM     20  C   LIG    1      -34.641  68.543  26.723  0.00  0.00    +0.024 C 
ATOM     21  C   LIG    1      -34.531  69.997  26.376  0.00  0.00    +0.024 C 
ENDBRANCH  16  19
ENDBRANCH   9  15
ENDBRANCH   2   6
BRANCH   1  23
ATOM     22  C   LIG    1      -38.883  74.930  24.864  0.00  0.00    +0.126 A 
ATOM     23  C   LIG    1      -39.538  73.730  24.502  0.00  0.00    +0.017 A 
ATOM     24  C   LIG    1      -40.765  73.847  23.801  0.00  0.00    +0.047 A 
ATOM     25  C   LIG    1      -41.305  75.084  23.468  0.00  0.00    +0.124 A 
ATOM     26  F   LIG    1      -42.455  75.147  22.785  0.00  0.00    -0.205 F 
ATOM     27  C   LIG    1      -40.656  76.249  23.815  0.00  0.00    +0.042 A 
ATOM     28  C   LIG    1      -39.452  76.171  24.511  0.00  0.00    +0.049 A 
BRANCH  22  29
ATOM     29  O   LIG    1      -37.712  74.836  25.561  0.00  0.00    -0.489 OA
BRANCH  29  30
ATOM     30  C   LIG    1      -37.693  75.061  26.976  0.00  0.00    +0.262 C 
BRANCH  30  31
ATOM     31  C   LIG    1      -36.512  75.948  27.394  0.00  0.00    +0.177 C 
BRANCH  31  32
ATOM     32  O   LIG    1      -35.997  76.699  26.278  0.00  0.00    -0.386 OA
ATOM     33  H   LIG    1      -36.154  76.186  25.466  0.00  0.00    +0.210 HD
ENDBRANCH  31  32
BRANCH  31  34
ATOM     34  C   LIG    1      -35.363  75.111  27.962  0.00  0.00    +0.190 C 
BRANCH  34  35
ATOM     35  O   LIG    1      -34.206  75.255  27.139  0.00  0.00    -0.392 OA
ATOM     36  H   LIG    1      -33.439  75.285  27.745  0.00  0.00    +0.210 HD
ENDBRANCH  34  35
ENDBRANCH  31  34
ENDBRANCH  30  31
ENDBRANCH  29  30
ENDBRANCH  22  29
ENDBRANCH   1  23
TORSDOF 10
ENDMDL
MODEL 9
REMARK VINA RESULT:      -5.0      2.865      6.542
REMARK  Name = pdb/CHEMBL3676076.pdb
REMARK                            x       y       z     vdW  Elec       q    Type
REMARK                         _______ _______ _______ _____ _____    ______ ____
ROOT
ATOM      1  C   LIG    1      -20.525  84.937  11.830  0.00  0.00    +0.109 C 
ATOM      2  N   LIG    1      -19.404  84.938  12.812  0.00  0.00    -0.308 N 
ATOM      3  C   LIG    1      -18.253  85.535  12.113  0.00  0.00    +0.107 C 
ATOM      4  C   LIG    1      -18.389  85.126  10.654  0.00  0.00    +0.021 C 
ATOM      5  C   LIG    1      -19.827  84.655  10.491  0.00  0.00    +0.029 C 
ENDROOT
BRANCH   2   6
ATOM      6  C   LIG    1      -19.151  83.786  13.555  0.00  0.00    +0.126 A 
ATOM      7  N   LIG    1      -20.121  83.148  14.174  0.00  0.00    -0.212 NA
ATOM      8  C   LIG    1      -19.809  81.961  14.802  0.00  0.00    +0.170 A 
ATOM      9  C   LIG    1      -20.565  81.060  15.537  0.00  0.00    +0.100 A 
ATOM     10  C   LIG    1      -19.678  79.991  15.797  0.00  0.00    +0.150 A 
ATOM     11  N   LIG    1      -18.441  80.214  15.354  0.00  0.00    -0.173 NA
ATOM     12  N   LIG    1      -18.512  81.434  14.774  0.00  0.00    -0.221 N 
ATOM     13  C   LIG    1      -17.478  82.132  14.174  0.00  0.00    +0.118 A 
ATOM     14  C   LIG    1      -17.722  83.297  13.563  0.00  0.00    +0.063 A 
BRANCH   9  15
ATOM     15  C   LIG    1      -21.953  81.131  15.961  0.00  0.00    +0.249 C 
ATOM     16  N   LIG    1      -22.841  80.473  15.125  0.00  0.00    -0.308 N 
ATOM     17  H   LIG    1      -22.456  80.002  14.315  0.00  0.00    +0.149 HD
ATOM     18  O   LIG    1      -22.283  81.695  16.987  0.00  0.00    -0.270 OA
BRANCH  16  19
ATOM     19  C   LIG    1      -24.243  80.386  15.395  0.00  0.00    +0.073 C 
ATOM     20  C   LIG    1      -24.885  79.030  15.542  0.00  0.00    +0.024 C 
ATOM     21  C   LIG    1      -25.210  79.887  14.357  0.00  0.00    +0.024 C 
ENDBRANCH  16  19
ENDBRANCH   9  15
ENDBRANCH   2   6
BRANCH   1  23
ATOM     22  C   LIG    1      -22.770  86.338  11.809  0.00  0.00    +0.126 A 
ATOM     23  C   LIG    1      -21.384  86.194  12.051  0.00  0.00    +0.017 A 
ATOM     24  C   LIG    1      -20.714  87.289  12.653  0.00  0.00    +0.047 A 
ATOM     25  C   LIG    1      -21.383  88.456  13.004  0.00  0.00    +0.124 A 
ATOM     26  F   LIG    1      -20.714  89.457  13.591  0.00  0.00    -0.205 F 
ATOM     27  C   LIG    1      -22.735  88.585  12.774  0.00  0.00    +0.042 A 
ATOM     28  C   LIG    1      -23.424  87.531  12.177  0.00  0.00    +0.049 A 
BRANCH  22  29
ATOM     29  O   LIG    1      -23.427  85.302  11.209  0.00  0.00    -0.489 OA
BRANCH  29  30
ATOM     30  C   LIG    1      -24.714  84.889  11.685  0.00  0.00    +0.262 C 
BRANCH  30  31
ATOM     31  C   LIG    1      -24.778  83.369  11.898  0.00  0.00    +0.177 C 
BRANCH  31  32
ATOM     32  O   LIG    1      -25.853  83.007  12.785  0.00  0.00    -0.386 OA
ATOM     33  H   LIG    1      -26.299  82.222  12.421  0.00  0.00    +0.210 HD
ENDBRANCH  31  32
BRANCH  31  34
ATOM     34  C   LIG    1      -23.476  82.838  12.503  0.00  0.00    +0.190 C 
BRANCH  34  35
ATOM     35  O   LIG    1      -23.251  83.443  13.775  0.00  0.00    -0.392 OA
ATOM     36  H   LIG    1      -22.476  82.990  14.163  0.00  0.00    +0.210 HD
ENDBRANCH  34  35
ENDBRANCH  31  34
ENDBRANCH  30  31
ENDBRANCH  29  30
ENDBRANCH  22  29
ENDBRANCH   1  23
TORSDOF 10
ENDMDL
