MODEL 1
REMARK VINA RESULT:      -6.1      0.000      0.000
REMARK  Name = pdb/CHEMBL3671420.pdb
REMARK                            x       y       z     vdW  Elec       q    Type
REMARK                         _______ _______ _______ _____ _____    ______ ____
ROOT
ATOM      1  C   LIG    1      -20.487  76.897  30.622  0.00  0.00    +0.042 A 
ATOM      2  C   LIG    1      -20.620  77.752  31.727  0.00  0.00    +0.038 A 
ATOM      3  C   LIG    1      -19.486  78.222  32.396  0.00  0.00    +0.052 A 
ATOM      4  C   LIG    1      -18.247  77.814  31.906  0.00  0.00    +0.134 A 
ATOM      5  N   LIG    1      -18.085  76.967  30.855  0.00  0.00    -0.261 NA
ATOM      6  C   LIG    1      -19.207  76.512  30.254  0.00  0.00    +0.122 A 
ENDROOT
BRANCH   3   7
ATOM      7  N   LIG    1      -19.676  79.068  33.514  0.00  0.00    -0.284 N 
ATOM      8  H   LIG    1      -19.946  80.023  33.313  0.00  0.00    +0.155 HD
ATOM      9  C   LIG    1      -19.549  78.706  34.847  0.00  0.00    +0.222 C 
ATOM     10  O   LIG    1      -19.274  77.580  35.254  0.00  0.00    -0.275 OA
BRANCH   9  11
ATOM     11  C   LIG    1      -19.758  79.868  35.815  0.00  0.00    +0.131 C 
BRANCH  11  12
ATOM     12  C   LIG    1      -21.205  80.301  35.862  0.00  0.00    -0.038 A 
ATOM     13  C   LIG    1      -22.226  79.360  36.068  0.00  0.00    +0.007 A 
ATOM     14  C   LIG    1      -23.554  79.776  36.185  0.00  0.00    +0.038 A 
ATOM     15  C   LIG    1      -23.859  81.128  36.091  0.00  0.00    +0.123 A 
ATOM     16  F   LIG    1      -25.130  81.529  36.227  0.00  0.00    -0.205 F 
ATOM     17  C   LIG    1      -22.865  82.073  35.869  0.00  0.00    +0.038 A 
ATOM     18  C   LIG    1      -21.539  81.660  35.748  0.00  0.00    +0.007 A 
ENDBRANCH  11  12
ENDBRANCH   9  11
ENDBRANCH   3   7
BRANCH   1  19
ATOM     19  C   LIG    1      -21.697  76.371  29.950  0.00  0.00    +0.197 C 
ATOM     20  O   LIG    1      -21.747  76.447  28.719  0.00  0.00    -0.287 OA
BRANCH  19  28
ATOM     21  N   LIG    1      -24.069  74.474  32.030  0.00  0.00    -0.326 N 
ATOM     22  C   LIG    1      -24.833  75.585  31.730  0.00  0.00    +0.145 A 
ATOM     23  N   LIG    1      -26.088  75.824  32.153  0.00  0.00    -0.218 NA
ATOM     24  C   LIG    1      -26.556  77.007  31.723  0.00  0.00    +0.223 A 
ATOM     25  N   LIG    1      -25.922  77.924  30.969  0.00  0.00    -0.243 NA
ATOM     26  C   LIG    1      -24.663  77.641  30.566  0.00  0.00    +0.124 A 
ATOM     27  C   LIG    1      -24.071  76.433  30.936  0.00  0.00    +0.048 A 
ATOM     28  C   LIG    1      -22.807  75.812  30.717  0.00  0.00    +0.051 A 
ATOM     29  C   LIG    1      -22.879  74.571  31.333  0.00  0.00    +0.100 A 
BRANCH  21  31
ATOM     30  C   LIG    1      -25.707  72.657  32.531  0.00  0.00    +0.034 C 
ATOM     31  C   LIG    1      -24.441  73.407  32.990  0.00  0.00    +0.039 C 
ATOM     32  C   LIG    1      -23.316  72.355  33.155  0.00  0.00    +0.034 C 
ATOM     33  C   LIG    1      -24.689  74.009  34.392  0.00  0.00    +0.034 C 
ENDBRANCH  21  31
ENDBRANCH  19  28
ENDBRANCH   1  19
TORSDOF 6
ENDMDL
MODEL 2
REMARK VINA RESULT:      -5.9     12.213     16.002
REMARK  Name = pdb/CHEMBL3671420.pdb
REMARK                            x       y       z     vdW  Elec       q    Type
REMARK                         _______ _______ _______ _____ _____    ______ ____
ROOT
ATOM      1  C   LIG    1      -33.748  73.376  28.779  0.00  0.00    +0.042 A 
ATOM      2  C   LIG    1      -34.707  73.408  27.756  0.00  0.00    +0.038 A 
ATOM      3  C   LIG    1      -35.433  72.258  27.431  0.00  0.00    +0.052 A 
ATOM      4  C   LIG    1      -35.165  71.111  28.175  0.00  0.00    +0.134 A 
ATOM      5  N   LIG    1      -34.226  71.039  29.154  0.00  0.00    -0.261 NA
ATOM      6  C   LIG    1      -33.525  72.165  29.416  0.00  0.00    +0.122 A 
ENDROOT
BRANCH   3   7
ATOM      7  N   LIG    1      -36.376  72.341  26.380  0.00  0.00    -0.284 N 
ATOM      8  H   LIG    1      -36.039  72.104  25.455  0.00  0.00    +0.155 HD
ATOM      9  C   LIG    1      -37.712  72.692  26.504  0.00  0.00    +0.222 C 
ATOM     10  O   LIG    1      -38.281  72.962  27.558  0.00  0.00    -0.275 OA
BRANCH   9  11
ATOM     11  C   LIG    1      -38.452  72.751  25.169  0.00  0.00    +0.131 C 
BRANCH  11  12
ATOM     12  C   LIG    1      -38.757  74.174  24.764  0.00  0.00    -0.038 A 
ATOM     13  C   LIG    1      -40.012  74.512  24.233  0.00  0.00    +0.007 A 
ATOM     14  C   LIG    1      -40.314  75.842  23.930  0.00  0.00    +0.038 A 
ATOM     15  C   LIG    1      -39.362  76.828  24.152  0.00  0.00    +0.123 A 
ATOM     16  F   LIG    1      -39.660  78.106  23.884  0.00  0.00    -0.205 F 
ATOM     17  C   LIG    1      -38.107  76.511  24.659  0.00  0.00    +0.038 A 
ATOM     18  C   LIG    1      -37.802  75.185  24.959  0.00  0.00    +0.007 A 
ENDBRANCH  11  12
ENDBRANCH   9  11
ENDBRANCH   3   7
BRANCH   1  19
ATOM     19  C   LIG    1      -32.955  74.589  29.083  0.00  0.00    +0.197 C 
ATOM     20  O   LIG    1      -31.823  74.431  29.548  0.00  0.00    -0.287 OA
BRANCH  19  28
ATOM     21  N   LIG    1      -34.707  77.827  29.086  0.00  0.00    -0.326 N 
ATOM     22  C   LIG    1      -33.831  78.017  28.035  0.00  0.00    +0.145 A 
ATOM     23  N   LIG    1      -33.715  79.133  27.292  0.00  0.00    -0.218 NA
ATOM     24  C   LIG    1      -32.750  79.029  26.363  0.00  0.00    +0.223 A 
ATOM     25  N   LIG    1      -31.932  77.986  26.131  0.00  0.00    -0.243 NA
ATOM     26  C   LIG    1      -32.086  76.887  26.902  0.00  0.00    +0.124 A 
ATOM     27  C   LIG    1      -33.067  76.866  27.893  0.00  0.00    +0.048 A 
ATOM     28  C   LIG    1      -33.505  75.925  28.871  0.00  0.00    +0.051 A 
ATOM     29  C   LIG    1      -34.572  76.522  29.525  0.00  0.00    +0.100 A 
BRANCH  21  31
ATOM     30  C   LIG    1      -34.762  80.089  30.140  0.00  0.00    +0.034 C 
ATOM     31  C   LIG    1      -35.581  78.867  29.679  0.00  0.00    +0.039 C 
ATOM     32  C   LIG    1      -36.643  79.378  28.673  0.00  0.00    +0.034 C 
ATOM     33  C   LIG    1      -36.357  78.293  30.886  0.00  0.00    +0.034 C 
ENDBRANCH  21  31
ENDBRANCH  19  28
ENDBRANCH   1  19
TORSDOF 6
ENDMDL
MODEL 3
REMARK VINA RESULT:      -5.9     12.196     16.758
REMARK  Name = pdb/CHEMBL3671420.pdb
REMARK                            x       y       z     vdW  Elec       q    Type
REMARK                         _______ _______ _______ _____ _____    ______ ____
ROOT
ATOM      1  C   LIG    1      -36.752  80.214  29.154  0.00  0.00    +0.042 A 
ATOM      2  C   LIG    1      -37.096  79.575  27.953  0.00  0.00    +0.038 A 
ATOM      3  C   LIG    1      -38.375  79.735  27.410  0.00  0.00    +0.052 A 
ATOM      4  C   LIG    1      -39.259  80.556  28.105  0.00  0.00    +0.134 A 
ATOM      5  N   LIG    1      -38.966  81.167  29.283  0.00  0.00    -0.261 NA
ATOM      6  C   LIG    1      -37.729  80.963  29.790  0.00  0.00    +0.122 A 
ENDROOT
BRANCH   3   7
ATOM      7  N   LIG    1      -38.676  79.056  26.205  0.00  0.00    -0.284 N 
ATOM      8  H   LIG    1      -38.198  79.383  25.375  0.00  0.00    +0.155 HD
ATOM      9  C   LIG    1      -39.539  77.980  26.065  0.00  0.00    +0.222 C 
ATOM     10  O   LIG    1      -40.156  77.440  26.980  0.00  0.00    -0.275 OA
BRANCH   9  11
ATOM     11  C   LIG    1      -39.698  77.511  24.621  0.00  0.00    +0.131 C 
BRANCH  11  12
ATOM     12  C   LIG    1      -39.501  76.019  24.495  0.00  0.00    -0.038 A 
ATOM     13  C   LIG    1      -38.321  75.412  24.952  0.00  0.00    +0.007 A 
ATOM     14  C   LIG    1      -38.177  74.024  24.901  0.00  0.00    +0.038 A 
ATOM     15  C   LIG    1      -39.207  73.246  24.389  0.00  0.00    +0.123 A 
ATOM     16  F   LIG    1      -39.078  71.913  24.362  0.00  0.00    -0.205 F 
ATOM     17  C   LIG    1      -40.376  73.829  23.914  0.00  0.00    +0.038 A 
ATOM     18  C   LIG    1      -40.521  75.214  23.960  0.00  0.00    +0.007 A 
ENDBRANCH  11  12
ENDBRANCH   9  11
ENDBRANCH   3   7
BRANCH   1  19
ATOM     19  C   LIG    1      -35.409  80.000  29.741  0.00  0.00    +0.197 C 
ATOM     20  O   LIG    1      -34.990  80.849  30.533  0.00  0.00    -0.287 OA
BRANCH  19  28
ATOM     21  N   LIG    1      -33.656  76.790  29.325  0.00  0.00    -0.326 N 
ATOM     22  C   LIG    1      -33.173  77.482  28.232  0.00  0.00    +0.145 A 
ATOM     23  N   LIG    1      -32.313  77.011  27.311  0.00  0.00    -0.218 NA
ATOM     24  C   LIG    1      -32.054  77.909  26.346  0.00  0.00    +0.223 A 
ATOM     25  N   LIG    1      -32.555  79.151  26.214  0.00  0.00    -0.243 NA
ATOM     26  C   LIG    1      -33.415  79.582  27.164  0.00  0.00    +0.124 A 
ATOM     27  C   LIG    1      -33.750  78.746  28.229  0.00  0.00    +0.048 A 
ATOM     28  C   LIG    1      -34.596  78.845  29.372  0.00  0.00    +0.051 A 
ATOM     29  C   LIG    1      -34.442  77.654  30.066  0.00  0.00    +0.100 A 
BRANCH  21  31
ATOM     30  C   LIG    1      -33.877  74.473  28.421  0.00  0.00    +0.034 C 
ATOM     31  C   LIG    1      -33.426  75.353  29.604  0.00  0.00    +0.039 C 
ATOM     32  C   LIG    1      -31.931  75.042  29.866  0.00  0.00    +0.034 C 
ATOM     33  C   LIG    1      -34.193  74.923  30.876  0.00  0.00    +0.034 C 
ENDBRANCH  21  31
ENDBRANCH  19  28
ENDBRANCH   1  19
TORSDOF 6
ENDMDL
MODEL 4
REMARK VINA RESULT:      -5.8      4.749      9.288
REMARK  Name = pdb/CHEMBL3671420.pdb
REMARK                            x       y       z     vdW  Elec       q    Type
REMARK                         _______ _______ _______ _____ _____    ______ ____
ROOT
ATOM      1  C   LIG    1      -25.137  74.326  31.895  0.00  0.00    +0.042 A 
ATOM      2  C   LIG    1      -25.149  73.341  30.896  0.00  0.00    +0.038 A 
ATOM      3  C   LIG    1      -25.222  71.987  31.240  0.00  0.00    +0.052 A 
ATOM      4  C   LIG    1      -25.293  71.683  32.598  0.00  0.00    +0.134 A 
ATOM      5  N   LIG    1      -25.258  72.611  33.590  0.00  0.00    -0.261 NA
ATOM      6  C   LIG    1      -25.157  73.907  33.216  0.00  0.00    +0.122 A 
ENDROOT
BRANCH   3   7
ATOM      7  N   LIG    1      -25.215  71.034  30.195  0.00  0.00    -0.284 N 
ATOM      8  H   LIG    1      -26.089  70.904  29.702  0.00  0.00    +0.155 HD
ATOM      9  C   LIG    1      -24.125  70.286  29.777  0.00  0.00    +0.222 C 
ATOM     10  O   LIG    1      -22.991  70.361  30.241  0.00  0.00    -0.275 OA
BRANCH   9  11
ATOM     11  C   LIG    1      -24.459  69.295  28.664  0.00  0.00    +0.131 C 
BRANCH  11  12
ATOM     12  C   LIG    1      -24.629  69.990  27.332  0.00  0.00    -0.038 A 
ATOM     13  C   LIG    1      -23.657  70.890  26.867  0.00  0.00    +0.007 A 
ATOM     14  C   LIG    1      -23.783  71.471  25.603  0.00  0.00    +0.038 A 
ATOM     15  C   LIG    1      -24.880  71.156  24.811  0.00  0.00    +0.123 A 
ATOM     16  F   LIG    1      -24.988  71.695  23.589  0.00  0.00    -0.205 F 
ATOM     17  C   LIG    1      -25.861  70.282  25.261  0.00  0.00    +0.038 A 
ATOM     18  C   LIG    1      -25.740  69.703  26.523  0.00  0.00    +0.007 A 
ENDBRANCH  11  12
ENDBRANCH   9  11
ENDBRANCH   3   7
BRANCH   1  19
ATOM     19  C   LIG    1      -25.015  75.753  31.519  0.00  0.00    +0.197 C 
ATOM     20  O   LIG    1      -25.977  76.280  30.954  0.00  0.00    -0.287 OA
BRANCH  19  28
ATOM     21  N   LIG    1      -22.168  77.718  32.778  0.00  0.00    -0.326 N 
ATOM     22  C   LIG    1      -21.721  77.417  31.507  0.00  0.00    +0.145 A 
ATOM     23  N   LIG    1      -20.537  77.775  30.976  0.00  0.00    -0.218 NA
ATOM     24  C   LIG    1      -20.373  77.305  29.728  0.00  0.00    +0.223 A 
ATOM     25  N   LIG    1      -21.222  76.545  29.011  0.00  0.00    -0.243 NA
ATOM     26  C   LIG    1      -22.399  76.211  29.584  0.00  0.00    +0.124 A 
ATOM     27  C   LIG    1      -22.694  76.654  30.874  0.00  0.00    +0.048 A 
ATOM     28  C   LIG    1      -23.787  76.502  31.776  0.00  0.00    +0.051 A 
ATOM     29  C   LIG    1      -23.462  77.245  32.901  0.00  0.00    +0.100 A 
BRANCH  21  31
ATOM     30  C   LIG    1      -20.107  79.043  33.260  0.00  0.00    +0.034 C 
ATOM     31  C   LIG    1      -21.366  78.370  33.841  0.00  0.00    +0.039 C 
ATOM     32  C   LIG    1      -22.169  79.463  34.589  0.00  0.00    +0.034 C 
ATOM     33  C   LIG    1      -20.941  77.332  34.905  0.00  0.00    +0.034 C 
ENDBRANCH  21  31
ENDBRANCH  19  28
ENDBRANCH   1  19
TORSDOF 6
ENDMDL
MODEL 5
REMARK VINA RESULT:      -5.8      2.867      7.782
REMARK  Name = pdb/CHEMBL3671420.pdb
REMARK                            x       y       z     vdW  Elec       q    Type
REMARK                         _______ _______ _______ _____ _____    ______ ____
ROOT
ATOM      1  C   LIG    1      -18.851  78.524  34.882  0.00  0.00    +0.042 A 
ATOM      2  C   LIG    1      -19.608  78.258  33.731  0.00  0.00    +0.038 A 
ATOM      3  C   LIG    1      -19.001  78.253  32.471  0.00  0.00    +0.052 A 
ATOM      4  C   LIG    1      -17.632  78.507  32.429  0.00  0.00    +0.134 A 
ATOM      5  N   LIG    1      -16.875  78.794  33.520  0.00  0.00    -0.261 NA
ATOM      6  C   LIG    1      -17.506  78.818  34.716  0.00  0.00    +0.122 A 
ENDROOT
BRANCH   3   7
ATOM      7  N   LIG    1      -19.813  77.995  31.342  0.00  0.00    -0.284 N 
ATOM      8  H   LIG    1      -20.444  78.737  31.065  0.00  0.00    +0.155 HD
ATOM      9  C   LIG    1      -19.807  76.840  30.575  0.00  0.00    +0.222 C 
ATOM     10  O   LIG    1      -19.070  75.873  30.753  0.00  0.00    -0.275 OA
BRANCH   9  11
ATOM     11  C   LIG    1      -20.849  76.844  29.460  0.00  0.00    +0.131 C 
BRANCH  11  12
ATOM     12  C   LIG    1      -22.248  76.672  30.004  0.00  0.00    -0.038 A 
ATOM     13  C   LIG    1      -23.204  77.690  29.853  0.00  0.00    +0.007 A 
ATOM     14  C   LIG    1      -24.515  77.495  30.291  0.00  0.00    +0.038 A 
ATOM     15  C   LIG    1      -24.868  76.289  30.883  0.00  0.00    +0.123 A 
ATOM     16  F   LIG    1      -26.132  76.094  31.282  0.00  0.00    -0.205 F 
ATOM     17  C   LIG    1      -23.932  75.277  31.059  0.00  0.00    +0.038 A 
ATOM     18  C   LIG    1      -22.621  75.470  30.626  0.00  0.00    +0.007 A 
ENDBRANCH  11  12
ENDBRANCH   9  11
ENDBRANCH   3   7
BRANCH   1  19
ATOM     19  C   LIG    1      -19.515  78.570  36.204  0.00  0.00    +0.197 C 
ATOM     20  O   LIG    1      -19.700  77.499  36.789  0.00  0.00    -0.287 OA
BRANCH  19  28
ATOM     21  N   LIG    1      -20.094  81.720  38.019  0.00  0.00    -0.326 N 
ATOM     22  C   LIG    1      -21.173  81.726  37.157  0.00  0.00    +0.145 A 
ATOM     23  N   LIG    1      -22.114  82.685  37.070  0.00  0.00    -0.218 NA
ATOM     24  C   LIG    1      -23.020  82.426  36.112  0.00  0.00    +0.223 A 
ATOM     25  N   LIG    1      -23.063  81.373  35.276  0.00  0.00    -0.243 NA
ATOM     26  C   LIG    1      -22.098  80.434  35.401  0.00  0.00    +0.124 A 
ATOM     27  C   LIG    1      -21.108  80.582  36.372  0.00  0.00    +0.048 A 
ATOM     28  C   LIG    1      -19.966  79.834  36.782  0.00  0.00    +0.051 A 
ATOM     29  C   LIG    1      -19.421  80.523  37.855  0.00  0.00    +0.100 A 
BRANCH  21  31
ATOM     30  C   LIG    1      -19.586  84.162  38.125  0.00  0.00    +0.034 C 
ATOM     31  C   LIG    1      -19.695  82.838  38.907  0.00  0.00    +0.039 C 
ATOM     32  C   LIG    1      -20.712  83.062  40.054  0.00  0.00    +0.034 C 
ATOM     33  C   LIG    1      -18.336  82.533  39.577  0.00  0.00    +0.034 C 
ENDBRANCH  21  31
ENDBRANCH  19  28
ENDBRANCH   1  19
TORSDOF 6
ENDMDL
MODEL 6
REMARK VINA RESULT:      -5.8      2.681      6.157
REMARK  Name = pdb/CHEMBL3671420.pdb
REMARK                            x       y       z     vdW  Elec       q    Type
REMARK                         _______ _______ _______ _____ _____    ______ ____
ROOT
ATOM      1  C   LIG    1      -18.769  78.709  34.225  0.00  0.00    +0.042 A 
ATOM      2  C   LIG    1      -19.640  78.395  33.171  0.00  0.00    +0.038 A 
ATOM      3  C   LIG    1      -19.132  78.004  31.928  0.00  0.00    +0.052 A 
ATOM      4  C   LIG    1      -17.746  77.934  31.805  0.00  0.00    +0.134 A 
ATOM      5  N   LIG    1      -16.875  78.256  32.798  0.00  0.00    -0.261 NA
ATOM      6  C   LIG    1      -17.406  78.658  33.974  0.00  0.00    +0.122 A 
ENDROOT
BRANCH   3   7
ATOM      7  N   LIG    1      -20.053  77.714  30.895  0.00  0.00    -0.284 N 
ATOM      8  H   LIG    1      -20.527  78.507  30.481  0.00  0.00    +0.155 HD
ATOM      9  C   LIG    1      -20.347  76.457  30.388  0.00  0.00    +0.222 C 
ATOM     10  O   LIG    1      -19.826  75.406  30.751  0.00  0.00    -0.275 OA
BRANCH   9  11
ATOM     11  C   LIG    1      -21.435  76.471  29.317  0.00  0.00    +0.131 C 
BRANCH  11  12
ATOM     12  C   LIG    1      -22.810  76.634  29.922  0.00  0.00    -0.038 A 
ATOM     13  C   LIG    1      -23.428  75.564  30.589  0.00  0.00    +0.007 A 
ATOM     14  C   LIG    1      -24.666  75.743  31.211  0.00  0.00    +0.038 A 
ATOM     15  C   LIG    1      -25.285  76.984  31.161  0.00  0.00    +0.123 A 
ATOM     16  F   LIG    1      -26.461  77.161  31.777  0.00  0.00    -0.205 F 
ATOM     17  C   LIG    1      -24.699  78.051  30.490  0.00  0.00    +0.038 A 
ATOM     18  C   LIG    1      -23.465  77.875  29.865  0.00  0.00    +0.007 A 
ENDBRANCH  11  12
ENDBRANCH   9  11
ENDBRANCH   3   7
BRANCH   1  19
ATOM     19  C   LIG    1      -19.319  79.165  35.523  0.00  0.00    +0.197 C 
ATOM     20  O   LIG    1      -18.523  79.357  36.446  0.00  0.00    -0.287 OA
BRANCH  19  28
ATOM     21  N   LIG    1      -22.973  78.967  35.927  0.00  0.00    -0.326 N 
ATOM     22  C   LIG    1      -22.768  80.313  36.159  0.00  0.00    +0.145 A 
ATOM     23  N   LIG    1      -23.715  81.219  36.464  0.00  0.00    -0.218 NA
ATOM     24  C   LIG    1      -23.204  82.445  36.666  0.00  0.00    +0.223 A 
ATOM     25  N   LIG    1      -21.914  82.824  36.610  0.00  0.00    -0.243 NA
ATOM     26  C   LIG    1      -20.997  81.880  36.298  0.00  0.00    +0.124 A 
ATOM     27  C   LIG    1      -21.407  80.570  36.050  0.00  0.00    +0.048 A 
ATOM     28  C   LIG    1      -20.755  79.348  35.714  0.00  0.00    +0.051 A 
ATOM     29  C   LIG    1      -21.762  78.406  35.561  0.00  0.00    +0.100 A 
BRANCH  21  31
ATOM     30  C   LIG    1      -25.307  78.703  35.084  0.00  0.00    +0.034 C 
ATOM     31  C   LIG    1      -24.254  78.246  36.113  0.00  0.00    +0.039 C 
ATOM     32  C   LIG    1      -24.089  76.714  35.954  0.00  0.00    +0.034 C 
ATOM     33  C   LIG    1      -24.802  78.484  37.539  0.00  0.00    +0.034 C 
ENDBRANCH  21  31
ENDBRANCH  19  28
ENDBRANCH   1  19
TORSDOF 6
ENDMDL
MODEL 7
REMARK VINA RESULT:      -5.8     20.434     22.460
REMARK  Name = pdb/CHEMBL3671420.pdb
REMARK                            x       y       z     vdW  Elec       q    Type
REMARK                         _______ _______ _______ _____ _____    ______ ____
ROOT
ATOM      1  C   LIG    1      -21.074  86.714  14.018  0.00  0.00    +0.042 A 
ATOM      2  C   LIG    1      -21.521  87.836  13.303  0.00  0.00    +0.038 A 
ATOM      3  C   LIG    1      -20.619  88.609  12.566  0.00  0.00    +0.052 A 
ATOM      4  C   LIG    1      -19.287  88.203  12.571  0.00  0.00    +0.134 A 
ATOM      5  N   LIG    1      -18.817  87.139  13.273  0.00  0.00    -0.261 NA
ATOM      6  C   LIG    1      -19.716  86.435  13.997  0.00  0.00    +0.122 A 
ENDROOT
BRANCH   3   7
ATOM      7  N   LIG    1      -21.120  89.738  11.876  0.00  0.00    -0.284 N 
ATOM      8  H   LIG    1      -21.047  90.626  12.357  0.00  0.00    +0.155 HD
ATOM      9  C   LIG    1      -21.675  89.742  10.606  0.00  0.00    +0.222 C 
ATOM     10  O   LIG    1      -21.791  88.760   9.878  0.00  0.00    -0.275 OA
BRANCH   9  11
ATOM     11  C   LIG    1      -22.181  91.115  10.167  0.00  0.00    +0.131 C 
BRANCH  11  12
ATOM     12  C   LIG    1      -23.539  91.422  10.754  0.00  0.00    -0.038 A 
ATOM     13  C   LIG    1      -24.333  90.397  11.291  0.00  0.00    +0.007 A 
ATOM     14  C   LIG    1      -25.554  90.698  11.900  0.00  0.00    +0.038 A 
ATOM     15  C   LIG    1      -25.980  92.018  11.965  0.00  0.00    +0.123 A 
ATOM     16  F   LIG    1      -27.140  92.308  12.569  0.00  0.00    -0.205 F 
ATOM     17  C   LIG    1      -25.217  93.044  11.422  0.00  0.00    +0.038 A 
ATOM     18  C   LIG    1      -24.000  92.748  10.811  0.00  0.00    +0.007 A 
ENDBRANCH  11  12
ENDBRANCH   9  11
ENDBRANCH   3   7
BRANCH   1  19
ATOM     19  C   LIG    1      -22.032  85.930  14.830  0.00  0.00    +0.197 C 
ATOM     20  O   LIG    1      -22.532  86.481  15.815  0.00  0.00    -0.287 OA
BRANCH  19  28
ATOM     21  N   LIG    1      -22.669  82.310  14.626  0.00  0.00    -0.326 N 
ATOM     22  C   LIG    1      -23.062  82.705  13.362  0.00  0.00    +0.145 A 
ATOM     23  N   LIG    1      -23.553  81.905  12.397  0.00  0.00    -0.218 NA
ATOM     24  C   LIG    1      -23.878  82.586  11.286  0.00  0.00    +0.223 A 
ATOM     25  N   LIG    1      -23.780  83.910  11.067  0.00  0.00    -0.243 NA
ATOM     26  C   LIG    1      -23.281  84.673  12.064  0.00  0.00    +0.124 A 
ATOM     27  C   LIG    1      -22.890  84.080  13.264  0.00  0.00    +0.048 A 
ATOM     28  C   LIG    1      -22.349  84.544  14.499  0.00  0.00    +0.051 A 
ATOM     29  C   LIG    1      -22.145  83.413  15.276  0.00  0.00    +0.100 A 
BRANCH  21  31
ATOM     30  C   LIG    1      -24.324  80.513  15.137  0.00  0.00    +0.034 C 
ATOM     31  C   LIG    1      -22.849  80.955  15.200  0.00  0.00    +0.039 C 
ATOM     32  C   LIG    1      -22.015  79.888  14.447  0.00  0.00    +0.034 C 
ATOM     33  C   LIG    1      -22.373  80.927  16.670  0.00  0.00    +0.034 C 
ENDBRANCH  21  31
ENDBRANCH  19  28
ENDBRANCH   1  19
TORSDOF 6
ENDMDL
MODEL 8
REMARK VINA RESULT:      -5.7     16.081     18.799
REMARK  Name = pdb/CHEMBL3671420.pdb
REMARK                            x       y       z     vdW  Elec       q    Type
REMARK                         _______ _______ _______ _____ _____    ______ ____
ROOT
ATOM      1  C   LIG    1      -20.779  80.579  16.026  0.00  0.00    +0.042 A 
ATOM      2  C   LIG    1      -20.675  79.181  16.084  0.00  0.00    +0.038 A 
ATOM      3  C   LIG    1      -19.439  78.556  15.891  0.00  0.00    +0.052 A 
ATOM      4  C   LIG    1      -18.342  79.383  15.658  0.00  0.00    +0.134 A 
ATOM      5  N   LIG    1      -18.413  80.737  15.570  0.00  0.00    -0.261 NA
ATOM      6  C   LIG    1      -19.632  81.300  15.732  0.00  0.00    +0.122 A 
ENDROOT
BRANCH   3   7
ATOM      7  N   LIG    1      -19.392  77.143  15.944  0.00  0.00    -0.284 N 
ATOM      8  H   LIG    1      -19.018  76.738  16.793  0.00  0.00    +0.155 HD
ATOM      9  C   LIG    1      -19.829  76.272  14.958  0.00  0.00    +0.222 C 
ATOM     10  O   LIG    1      -20.346  76.603  13.895  0.00  0.00    -0.275 OA
BRANCH   9  11
ATOM     11  C   LIG    1      -19.582  74.802  15.292  0.00  0.00    +0.131 C 
BRANCH  11  12
ATOM     12  C   LIG    1      -20.535  74.304  16.353  0.00  0.00    -0.038 A 
ATOM     13  C   LIG    1      -21.908  74.584  16.268  0.00  0.00    +0.007 A 
ATOM     14  C   LIG    1      -22.794  74.058  17.211  0.00  0.00    +0.038 A 
ATOM     15  C   LIG    1      -22.308  73.260  18.238  0.00  0.00    +0.123 A 
ATOM     16  F   LIG    1      -23.160  72.736  19.128  0.00  0.00    -0.205 F 
ATOM     17  C   LIG    1      -20.950  72.986  18.350  0.00  0.00    +0.038 A 
ATOM     18  C   LIG    1      -20.063  73.512  17.412  0.00  0.00    +0.007 A 
ENDBRANCH  11  12
ENDBRANCH   9  11
ENDBRANCH   3   7
BRANCH   1  19
ATOM     19  C   LIG    1      -22.102  81.225  16.187  0.00  0.00    +0.197 C 
ATOM     20  O   LIG    1      -22.344  81.771  17.267  0.00  0.00    -0.287 OA
BRANCH  19  28
ATOM     21  N   LIG    1      -24.256  81.629  13.229  0.00  0.00    -0.326 N 
ATOM     22  C   LIG    1      -24.861  80.545  13.834  0.00  0.00    +0.145 A 
ATOM     23  N   LIG    1      -25.933  79.875  13.371  0.00  0.00    -0.218 NA
ATOM     24  C   LIG    1      -26.271  78.843  14.162  0.00  0.00    +0.223 A 
ATOM     25  N   LIG    1      -25.667  78.434  15.293  0.00  0.00    -0.243 NA
ATOM     26  C   LIG    1      -24.595  79.138  15.720  0.00  0.00    +0.124 A 
ATOM     27  C   LIG    1      -24.156  80.243  14.992  0.00  0.00    +0.048 A 
ATOM     28  C   LIG    1      -23.097  81.189  15.119  0.00  0.00    +0.051 A 
ATOM     29  C   LIG    1      -23.247  82.077  14.064  0.00  0.00    +0.100 A 
BRANCH  21  31
ATOM     30  C   LIG    1      -25.922  82.939  11.909  0.00  0.00    +0.034 C 
ATOM     31  C   LIG    1      -24.589  82.165  11.888  0.00  0.00    +0.039 C 
ATOM     32  C   LIG    1      -23.501  83.135  11.362  0.00  0.00    +0.034 C 
ATOM     33  C   LIG    1      -24.687  81.015  10.860  0.00  0.00    +0.034 C 
ENDBRANCH  21  31
ENDBRANCH  19  28
ENDBRANCH   1  19
TORSDOF 6
ENDMDL
MODEL 9
REMARK VINA RESULT:      -5.7      5.117      9.370
REMARK  Name = pdb/CHEMBL3671420.pdb
REMARK                            x       y       z     vdW  Elec       q    Type
REMARK                         _______ _______ _______ _____ _____    ______ ____
ROOT
ATOM      1  C   LIG    1      -26.281  76.325  31.607  0.00  0.00    +0.042 A 
ATOM      2  C   LIG    1      -27.676  76.448  31.683  0.00  0.00    +0.038 A 
ATOM      3  C   LIG    1      -28.465  75.345  32.024  0.00  0.00    +0.052 A 
ATOM      4  C   LIG    1      -27.800  74.151  32.293  0.00  0.00    +0.134 A 
ATOM      5  N   LIG    1      -26.453  73.992  32.204  0.00  0.00    -0.261 NA
ATOM      6  C   LIG    1      -25.729  75.075  31.841  0.00  0.00    +0.122 A 
ENDROOT
BRANCH   3   7
ATOM      7  N   LIG    1      -29.868  75.519  32.071  0.00  0.00    -0.284 N 
ATOM      8  H   LIG    1      -30.311  75.354  32.966  0.00  0.00    +0.155 HD
ATOM      9  C   LIG    1      -30.680  75.912  31.017  0.00  0.00    +0.222 C 
ATOM     10  O   LIG    1      -30.291  76.193  29.887  0.00  0.00    -0.275 OA
BRANCH   9  11
ATOM     11  C   LIG    1      -32.164  75.946  31.373  0.00  0.00    +0.131 C 
BRANCH  11  12
ATOM     12  C   LIG    1      -33.031  76.022  30.138  0.00  0.00    -0.038 A 
ATOM     13  C   LIG    1      -33.663  77.224  29.781  0.00  0.00    +0.007 A 
ATOM     14  C   LIG    1      -34.401  77.307  28.598  0.00  0.00    +0.038 A 
ATOM     15  C   LIG    1      -34.512  76.191  27.779  0.00  0.00    +0.123 A 
ATOM     16  F   LIG    1      -35.201  76.278  26.634  0.00  0.00    -0.205 F 
ATOM     17  C   LIG    1      -33.911  74.987  28.125  0.00  0.00    +0.038 A 
ATOM     18  C   LIG    1      -33.176  74.899  29.306  0.00  0.00    +0.007 A 
ENDBRANCH  11  12
ENDBRANCH   9  11
ENDBRANCH   3   7
BRANCH   1  19
ATOM     19  C   LIG    1      -25.461  77.489  31.200  0.00  0.00    +0.197 C 
ATOM     20  O   LIG    1      -25.996  78.346  30.492  0.00  0.00    -0.287 OA
BRANCH  19  28
ATOM     21  N   LIG    1      -22.171  77.934  32.791  0.00  0.00    -0.326 N 
ATOM     22  C   LIG    1      -21.786  77.510  31.534  0.00  0.00    +0.145 A 
ATOM     23  N   LIG    1      -20.522  77.321  31.113  0.00  0.00    -0.218 NA
ATOM     24  C   LIG    1      -20.466  76.871  29.848  0.00  0.00    +0.223 A 
ATOM     25  N   LIG    1      -21.491  76.595  29.022  0.00  0.00    -0.243 NA
ATOM     26  C   LIG    1      -22.743  76.800  29.487  0.00  0.00    +0.124 A 
ATOM     27  C   LIG    1      -22.932  77.283  30.783  0.00  0.00    +0.048 A 
ATOM     28  C   LIG    1      -24.059  77.603  31.594  0.00  0.00    +0.051 A 
ATOM     29  C   LIG    1      -23.546  78.083  32.790  0.00  0.00    +0.100 A 
BRANCH  21  31
ATOM     30  C   LIG    1      -22.026  78.697  35.163  0.00  0.00    +0.034 C 
ATOM     31  C   LIG    1      -21.267  78.123  33.950  0.00  0.00    +0.039 C 
ATOM     32  C   LIG    1      -20.616  76.792  34.403  0.00  0.00    +0.034 C 
ATOM     33  C   LIG    1      -20.108  79.076  33.579  0.00  0.00    +0.034 C 
ENDBRANCH  21  31
ENDBRANCH  19  28
ENDBRANCH   1  19
TORSDOF 6
ENDMDL
