MODEL 1
REMARK VINA RESULT:      -7.5      0.000      0.000
REMARK  Name = pdb/CHEMBL3895805.pdb
REMARK                            x       y       z     vdW  Elec       q    Type
REMARK                         _______ _______ _______ _____ _____    ______ ____
ROOT
ATOM      1  C   LIG    1      -29.135  82.979  36.659  0.00  0.00    +0.105 A 
ATOM      2  C   LIG    1      -27.796  83.003  36.994  0.00  0.00    +0.145 A 
ATOM      3  N   LIG    1      -27.049  81.909  37.299  0.00  0.00    -0.201 NA
ATOM      4  C   LIG    1      -27.672  80.717  37.216  0.00  0.00    +0.323 A 
ATOM      5  N   LIG    1      -28.972  80.553  36.951  0.00  0.00    -0.201 NA
ATOM      6  C   LIG    1      -29.671  81.698  36.703  0.00  0.00    +0.145 A 
ENDROOT
BRANCH   1   8
ATOM      7  C   LIG    1      -29.911  84.694  35.213  0.00  0.00    +0.285 C 
ATOM      8  N   LIG    1      -29.849  84.167  36.411  0.00  0.00    -0.196 NA
BRANCH   7   9
ATOM      9  O   LIG    1      -29.261  84.110  34.193  0.00  0.00    -0.481 OA
ATOM     10  H   LIG    1      -29.137  83.165  34.343  0.00  0.00    +0.295 HD
ENDBRANCH   7   9
BRANCH   7  11
ATOM     11  N   LIG    1      -30.602  85.779  34.792  0.00  0.00    -0.269 N 
ATOM     12  H   LIG    1      -31.349  86.143  35.372  0.00  0.00    +0.157 HD
BRANCH  11  13
ATOM     13  C   LIG    1      -30.639  86.369  33.506  0.00  0.00    +0.043 A 
ATOM     14  C   LIG    1      -29.739  87.427  33.176  0.00  0.00    +0.005 A 
ATOM     15  C   LIG    1      -29.879  88.015  31.899  0.00  0.00    +0.011 A 
ATOM     16  C   LIG    1      -30.852  87.595  30.990  0.00  0.00    +0.013 A 
ATOM     17  C   LIG    1      -31.708  86.540  31.311  0.00  0.00    +0.057 A 
ATOM     18  C   LIG    1      -31.578  85.921  32.556  0.00  0.00    +0.036 A 
BRANCH  14  19
ATOM     19  C   LIG    1      -28.667  87.927  34.089  0.00  0.00    +0.002 A 
ATOM     20  C   LIG    1      -27.501  87.192  34.334  0.00  0.00    +0.119 A 
ATOM     21  N   LIG    1      -26.495  87.563  35.171  0.00  0.00    -0.263 NA
ATOM     22  C   LIG    1      -26.629  88.740  35.803  0.00  0.00    +0.111 A 
ATOM     23  C   LIG    1      -27.725  89.565  35.636  0.00  0.00    +0.020 A 
ATOM     24  C   LIG    1      -28.756  89.137  34.798  0.00  0.00    +0.011 A 
ENDBRANCH  14  19
BRANCH  17  25
ATOM     25  C   LIG    1      -32.767  86.096  30.334  0.00  0.00    +0.417 C 
ATOM     26  F   LIG    1      -32.272  85.897  29.082  0.00  0.00    -0.166 F 
ATOM     27  F   LIG    1      -33.760  87.020  30.199  0.00  0.00    -0.166 F 
ATOM     28  F   LIG    1      -33.389  84.935  30.682  0.00  0.00    -0.166 F 
ENDBRANCH  17  25
ENDBRANCH  11  13
ENDBRANCH   7  11
ENDBRANCH   1   8
BRANCH   4  29
ATOM     29  O   LIG    1      -26.943  79.537  37.390  0.00  0.00    -0.424 OA
BRANCH  29  30
ATOM     30  C   LIG    1      -26.314  79.007  36.287  0.00  0.00    +0.132 A 
ATOM     31  C   LIG    1      -26.883  78.016  35.491  0.00  0.00    +0.047 A 
ATOM     32  C   LIG    1      -26.267  77.614  34.306  0.00  0.00    +0.012 A 
ATOM     33  C   LIG    1      -25.029  78.146  33.907  0.00  0.00    -0.016 A 
ATOM     34  C   LIG    1      -24.410  79.051  34.794  0.00  0.00    +0.012 A 
ATOM     35  C   LIG    1      -25.039  79.471  35.977  0.00  0.00    +0.047 A 
BRANCH  33  36
ATOM     36  C   LIG    1      -24.424  77.776  32.603  0.00  0.00    +0.001 A 
ATOM     37  C   LIG    1      -23.025  77.803  32.421  0.00  0.00    +0.023 A 
ATOM     38  C   LIG    1      -22.678  77.440  31.128  0.00  0.00    +0.039 A 
ATOM     39  C   LIG    1      -21.405  77.363  30.633  0.00  0.00    +0.115 A 
ATOM     40  N   LIG    1      -21.562  76.971  29.333  0.00  0.00    -0.282 N 
ATOM     41  H   LIG    1      -20.838  76.805  28.641  0.00  0.00    +0.188 HD
ATOM     42  N   LIG    1      -22.843  76.783  28.953  0.00  0.00    -0.154 NA
ATOM     43  C   LIG    1      -23.541  77.070  30.057  0.00  0.00    +0.181 A 
ATOM     44  N   LIG    1      -24.887  77.032  30.212  0.00  0.00    -0.234 NA
ATOM     45  C   LIG    1      -25.249  77.396  31.489  0.00  0.00    +0.121 A 
ENDBRANCH  33  36
ENDBRANCH  29  30
ENDBRANCH   4  29
TORSDOF 9
ENDMDL
MODEL 2
REMARK VINA RESULT:      -7.3      2.712      4.055
REMARK  Name = pdb/CHEMBL3895805.pdb
REMARK                            x       y       z     vdW  Elec       q    Type
REMARK                         _______ _______ _______ _____ _____    ______ ____
ROOT
ATOM      1  C   LIG    1      -27.985  83.869  36.571  0.00  0.00    +0.105 A 
ATOM      2  C   LIG    1      -26.613  84.014  36.497  0.00  0.00    +0.145 A 
ATOM      3  N   LIG    1      -25.710  83.051  36.818  0.00  0.00    -0.201 NA
ATOM      4  C   LIG    1      -26.214  81.857  37.189  0.00  0.00    +0.323 A 
ATOM      5  N   LIG    1      -27.516  81.596  37.349  0.00  0.00    -0.201 NA
ATOM      6  C   LIG    1      -28.363  82.623  37.055  0.00  0.00    +0.145 A 
ENDROOT
BRANCH   1   8
ATOM      7  C   LIG    1      -29.343  85.109  35.070  0.00  0.00    +0.285 C 
ATOM      8  N   LIG    1      -28.851  84.939  36.272  0.00  0.00    -0.196 NA
BRANCH   7   9
ATOM      9  O   LIG    1      -29.002  84.263  34.083  0.00  0.00    -0.481 OA
ATOM     10  H   LIG    1      -29.777  83.876  33.662  0.00  0.00    +0.295 HD
ENDBRANCH   7   9
BRANCH   7  11
ATOM     11  N   LIG    1      -30.233  86.032  34.634  0.00  0.00    -0.269 N 
ATOM     12  H   LIG    1      -31.190  85.750  34.461  0.00  0.00    +0.157 HD
BRANCH  11  13
ATOM     13  C   LIG    1      -29.992  87.324  34.109  0.00  0.00    +0.043 A 
ATOM     14  C   LIG    1      -30.475  87.672  32.811  0.00  0.00    +0.005 A 
ATOM     15  C   LIG    1      -30.138  88.954  32.323  0.00  0.00    +0.011 A 
ATOM     16  C   LIG    1      -29.365  89.852  33.062  0.00  0.00    +0.013 A 
ATOM     17  C   LIG    1      -28.923  89.513  34.343  0.00  0.00    +0.057 A 
ATOM     18  C   LIG    1      -29.261  88.263  34.864  0.00  0.00    +0.036 A 
BRANCH  14  19
ATOM     19  C   LIG    1      -31.313  86.772  31.963  0.00  0.00    +0.002 A 
ATOM     20  C   LIG    1      -30.878  86.316  30.713  0.00  0.00    +0.119 A 
ATOM     21  N   LIG    1      -31.590  85.522  29.870  0.00  0.00    -0.263 NA
ATOM     22  C   LIG    1      -32.808  85.133  30.281  0.00  0.00    +0.111 A 
ATOM     23  C   LIG    1      -33.347  85.502  31.499  0.00  0.00    +0.020 A 
ATOM     24  C   LIG    1      -32.603  86.348  32.324  0.00  0.00    +0.011 A 
ENDBRANCH  14  19
BRANCH  17  25
ATOM     25  C   LIG    1      -28.078  90.478  35.134  0.00  0.00    +0.417 C 
ATOM     26  F   LIG    1      -28.804  91.186  36.042  0.00  0.00    -0.166 F 
ATOM     27  F   LIG    1      -27.473  91.403  34.337  0.00  0.00    -0.166 F 
ATOM     28  F   LIG    1      -27.073  89.885  35.838  0.00  0.00    -0.166 F 
ENDBRANCH  17  25
ENDBRANCH  11  13
ENDBRANCH   7  11
ENDBRANCH   1   8
BRANCH   4  29
ATOM     29  O   LIG    1      -25.354  80.777  37.413  0.00  0.00    -0.424 OA
BRANCH  29  30
ATOM     30  C   LIG    1      -24.915  80.074  36.315  0.00  0.00    +0.132 A 
ATOM     31  C   LIG    1      -25.646  79.043  35.730  0.00  0.00    +0.047 A 
ATOM     32  C   LIG    1      -25.223  78.458  34.537  0.00  0.00    +0.012 A 
ATOM     33  C   LIG    1      -24.021  78.841  33.919  0.00  0.00    -0.016 A 
ATOM     34  C   LIG    1      -23.233  79.793  34.599  0.00  0.00    +0.012 A 
ATOM     35  C   LIG    1      -23.668  80.398  35.788  0.00  0.00    +0.047 A 
BRANCH  33  36
ATOM     36  C   LIG    1      -23.622  78.274  32.606  0.00  0.00    +0.001 A 
ATOM     37  C   LIG    1      -22.271  77.979  32.326  0.00  0.00    +0.023 A 
ATOM     38  C   LIG    1      -22.121  77.477  31.042  0.00  0.00    +0.039 A 
ATOM     39  C   LIG    1      -20.941  77.090  30.467  0.00  0.00    +0.115 A 
ATOM     40  N   LIG    1      -21.289  76.672  29.213  0.00  0.00    -0.282 N 
ATOM     41  H   LIG    1      -20.678  76.311  28.486  0.00  0.00    +0.188 HD
ATOM     42  N   LIG    1      -22.606  76.754  28.938  0.00  0.00    -0.154 NA
ATOM     43  C   LIG    1      -23.131  77.250  30.064  0.00  0.00    +0.181 A 
ATOM     44  N   LIG    1      -24.434  77.522  30.314  0.00  0.00    -0.234 NA
ATOM     45  C   LIG    1      -24.600  78.027  31.583  0.00  0.00    +0.121 A 
ENDBRANCH  33  36
ENDBRANCH  29  30
ENDBRANCH   4  29
TORSDOF 9
ENDMDL
MODEL 3
REMARK VINA RESULT:      -7.2      1.407      1.972
REMARK  Name = pdb/CHEMBL3895805.pdb
REMARK                            x       y       z     vdW  Elec       q    Type
REMARK                         _______ _______ _______ _____ _____    ______ ____
ROOT
ATOM      1  C   LIG    1      -28.293  83.837  36.467  0.00  0.00    +0.105 A 
ATOM      2  C   LIG    1      -26.939  84.112  36.481  0.00  0.00    +0.145 A 
ATOM      3  N   LIG    1      -25.971  83.242  36.869  0.00  0.00    -0.201 NA
ATOM      4  C   LIG    1      -26.381  82.006  37.218  0.00  0.00    +0.323 A 
ATOM      5  N   LIG    1      -27.660  81.622  37.296  0.00  0.00    -0.201 NA
ATOM      6  C   LIG    1      -28.581  82.562  36.938  0.00  0.00    +0.145 A 
ENDROOT
BRANCH   1   8
ATOM      7  C   LIG    1      -29.702  84.900  34.881  0.00  0.00    +0.285 C 
ATOM      8  N   LIG    1      -29.236  84.818  36.102  0.00  0.00    -0.196 NA
BRANCH   7   9
ATOM      9  O   LIG    1      -29.261  84.051  33.938  0.00  0.00    -0.481 OA
ATOM     10  H   LIG    1      -28.838  83.277  34.326  0.00  0.00    +0.295 HD
ENDBRANCH   7   9
BRANCH   7  11
ATOM     11  N   LIG    1      -30.653  85.727  34.385  0.00  0.00    -0.269 N 
ATOM     12  H   LIG    1      -31.576  85.726  34.803  0.00  0.00    +0.157 HD
BRANCH  11  13
ATOM     13  C   LIG    1      -30.663  86.443  33.164  0.00  0.00    +0.043 A 
ATOM     14  C   LIG    1      -29.777  87.547  32.973  0.00  0.00    +0.005 A 
ATOM     15  C   LIG    1      -29.891  88.258  31.756  0.00  0.00    +0.011 A 
ATOM     16  C   LIG    1      -30.824  87.912  30.777  0.00  0.00    +0.013 A 
ATOM     17  C   LIG    1      -31.665  86.813  30.962  0.00  0.00    +0.057 A 
ATOM     18  C   LIG    1      -31.560  86.075  32.142  0.00  0.00    +0.036 A 
BRANCH  14  19
ATOM     19  C   LIG    1      -28.747  87.973  33.966  0.00  0.00    +0.002 A 
ATOM     20  C   LIG    1      -27.550  87.269  34.142  0.00  0.00    +0.119 A 
ATOM     21  N   LIG    1      -26.579  87.575  35.042  0.00  0.00    -0.263 NA
ATOM     22  C   LIG    1      -26.781  88.652  35.817  0.00  0.00    +0.111 A 
ATOM     23  C   LIG    1      -27.913  89.439  35.733  0.00  0.00    +0.020 A 
ATOM     24  C   LIG    1      -28.908  89.076  34.824  0.00  0.00    +0.011 A 
ENDBRANCH  14  19
BRANCH  17  25
ATOM     25  C   LIG    1      -32.682  86.449  29.910  0.00  0.00    +0.417 C 
ATOM     26  F   LIG    1      -32.280  85.406  29.134  0.00  0.00    -0.166 F 
ATOM     27  F   LIG    1      -32.923  87.481  29.052  0.00  0.00    -0.166 F 
ATOM     28  F   LIG    1      -33.898  86.097  30.414  0.00  0.00    -0.166 F 
ENDBRANCH  17  25
ENDBRANCH  11  13
ENDBRANCH   7  11
ENDBRANCH   1   8
BRANCH   4  29
ATOM     29  O   LIG    1      -25.439  81.015  37.507  0.00  0.00    -0.424 OA
BRANCH  29  30
ATOM     30  C   LIG    1      -24.671  80.542  36.468  0.00  0.00    +0.132 A 
ATOM     31  C   LIG    1      -23.402  81.035  36.176  0.00  0.00    +0.047 A 
ATOM     32  C   LIG    1      -22.609  80.427  35.203  0.00  0.00    +0.012 A 
ATOM     33  C   LIG    1      -23.081  79.342  34.447  0.00  0.00    -0.016 A 
ATOM     34  C   LIG    1      -24.415  78.944  34.670  0.00  0.00    +0.012 A 
ATOM     35  C   LIG    1      -25.208  79.542  35.663  0.00  0.00    +0.047 A 
BRANCH  33  36
ATOM     36  C   LIG    1      -22.199  78.647  33.475  0.00  0.00    +0.001 A 
ATOM     37  C   LIG    1      -20.803  78.846  33.493  0.00  0.00    +0.023 A 
ATOM     38  C   LIG    1      -20.177  78.117  32.493  0.00  0.00    +0.039 A 
ATOM     39  C   LIG    1      -18.832  78.089  32.246  0.00  0.00    +0.115 A 
ATOM     40  N   LIG    1      -18.693  77.245  31.180  0.00  0.00    -0.282 N 
ATOM     41  H   LIG    1      -17.836  76.973  30.709  0.00  0.00    +0.188 HD
ATOM     42  N   LIG    1      -19.849  76.721  30.724  0.00  0.00    -0.154 NA
ATOM     43  C   LIG    1      -20.773  77.254  31.530  0.00  0.00    +0.181 A 
ATOM     44  N   LIG    1      -22.111  77.044  31.499  0.00  0.00    -0.234 NA
ATOM     45  C   LIG    1      -22.750  77.766  32.482  0.00  0.00    +0.121 A 
ENDBRANCH  33  36
ENDBRANCH  29  30
ENDBRANCH   4  29
TORSDOF 9
ENDMDL
MODEL 4
REMARK VINA RESULT:      -7.2     17.739     20.962
REMARK  Name = pdb/CHEMBL3895805.pdb
REMARK                            x       y       z     vdW  Elec       q    Type
REMARK                         _______ _______ _______ _____ _____    ______ ____
ROOT
ATOM      1  C   LIG    1      -38.140  68.441  21.484  0.00  0.00    +0.105 A 
ATOM      2  C   LIG    1      -38.007  67.073  21.616  0.00  0.00    +0.145 A 
ATOM      3  N   LIG    1      -37.370  66.263  20.730  0.00  0.00    -0.201 NA
ATOM      4  C   LIG    1      -36.790  66.868  19.675  0.00  0.00    +0.323 A 
ATOM      5  N   LIG    1      -36.882  68.174  19.400  0.00  0.00    -0.201 NA
ATOM      6  C   LIG    1      -37.577  68.919  20.307  0.00  0.00    +0.145 A 
ENDROOT
BRANCH   1   8
ATOM      7  C   LIG    1      -40.030  69.724  22.128  0.00  0.00    +0.285 C 
ATOM      8  N   LIG    1      -38.866  69.200  22.422  0.00  0.00    -0.196 NA
BRANCH   7   9
ATOM      9  O   LIG    1      -40.543  69.563  20.897  0.00  0.00    -0.481 OA
ATOM     10  H   LIG    1      -39.938  69.084  20.319  0.00  0.00    +0.295 HD
ENDBRANCH   7   9
BRANCH   7  11
ATOM     11  N   LIG    1      -40.881  70.413  22.925  0.00  0.00    -0.269 N 
ATOM     12  H   LIG    1      -41.783  70.010  23.148  0.00  0.00    +0.157 HD
BRANCH  11  13
ATOM     13  C   LIG    1      -40.837  71.774  23.310  0.00  0.00    +0.043 A 
ATOM     14  C   LIG    1      -41.871  72.669  22.901  0.00  0.00    +0.005 A 
ATOM     15  C   LIG    1      -41.726  74.028  23.263  0.00  0.00    +0.011 A 
ATOM     16  C   LIG    1      -40.625  74.490  23.987  0.00  0.00    +0.013 A 
ATOM     17  C   LIG    1      -39.634  73.601  24.408  0.00  0.00    +0.057 A 
ATOM     18  C   LIG    1      -39.762  72.249  24.087  0.00  0.00    +0.036 A 
BRANCH  14  19
ATOM     19  C   LIG    1      -43.083  72.251  22.134  0.00  0.00    +0.002 A 
ATOM     20  C   LIG    1      -44.270  71.873  22.772  0.00  0.00    +0.119 A 
ATOM     21  N   LIG    1      -45.403  71.454  22.149  0.00  0.00    -0.263 NA
ATOM     22  C   LIG    1      -45.383  71.413  20.807  0.00  0.00    +0.111 A 
ATOM     23  C   LIG    1      -44.279  71.773  20.058  0.00  0.00    +0.020 A 
ATOM     24  C   LIG    1      -43.120  72.164  20.731  0.00  0.00    +0.011 A 
ENDBRANCH  14  19
BRANCH  17  25
ATOM     25  C   LIG    1      -38.439  74.104  25.177  0.00  0.00    +0.417 C 
ATOM     26  F   LIG    1      -37.779  75.100  24.525  0.00  0.00    -0.166 F 
ATOM     27  F   LIG    1      -37.517  73.123  25.391  0.00  0.00    -0.166 F 
ATOM     28  F   LIG    1      -38.743  74.599  26.410  0.00  0.00    -0.166 F 
ENDBRANCH  17  25
ENDBRANCH  11  13
ENDBRANCH   7  11
ENDBRANCH   1   8
BRANCH   4  29
ATOM     29  O   LIG    1      -36.009  66.123  18.787  0.00  0.00    -0.424 OA
BRANCH  29  30
ATOM     30  C   LIG    1      -34.681  66.463  18.666  0.00  0.00    +0.132 A 
ATOM     31  C   LIG    1      -34.141  67.021  17.510  0.00  0.00    +0.047 A 
ATOM     32  C   LIG    1      -32.823  67.477  17.488  0.00  0.00    +0.012 A 
ATOM     33  C   LIG    1      -31.980  67.335  18.602  0.00  0.00    -0.016 A 
ATOM     34  C   LIG    1      -32.508  66.648  19.715  0.00  0.00    +0.012 A 
ATOM     35  C   LIG    1      -33.841  66.208  19.747  0.00  0.00    +0.047 A 
BRANCH  33  36
ATOM     36  C   LIG    1      -30.607  67.900  18.599  0.00  0.00    +0.001 A 
ATOM     37  C   LIG    1      -30.399  69.295  18.557  0.00  0.00    +0.023 A 
ATOM     38  C   LIG    1      -29.046  69.601  18.543  0.00  0.00    +0.039 A 
ATOM     39  C   LIG    1      -28.512  70.860  18.508  0.00  0.00    +0.115 A 
ATOM     40  N   LIG    1      -27.159  70.662  18.508  0.00  0.00    -0.282 N 
ATOM     41  H   LIG    1      -26.427  71.365  18.488  0.00  0.00    +0.188 HD
ATOM     42  N   LIG    1      -26.781  69.368  18.547  0.00  0.00    -0.154 NA
ATOM     43  C   LIG    1      -27.941  68.703  18.570  0.00  0.00    +0.181 A 
ATOM     44  N   LIG    1      -28.119  67.361  18.616  0.00  0.00    -0.234 NA
ATOM     45  C   LIG    1      -29.457  67.038  18.623  0.00  0.00    +0.121 A 
ENDBRANCH  33  36
ENDBRANCH  29  30
ENDBRANCH   4  29
TORSDOF 9
ENDMDL
MODEL 5
REMARK VINA RESULT:      -7.1      8.016     11.357
REMARK  Name = pdb/CHEMBL3895805.pdb
REMARK                            x       y       z     vdW  Elec       q    Type
REMARK                         _______ _______ _______ _____ _____    ______ ____
ROOT
ATOM      1  C   LIG    1      -25.940  77.151  32.798  0.00  0.00    +0.105 A 
ATOM      2  C   LIG    1      -27.061  77.149  33.605  0.00  0.00    +0.145 A 
ATOM      3  N   LIG    1      -28.135  76.334  33.444  0.00  0.00    -0.201 NA
ATOM      4  C   LIG    1      -28.061  75.435  32.443  0.00  0.00    +0.323 A 
ATOM      5  N   LIG    1      -27.059  75.360  31.559  0.00  0.00    -0.201 NA
ATOM      6  C   LIG    1      -26.036  76.241  31.753  0.00  0.00    +0.145 A 
ENDROOT
BRANCH   1   8
ATOM      7  C   LIG    1      -23.878  77.791  33.783  0.00  0.00    +0.285 C 
ATOM      8  N   LIG    1      -24.892  78.070  33.002  0.00  0.00    -0.196 NA
BRANCH   7   9
ATOM      9  O   LIG    1      -23.836  76.615  34.429  0.00  0.00    -0.481 OA
ATOM     10  H   LIG    1      -24.061  75.880  33.847  0.00  0.00    +0.295 HD
ENDBRANCH   7   9
BRANCH   7  11
ATOM     11  N   LIG    1      -22.766  78.524  34.031  0.00  0.00    -0.269 N 
ATOM     12  H   LIG    1      -22.846  79.372  34.578  0.00  0.00    +0.157 HD
BRANCH  11  13
ATOM     13  C   LIG    1      -21.493  78.447  33.416  0.00  0.00    +0.043 A 
ATOM     14  C   LIG    1      -20.400  79.205  33.935  0.00  0.00    +0.005 A 
ATOM     15  C   LIG    1      -19.177  79.134  33.230  0.00  0.00    +0.011 A 
ATOM     16  C   LIG    1      -19.029  78.365  32.074  0.00  0.00    +0.013 A 
ATOM     17  C   LIG    1      -20.096  77.605  31.591  0.00  0.00    +0.057 A 
ATOM     18  C   LIG    1      -21.310  77.634  32.280  0.00  0.00    +0.036 A 
BRANCH  14  19
ATOM     19  C   LIG    1      -20.475  80.043  35.169  0.00  0.00    +0.002 A 
ATOM     20  C   LIG    1      -20.030  79.575  36.411  0.00  0.00    +0.119 A 
ATOM     21  N   LIG    1      -20.090  80.263  37.583  0.00  0.00    -0.263 NA
ATOM     22  C   LIG    1      -20.610  81.499  37.538  0.00  0.00    +0.111 A 
ATOM     23  C   LIG    1      -21.072  82.082  36.374  0.00  0.00    +0.020 A 
ATOM     24  C   LIG    1      -21.028  81.335  35.196  0.00  0.00    +0.011 A 
ENDBRANCH  14  19
BRANCH  17  25
ATOM     25  C   LIG    1      -19.939  76.787  30.335  0.00  0.00    +0.417 C 
ATOM     26  F   LIG    1      -18.664  76.802  29.857  0.00  0.00    -0.166 F 
ATOM     27  F   LIG    1      -20.724  77.248  29.321  0.00  0.00    -0.166 F 
ATOM     28  F   LIG    1      -20.267  75.473  30.486  0.00  0.00    -0.166 F 
ENDBRANCH  17  25
ENDBRANCH  11  13
ENDBRANCH   7  11
ENDBRANCH   1   8
BRANCH   4  29
ATOM     29  O   LIG    1      -29.068  74.477  32.290  0.00  0.00    -0.424 OA
BRANCH  29  30
ATOM     30  C   LIG    1      -30.018  74.701  31.320  0.00  0.00    +0.132 A 
ATOM     31  C   LIG    1      -30.734  73.675  30.708  0.00  0.00    +0.047 A 
ATOM     32  C   LIG    1      -31.783  73.963  29.835  0.00  0.00    +0.012 A 
ATOM     33  C   LIG    1      -32.114  75.286  29.498  0.00  0.00    -0.016 A 
ATOM     34  C   LIG    1      -31.291  76.301  30.028  0.00  0.00    +0.012 A 
ATOM     35  C   LIG    1      -30.248  76.014  30.922  0.00  0.00    +0.047 A 
BRANCH  33  36
ATOM     36  C   LIG    1      -33.286  75.585  28.637  0.00  0.00    +0.001 A 
ATOM     37  C   LIG    1      -34.364  74.680  28.542  0.00  0.00    +0.023 A 
ATOM     38  C   LIG    1      -35.339  75.147  27.674  0.00  0.00    +0.039 A 
ATOM     39  C   LIG    1      -36.510  74.509  27.367  0.00  0.00    +0.115 A 
ATOM     40  N   LIG    1      -37.136  75.342  26.482  0.00  0.00    -0.282 N 
ATOM     41  H   LIG    1      -38.035  75.206  26.029  0.00  0.00    +0.188 HD
ATOM     42  N   LIG    1      -36.459  76.473  26.199  0.00  0.00    -0.154 NA
ATOM     43  C   LIG    1      -35.346  76.363  26.932  0.00  0.00    +0.181 A 
ATOM     44  N   LIG    1      -34.324  77.248  27.013  0.00  0.00    -0.234 NA
ATOM     45  C   LIG    1      -33.343  76.797  27.867  0.00  0.00    +0.121 A 
ENDBRANCH  33  36
ENDBRANCH  29  30
ENDBRANCH   4  29
TORSDOF 9
ENDMDL
MODEL 6
REMARK VINA RESULT:      -7.1     10.896     15.311
REMARK  Name = pdb/CHEMBL3895805.pdb
REMARK                            x       y       z     vdW  Elec       q    Type
REMARK                         _______ _______ _______ _____ _____    ______ ____
ROOT
ATOM      1  C   LIG    1      -36.463  77.801  27.650  0.00  0.00    +0.105 A 
ATOM      2  C   LIG    1      -37.404  78.793  27.841  0.00  0.00    +0.145 A 
ATOM      3  N   LIG    1      -37.453  79.625  28.914  0.00  0.00    -0.201 NA
ATOM      4  C   LIG    1      -36.470  79.484  29.826  0.00  0.00    +0.323 A 
ATOM      5  N   LIG    1      -35.528  78.536  29.790  0.00  0.00    -0.201 NA
ATOM      6  C   LIG    1      -35.569  77.706  28.709  0.00  0.00    +0.145 A 
ENDROOT
BRANCH   1   8
ATOM      7  C   LIG    1      -37.119  75.782  26.589  0.00  0.00    +0.285 C 
ATOM      8  N   LIG    1      -36.518  76.944  26.533  0.00  0.00    -0.196 NA
BRANCH   7   9
ATOM      9  O   LIG    1      -37.678  75.373  27.740  0.00  0.00    -0.481 OA
ATOM     10  H   LIG    1      -38.606  75.142  27.623  0.00  0.00    +0.295 HD
ENDBRANCH   7   9
BRANCH   7  11
ATOM     11  N   LIG    1      -37.323  74.878  25.601  0.00  0.00    -0.269 N 
ATOM     12  H   LIG    1      -36.532  74.553  25.059  0.00  0.00    +0.157 HD
BRANCH  11  13
ATOM     13  C   LIG    1      -38.538  74.482  24.992  0.00  0.00    +0.043 A 
ATOM     14  C   LIG    1      -38.822  73.096  24.795  0.00  0.00    +0.005 A 
ATOM     15  C   LIG    1      -40.021  72.777  24.119  0.00  0.00    +0.011 A 
ATOM     16  C   LIG    1      -40.898  73.759  23.656  0.00  0.00    +0.013 A 
ATOM     17  C   LIG    1      -40.626  75.110  23.880  0.00  0.00    +0.057 A 
ATOM     18  C   LIG    1      -39.461  75.458  24.567  0.00  0.00    +0.036 A 
BRANCH  14  19
ATOM     19  C   LIG    1      -37.941  71.987  25.268  0.00  0.00    +0.002 A 
ATOM     20  C   LIG    1      -37.018  71.362  24.421  0.00  0.00    +0.119 A 
ATOM     21  N   LIG    1      -36.203  70.330  24.765  0.00  0.00    -0.263 NA
ATOM     22  C   LIG    1      -36.283  69.884  26.029  0.00  0.00    +0.111 A 
ATOM     23  C   LIG    1      -37.143  70.424  26.966  0.00  0.00    +0.020 A 
ATOM     24  C   LIG    1      -37.991  71.459  26.569  0.00  0.00    +0.011 A 
ENDBRANCH  14  19
BRANCH  17  25
ATOM     25  C   LIG    1      -41.566  76.171  23.367  0.00  0.00    +0.417 C 
ATOM     26  F   LIG    1      -42.443  76.595  24.317  0.00  0.00    -0.166 F 
ATOM     27  F   LIG    1      -42.328  75.722  22.330  0.00  0.00    -0.166 F 
ATOM     28  F   LIG    1      -40.940  77.290  22.907  0.00  0.00    -0.166 F 
ENDBRANCH  17  25
ENDBRANCH  11  13
ENDBRANCH   7  11
ENDBRANCH   1   8
BRANCH   4  29
ATOM     29  O   LIG    1      -36.376  80.382  30.893  0.00  0.00    -0.424 OA
BRANCH  29  30
ATOM     30  C   LIG    1      -35.556  81.476  30.735  0.00  0.00    +0.132 A 
ATOM     31  C   LIG    1      -34.911  81.776  29.537  0.00  0.00    +0.047 A 
ATOM     32  C   LIG    1      -34.206  82.970  29.388  0.00  0.00    +0.012 A 
ATOM     33  C   LIG    1      -34.071  83.878  30.451  0.00  0.00    -0.016 A 
ATOM     34  C   LIG    1      -34.621  83.493  31.691  0.00  0.00    +0.012 A 
ATOM     35  C   LIG    1      -35.348  82.301  31.837  0.00  0.00    +0.047 A 
BRANCH  33  36
ATOM     36  C   LIG    1      -33.393  85.185  30.257  0.00  0.00    +0.001 A 
ATOM     37  C   LIG    1      -32.013  85.329  30.514  0.00  0.00    +0.023 A 
ATOM     38  C   LIG    1      -31.593  86.631  30.286  0.00  0.00    +0.039 A 
ATOM     39  C   LIG    1      -30.315  87.097  30.439  0.00  0.00    +0.115 A 
ATOM     40  N   LIG    1      -30.387  88.420  30.103  0.00  0.00    -0.282 N 
ATOM     41  H   LIG    1      -29.634  89.102  30.094  0.00  0.00    +0.188 HD
ATOM     42  N   LIG    1      -31.615  88.842  29.740  0.00  0.00    -0.154 NA
ATOM     43  C   LIG    1      -32.368  87.742  29.848  0.00  0.00    +0.181 A 
ATOM     44  N   LIG    1      -33.693  87.624  29.591  0.00  0.00    -0.234 NA
ATOM     45  C   LIG    1      -34.129  86.339  29.818  0.00  0.00    +0.121 A 
ENDBRANCH  33  36
ENDBRANCH  29  30
ENDBRANCH   4  29
TORSDOF 9
ENDMDL
MODEL 7
REMARK VINA RESULT:      -7.1     10.211     15.840
REMARK  Name = pdb/CHEMBL3895805.pdb
REMARK                            x       y       z     vdW  Elec       q    Type
REMARK                         _______ _______ _______ _____ _____    ______ ____
ROOT
ATOM      1  C   LIG    1      -34.174  91.541  27.007  0.00  0.00    +0.105 A 
ATOM      2  C   LIG    1      -33.014  91.735  26.284  0.00  0.00    +0.145 A 
ATOM      3  N   LIG    1      -32.906  92.520  25.180  0.00  0.00    -0.201 NA
ATOM      4  C   LIG    1      -34.017  93.185  24.807  0.00  0.00    +0.323 A 
ATOM      5  N   LIG    1      -35.215  93.052  25.386  0.00  0.00    -0.201 NA
ATOM      6  C   LIG    1      -35.261  92.211  26.459  0.00  0.00    +0.145 A 
ENDROOT
BRANCH   1   8
ATOM      7  C   LIG    1      -34.687  89.449  28.004  0.00  0.00    +0.285 C 
ATOM      8  N   LIG    1      -34.211  90.665  28.109  0.00  0.00    -0.196 NA
BRANCH   7   9
ATOM      9  O   LIG    1      -35.177  89.023  26.828  0.00  0.00    -0.481 OA
ATOM     10  H   LIG    1      -34.642  88.312  26.456  0.00  0.00    +0.295 HD
ENDBRANCH   7   9
BRANCH   7  11
ATOM     11  N   LIG    1      -34.731  88.466  28.935  0.00  0.00    -0.269 N 
ATOM     12  H   LIG    1      -35.479  88.467  29.618  0.00  0.00    +0.157 HD
BRANCH  11  13
ATOM     13  C   LIG    1      -33.725  87.539  29.301  0.00  0.00    +0.043 A 
ATOM     14  C   LIG    1      -33.898  86.149  29.027  0.00  0.00    +0.005 A 
ATOM     15  C   LIG    1      -32.886  85.273  29.482  0.00  0.00    +0.011 A 
ATOM     16  C   LIG    1      -31.763  85.732  30.173  0.00  0.00    +0.013 A 
ATOM     17  C   LIG    1      -31.589  87.096  30.410  0.00  0.00    +0.057 A 
ATOM     18  C   LIG    1      -32.559  87.989  29.951  0.00  0.00    +0.036 A 
BRANCH  14  19
ATOM     19  C   LIG    1      -35.065  85.582  28.287  0.00  0.00    +0.002 A 
ATOM     20  C   LIG    1      -36.144  84.984  28.950  0.00  0.00    +0.119 A 
ATOM     21  N   LIG    1      -37.226  84.421  28.350  0.00  0.00    -0.263 NA
ATOM     22  C   LIG    1      -37.267  84.455  27.008  0.00  0.00    +0.111 A 
ATOM     23  C   LIG    1      -36.274  85.028  26.238  0.00  0.00    +0.020 A 
ATOM     24  C   LIG    1      -35.159  85.564  26.884  0.00  0.00    +0.011 A 
ENDBRANCH  14  19
BRANCH  17  25
ATOM     25  C   LIG    1      -30.383  87.588  31.169  0.00  0.00    +0.417 C 
ATOM     26  F   LIG    1      -29.234  87.489  30.445  0.00  0.00    -0.166 F 
ATOM     27  F   LIG    1      -30.167  86.873  32.309  0.00  0.00    -0.166 F 
ATOM     28  F   LIG    1      -30.468  88.890  31.561  0.00  0.00    -0.166 F 
ENDBRANCH  17  25
ENDBRANCH  11  13
ENDBRANCH   7  11
ENDBRANCH   1   8
BRANCH   4  29
ATOM     29  O   LIG    1      -33.958  94.109  23.759  0.00  0.00    -0.424 OA
BRANCH  29  30
ATOM     30  C   LIG    1      -33.808  93.617  22.483  0.00  0.00    +0.132 A 
ATOM     31  C   LIG    1      -32.573  93.513  21.849  0.00  0.00    +0.047 A 
ATOM     32  C   LIG    1      -32.459  92.878  20.612  0.00  0.00    +0.012 A 
ATOM     33  C   LIG    1      -33.586  92.379  19.939  0.00  0.00    -0.016 A 
ATOM     34  C   LIG    1      -34.840  92.613  20.539  0.00  0.00    +0.012 A 
ATOM     35  C   LIG    1      -34.954  93.233  21.793  0.00  0.00    +0.047 A 
BRANCH  33  36
ATOM     36  C   LIG    1      -33.445  91.629  18.665  0.00  0.00    +0.001 A 
ATOM     37  C   LIG    1      -33.806  90.268  18.583  0.00  0.00    +0.023 A 
ATOM     38  C   LIG    1      -33.577  89.762  17.312  0.00  0.00    +0.039 A 
ATOM     39  C   LIG    1      -33.825  88.480  16.905  0.00  0.00    +0.115 A 
ATOM     40  N   LIG    1      -33.447  88.454  15.591  0.00  0.00    -0.282 N 
ATOM     41  H   LIG    1      -33.484  87.670  14.948  0.00  0.00    +0.188 HD
ATOM     42  N   LIG    1      -32.978  89.627  15.119  0.00  0.00    -0.154 NA
ATOM     43  C   LIG    1      -33.056  90.443  16.175  0.00  0.00    +0.181 A 
ATOM     44  N   LIG    1      -32.708  91.752  16.231  0.00  0.00    -0.234 NA
ATOM     45  C   LIG    1      -32.922  92.268  17.489  0.00  0.00    +0.121 A 
ENDBRANCH  33  36
ENDBRANCH  29  30
ENDBRANCH   4  29
TORSDOF 9
ENDMDL
MODEL 8
REMARK VINA RESULT:      -6.9     19.063     23.501
REMARK  Name = pdb/CHEMBL3895805.pdb
REMARK                            x       y       z     vdW  Elec       q    Type
REMARK                         _______ _______ _______ _____ _____    ______ ____
ROOT
ATOM      1  C   LIG    1      -26.835  78.148  12.578  0.00  0.00    +0.105 A 
ATOM      2  C   LIG    1      -28.167  77.870  12.817  0.00  0.00    +0.145 A 
ATOM      3  N   LIG    1      -29.183  78.122  11.950  0.00  0.00    -0.201 NA
ATOM      4  C   LIG    1      -28.836  78.637  10.754  0.00  0.00    +0.323 A 
ATOM      5  N   LIG    1      -27.595  78.997  10.410  0.00  0.00    -0.201 NA
ATOM      6  C   LIG    1      -26.632  78.761  11.347  0.00  0.00    +0.145 A 
ENDROOT
BRANCH   1   8
ATOM      7  C   LIG    1      -25.422  78.857  14.347  0.00  0.00    +0.285 C 
ATOM      8  N   LIG    1      -25.851  77.906  13.555  0.00  0.00    -0.196 NA
BRANCH   7   9
ATOM      9  O   LIG    1      -25.906  80.103  14.218  0.00  0.00    -0.481 OA
ATOM     10  H   LIG    1      -26.817  80.165  14.525  0.00  0.00    +0.295 HD
ENDBRANCH   7   9
BRANCH   7  11
ATOM     11  N   LIG    1      -24.542  78.780  15.374  0.00  0.00    -0.269 N 
ATOM     12  H   LIG    1      -24.754  79.257  16.242  0.00  0.00    +0.157 HD
BRANCH  11  13
ATOM     13  C   LIG    1      -23.196  78.344  15.364  0.00  0.00    +0.043 A 
ATOM     14  C   LIG    1      -22.133  79.297  15.404  0.00  0.00    +0.005 A 
ATOM     15  C   LIG    1      -20.815  78.793  15.320  0.00  0.00    +0.011 A 
ATOM     16  C   LIG    1      -20.547  77.428  15.200  0.00  0.00    +0.013 A 
ATOM     17  C   LIG    1      -21.592  76.502  15.191  0.00  0.00    +0.057 A 
ATOM     18  C   LIG    1      -22.905  76.967  15.298  0.00  0.00    +0.036 A 
BRANCH  14  19
ATOM     19  C   LIG    1      -22.337  80.770  15.540  0.00  0.00    +0.002 A 
ATOM     20  C   LIG    1      -22.498  81.601  14.425  0.00  0.00    +0.119 A 
ATOM     21  N   LIG    1      -22.659  82.951  14.463  0.00  0.00    -0.263 NA
ATOM     22  C   LIG    1      -22.677  83.530  15.674  0.00  0.00    +0.111 A 
ATOM     23  C   LIG    1      -22.542  82.820  16.852  0.00  0.00    +0.020 A 
ATOM     24  C   LIG    1      -22.343  81.441  16.775  0.00  0.00    +0.011 A 
ENDBRANCH  14  19
BRANCH  17  25
ATOM     25  C   LIG    1      -21.302  75.030  15.047  0.00  0.00    +0.417 C 
ATOM     26  F   LIG    1      -22.083  74.262  15.855  0.00  0.00    -0.166 F 
ATOM     27  F   LIG    1      -20.015  74.727  15.376  0.00  0.00    -0.166 F 
ATOM     28  F   LIG    1      -21.483  74.551  13.785  0.00  0.00    -0.166 F 
ENDBRANCH  17  25
ENDBRANCH  11  13
ENDBRANCH   7  11
ENDBRANCH   1   8
BRANCH   4  29
ATOM     29  O   LIG    1      -29.805  78.806   9.760  0.00  0.00    -0.424 OA
BRANCH  29  30
ATOM     30  C   LIG    1      -30.733  79.807   9.938  0.00  0.00    +0.132 A 
ATOM     31  C   LIG    1      -32.000  79.582  10.470  0.00  0.00    +0.047 A 
ATOM     32  C   LIG    1      -32.849  80.650  10.760  0.00  0.00    +0.012 A 
ATOM     33  C   LIG    1      -32.484  81.976  10.472  0.00  0.00    -0.016 A 
ATOM     34  C   LIG    1      -31.252  82.167   9.814  0.00  0.00    +0.012 A 
ATOM     35  C   LIG    1      -30.387  81.095   9.540  0.00  0.00    +0.047 A 
BRANCH  33  36
ATOM     36  C   LIG    1      -33.357  83.111  10.863  0.00  0.00    +0.001 A 
ATOM     37  C   LIG    1      -34.730  82.912  11.123  0.00  0.00    +0.023 A 
ATOM     38  C   LIG    1      -35.357  84.104  11.453  0.00  0.00    +0.039 A 
ATOM     39  C   LIG    1      -36.682  84.252  11.763  0.00  0.00    +0.115 A 
ATOM     40  N   LIG    1      -36.832  85.588  12.013  0.00  0.00    -0.282 N 
ATOM     41  H   LIG    1      -37.680  86.080  12.277  0.00  0.00    +0.188 HD
ATOM     42  N   LIG    1      -35.701  86.312  11.892  0.00  0.00    -0.154 NA
ATOM     43  C   LIG    1      -34.783  85.404  11.547  0.00  0.00    +0.181 A 
ATOM     44  N   LIG    1      -33.466  85.615  11.307  0.00  0.00    -0.234 NA
ATOM     45  C   LIG    1      -32.828  84.443  10.972  0.00  0.00    +0.121 A 
ENDBRANCH  33  36
ENDBRANCH  29  30
ENDBRANCH   4  29
TORSDOF 9
ENDMDL
MODEL 9
REMARK VINA RESULT:      -6.8      8.020     11.473
REMARK  Name = pdb/CHEMBL3895805.pdb
REMARK                            x       y       z     vdW  Elec       q    Type
REMARK                         _______ _______ _______ _____ _____    ______ ____
ROOT
ATOM      1  C   LIG    1      -25.734  76.925  33.170  0.00  0.00    +0.105 A 
ATOM      2  C   LIG    1      -26.044  76.637  31.855  0.00  0.00    +0.145 A 
ATOM      3  N   LIG    1      -27.300  76.613  31.338  0.00  0.00    -0.201 NA
ATOM      4  C   LIG    1      -28.300  76.945  32.178  0.00  0.00    +0.323 A 
ATOM      5  N   LIG    1      -28.147  77.197  33.483  0.00  0.00    -0.201 NA
ATOM      6  C   LIG    1      -26.864  77.156  33.944  0.00  0.00    +0.145 A 
ENDROOT
BRANCH   1   8
ATOM      7  C   LIG    1      -23.665  77.949  33.721  0.00  0.00    +0.285 C 
ATOM      8  N   LIG    1      -24.406  76.872  33.638  0.00  0.00    -0.196 NA
BRANCH   7   9
ATOM      9  O   LIG    1      -24.162  79.134  33.330  0.00  0.00    -0.481 OA
ATOM     10  H   LIG    1      -25.060  79.049  32.988  0.00  0.00    +0.295 HD
ENDBRANCH   7   9
BRANCH   7  11
ATOM     11  N   LIG    1      -22.409  78.085  34.208  0.00  0.00    -0.269 N 
ATOM     12  H   LIG    1      -22.280  78.445  35.146  0.00  0.00    +0.157 HD
BRANCH  11  13
ATOM     13  C   LIG    1      -21.175  78.053  33.514  0.00  0.00    +0.043 A 
ATOM     14  C   LIG    1      -20.107  78.912  33.912  0.00  0.00    +0.005 A 
ATOM     15  C   LIG    1      -18.929  78.876  33.131  0.00  0.00    +0.011 A 
ATOM     16  C   LIG    1      -18.802  78.046  32.016  0.00  0.00    +0.013 A 
ATOM     17  C   LIG    1      -19.842  77.188  31.653  0.00  0.00    +0.057 A 
ATOM     18  C   LIG    1      -21.009  77.182  32.419  0.00  0.00    +0.036 A 
BRANCH  14  19
ATOM     19  C   LIG    1      -20.162  79.821  35.096  0.00  0.00    +0.002 A 
ATOM     20  C   LIG    1      -20.971  80.963  35.116  0.00  0.00    +0.119 A 
ATOM     21  N   LIG    1      -21.056  81.854  36.140  0.00  0.00    -0.263 NA
ATOM     22  C   LIG    1      -20.308  81.607  37.227  0.00  0.00    +0.111 A 
ATOM     23  C   LIG    1      -19.478  80.508  37.338  0.00  0.00    +0.020 A 
ATOM     24  C   LIG    1      -19.388  79.633  36.254  0.00  0.00    +0.011 A 
ENDBRANCH  14  19
BRANCH  17  25
ATOM     25  C   LIG    1      -19.708  76.302  30.440  0.00  0.00    +0.417 C 
ATOM     26  F   LIG    1      -18.948  76.866  29.462  0.00  0.00    -0.166 F 
ATOM     27  F   LIG    1      -20.915  76.033  29.867  0.00  0.00    -0.166 F 
ATOM     28  F   LIG    1      -19.146  75.089  30.701  0.00  0.00    -0.166 F 
ENDBRANCH  17  25
ENDBRANCH  11  13
ENDBRANCH   7  11
ENDBRANCH   1   8
BRANCH   4  29
ATOM     29  O   LIG    1      -29.605  77.068  31.694  0.00  0.00    -0.424 OA
BRANCH  29  30
ATOM     30  C   LIG    1      -30.171  75.964  31.099  0.00  0.00    +0.132 A 
ATOM     31  C   LIG    1      -30.116  74.688  31.655  0.00  0.00    +0.047 A 
ATOM     32  C   LIG    1      -30.825  73.631  31.085  0.00  0.00    +0.012 A 
ATOM     33  C   LIG    1      -31.565  73.799  29.903  0.00  0.00    -0.016 A 
ATOM     34  C   LIG    1      -31.500  75.066  29.287  0.00  0.00    +0.012 A 
ATOM     35  C   LIG    1      -30.804  76.136  29.871  0.00  0.00    +0.047 A 
BRANCH  33  36
ATOM     36  C   LIG    1      -32.386  72.692  29.352  0.00  0.00    +0.001 A 
ATOM     37  C   LIG    1      -33.563  72.958  28.621  0.00  0.00    +0.023 A 
ATOM     38  C   LIG    1      -34.180  71.783  28.216  0.00  0.00    +0.039 A 
ATOM     39  C   LIG    1      -35.335  71.697  27.488  0.00  0.00    +0.115 A 
ATOM     40  N   LIG    1      -35.548  70.355  27.335  0.00  0.00    -0.282 N 
ATOM     41  H   LIG    1      -36.312  69.897  26.847  0.00  0.00    +0.188 HD
ATOM     42  N   LIG    1      -34.612  69.569  27.905  0.00  0.00    -0.154 NA
ATOM     43  C   LIG    1      -33.760  70.443  28.451  0.00  0.00    +0.181 A 
ATOM     44  N   LIG    1      -32.630  70.166  29.146  0.00  0.00    -0.234 NA
ATOM     45  C   LIG    1      -32.008  71.321  29.561  0.00  0.00    +0.121 A 
ENDBRANCH  33  36
ENDBRANCH  29  30
ENDBRANCH   4  29
TORSDOF 9
ENDMDL
