MODEL 1
REMARK VINA RESULT:      -5.9      0.000      0.000
REMARK  Name = pdb/CHEMBL3675973.pdb
REMARK                            x       y       z     vdW  Elec       q    Type
REMARK                         _______ _______ _______ _____ _____    ______ ____
ROOT
ATOM      1  C   LIG    1      -23.973  79.842  35.330  0.00  0.00    +0.126 A 
ATOM      2  N   LIG    1      -24.147  79.009  34.321  0.00  0.00    -0.212 NA
ATOM      3  C   LIG    1      -25.314  78.286  34.281  0.00  0.00    +0.170 A 
ATOM      4  C   LIG    1      -25.786  77.332  33.392  0.00  0.00    +0.100 A 
ATOM      5  C   LIG    1      -26.999  76.891  33.976  0.00  0.00    +0.150 A 
ATOM      6  N   LIG    1      -27.321  77.546  35.087  0.00  0.00    -0.173 NA
ATOM      7  N   LIG    1      -26.299  78.412  35.265  0.00  0.00    -0.221 N 
ATOM      8  C   LIG    1      -26.169  79.353  36.268  0.00  0.00    +0.118 A 
ATOM      9  C   LIG    1      -25.067  80.101  36.342  0.00  0.00    +0.063 A 
ENDROOT
BRANCH   1  11
ATOM     10  C   LIG    1      -21.522  79.877  35.978  0.00  0.00    +0.107 C 
ATOM     11  N   LIG    1      -22.757  80.494  35.468  0.00  0.00    -0.308 N 
ATOM     12  C   LIG    1      -22.640  81.951  35.476  0.00  0.00    +0.107 C 
ATOM     13  C   LIG    1      -21.528  82.206  36.488  0.00  0.00    +0.021 C 
ATOM     14  C   LIG    1      -20.573  81.054  36.228  0.00  0.00    +0.029 C 
BRANCH  10  18
ATOM     15  F   LIG    1      -18.974  78.513  31.986  0.00  0.00    -0.204 F 
ATOM     16  C   LIG    1      -19.685  78.197  33.075  0.00  0.00    +0.142 A 
ATOM     17  C   LIG    1      -20.186  79.197  33.899  0.00  0.00    +0.046 A 
ATOM     18  C   LIG    1      -20.931  78.853  35.036  0.00  0.00    -0.006 A 
ATOM     19  C   LIG    1      -21.109  77.489  35.281  0.00  0.00    +0.116 A 
ATOM     20  N   LIG    1      -20.633  76.496  34.491  0.00  0.00    -0.260 NA
ATOM     21  C   LIG    1      -19.931  76.877  33.399  0.00  0.00    +0.149 A 
ENDBRANCH  10  18
ENDBRANCH   1  11
BRANCH   4  22
ATOM     22  C   LIG    1      -25.197  76.857  32.153  0.00  0.00    +0.250 C 
ATOM     23  N   LIG    1      -23.850  76.599  32.213  0.00  0.00    -0.297 N 
ATOM     24  H   LIG    1      -23.383  76.736  33.114  0.00  0.00    +0.150 HD
ATOM     25  O   LIG    1      -25.862  76.717  31.123  0.00  0.00    -0.270 OA
BRANCH  23  26
ATOM     26  C   LIG    1      -23.070  76.169  31.056  0.00  0.00    +0.130 C 
ATOM     27  C   LIG    1      -23.385  74.789  30.488  0.00  0.00    +0.037 C 
ATOM     28  C   LIG    1      -22.118  74.989  31.250  0.00  0.00    +0.037 C 
BRANCH  26  29
ATOM     29  C   LIG    1      -22.615  77.257  30.064  0.00  0.00    +0.411 C 
ATOM     30  F   LIG    1      -22.161  76.719  28.906  0.00  0.00    -0.168 F 
ATOM     31  F   LIG    1      -21.591  77.977  30.596  0.00  0.00    -0.168 F 
ATOM     32  F   LIG    1      -23.598  78.139  29.767  0.00  0.00    -0.168 F 
ENDBRANCH  26  29
ENDBRANCH  23  26
ENDBRANCH   4  22
TORSDOF 5
ENDMDL
MODEL 2
REMARK VINA RESULT:      -5.8      2.224      4.808
REMARK  Name = pdb/CHEMBL3675973.pdb
REMARK                            x       y       z     vdW  Elec       q    Type
REMARK                         _______ _______ _______ _____ _____    ______ ____
ROOT
ATOM      1  C   LIG    1      -20.071  79.181  34.291  0.00  0.00    +0.126 A 
ATOM      2  N   LIG    1      -20.709  78.572  33.309  0.00  0.00    -0.212 NA
ATOM      3  C   LIG    1      -19.955  77.918  32.364  0.00  0.00    +0.170 A 
ATOM      4  C   LIG    1      -20.305  77.217  31.220  0.00  0.00    +0.100 A 
ATOM      5  C   LIG    1      -19.061  76.891  30.625  0.00  0.00    +0.150 A 
ATOM      6  N   LIG    1      -18.012  77.273  31.348  0.00  0.00    -0.173 NA
ATOM      7  N   LIG    1      -18.559  77.886  32.421  0.00  0.00    -0.221 N 
ATOM      8  C   LIG    1      -17.890  78.436  33.498  0.00  0.00    +0.118 A 
ATOM      9  C   LIG    1      -18.573  79.061  34.459  0.00  0.00    +0.063 A 
ENDROOT
BRANCH   1  11
ATOM     10  C   LIG    1      -22.201  80.345  35.026  0.00  0.00    +0.107 C 
ATOM     11  N   LIG    1      -20.792  79.953  35.190  0.00  0.00    -0.308 N 
ATOM     12  C   LIG    1      -20.151  80.772  36.217  0.00  0.00    +0.107 C 
ATOM     13  C   LIG    1      -21.043  82.006  36.286  0.00  0.00    +0.021 C 
ATOM     14  C   LIG    1      -22.432  81.422  36.093  0.00  0.00    +0.029 C 
BRANCH  10  18
ATOM     15  F   LIG    1      -26.248  77.818  33.795  0.00  0.00    -0.204 F 
ATOM     16  C   LIG    1      -25.152  77.961  34.550  0.00  0.00    +0.142 A 
ATOM     17  C   LIG    1      -24.308  79.048  34.360  0.00  0.00    +0.046 A 
ATOM     18  C   LIG    1      -23.165  79.188  35.159  0.00  0.00    -0.006 A 
ATOM     19  C   LIG    1      -22.934  78.189  36.107  0.00  0.00    +0.116 A 
ATOM     20  N   LIG    1      -23.744  77.121  36.313  0.00  0.00    -0.260 NA
ATOM     21  C   LIG    1      -24.842  77.035  35.526  0.00  0.00    +0.149 A 
ENDBRANCH  10  18
ENDBRANCH   1  11
BRANCH   4  22
ATOM     22  C   LIG    1      -21.623  76.887  30.710  0.00  0.00    +0.250 C 
ATOM     23  N   LIG    1      -22.570  76.629  31.670  0.00  0.00    -0.297 N 
ATOM     24  H   LIG    1      -22.283  76.713  32.649  0.00  0.00    +0.150 HD
ATOM     25  O   LIG    1      -21.860  76.826  29.500  0.00  0.00    -0.270 OA
BRANCH  23  26
ATOM     26  C   LIG    1      -23.936  76.225  31.352  0.00  0.00    +0.130 C 
ATOM     27  C   LIG    1      -24.572  75.176  32.260  0.00  0.00    +0.037 C 
ATOM     28  C   LIG    1      -24.150  74.786  30.883  0.00  0.00    +0.037 C 
BRANCH  26  29
ATOM     29  C   LIG    1      -24.866  77.289  30.737  0.00  0.00    +0.411 C 
ATOM     30  F   LIG    1      -24.795  77.292  29.384  0.00  0.00    -0.168 F 
ATOM     31  F   LIG    1      -24.500  78.529  31.158  0.00  0.00    -0.168 F 
ATOM     32  F   LIG    1      -26.160  77.122  31.095  0.00  0.00    -0.168 F 
ENDBRANCH  26  29
ENDBRANCH  23  26
ENDBRANCH   4  22
TORSDOF 5
ENDMDL
MODEL 3
REMARK VINA RESULT:      -5.6     18.286     21.022
REMARK  Name = pdb/CHEMBL3675973.pdb
REMARK                            x       y       z     vdW  Elec       q    Type
REMARK                         _______ _______ _______ _____ _____    ______ ____
ROOT
ATOM      1  C   LIG    1      -20.401  83.929  12.604  0.00  0.00    +0.126 A 
ATOM      2  N   LIG    1      -20.534  82.849  13.351  0.00  0.00    -0.212 NA
ATOM      3  C   LIG    1      -19.397  82.296  13.887  0.00  0.00    +0.170 A 
ATOM      4  C   LIG    1      -19.193  81.176  14.678  0.00  0.00    +0.100 A 
ATOM      5  C   LIG    1      -17.783  81.089  14.792  0.00  0.00    +0.150 A 
ATOM      6  N   LIG    1      -17.142  82.093  14.202  0.00  0.00    -0.173 NA
ATOM      7  N   LIG    1      -18.130  82.842  13.663  0.00  0.00    -0.221 N 
ATOM      8  C   LIG    1      -17.992  84.026  12.966  0.00  0.00    +0.118 A 
ATOM      9  C   LIG    1      -19.066  84.622  12.444  0.00  0.00    +0.063 A 
ENDROOT
BRANCH   1  11
ATOM     10  C   LIG    1      -22.754  84.875  12.604  0.00  0.00    +0.107 C 
ATOM     11  N   LIG    1      -21.510  84.440  11.947  0.00  0.00    -0.308 N 
ATOM     12  C   LIG    1      -21.724  84.268  10.512  0.00  0.00    +0.107 C 
ATOM     13  C   LIG    1      -23.235  84.092  10.403  0.00  0.00    +0.021 C 
ATOM     14  C   LIG    1      -23.757  85.052  11.458  0.00  0.00    +0.029 C 
BRANCH  10  18
ATOM     15  F   LIG    1      -21.584  87.337  16.708  0.00  0.00    -0.204 F 
ATOM     16  C   LIG    1      -22.018  87.328  15.442  0.00  0.00    +0.142 A 
ATOM     17  C   LIG    1      -22.131  86.130  14.749  0.00  0.00    +0.046 A 
ATOM     18  C   LIG    1      -22.590  86.133  13.425  0.00  0.00    -0.006 A 
ATOM     19  C   LIG    1      -22.892  87.378  12.867  0.00  0.00    +0.116 A 
ATOM     20  N   LIG    1      -22.793  88.560  13.524  0.00  0.00    -0.260 NA
ATOM     21  C   LIG    1      -22.358  88.505  14.804  0.00  0.00    +0.149 A 
ENDBRANCH  10  18
ENDBRANCH   1  11
BRANCH   4  22
ATOM     22  C   LIG    1      -20.167  80.269  15.259  0.00  0.00    +0.250 C 
ATOM     23  N   LIG    1      -21.303  80.081  14.511  0.00  0.00    -0.297 N 
ATOM     24  H   LIG    1      -21.360  80.565  13.611  0.00  0.00    +0.150 HD
ATOM     25  O   LIG    1      -19.987  79.727  16.353  0.00  0.00    -0.270 OA
BRANCH  23  26
ATOM     26  C   LIG    1      -22.419  79.252  14.955  0.00  0.00    +0.130 C 
ATOM     27  C   LIG    1      -22.146  77.759  15.117  0.00  0.00    +0.037 C 
ATOM     28  C   LIG    1      -22.969  78.226  13.964  0.00  0.00    +0.037 C 
BRANCH  26  29
ATOM     29  C   LIG    1      -23.443  79.893  15.911  0.00  0.00    +0.411 C 
ATOM     30  F   LIG    1      -24.039  80.975  15.352  0.00  0.00    -0.168 F 
ATOM     31  F   LIG    1      -22.823  80.321  17.043  0.00  0.00    -0.168 F 
ATOM     32  F   LIG    1      -24.410  79.029  16.299  0.00  0.00    -0.168 F 
ENDBRANCH  26  29
ENDBRANCH  23  26
ENDBRANCH   4  22
TORSDOF 5
ENDMDL
MODEL 4
REMARK VINA RESULT:      -5.5     18.444     20.926
REMARK  Name = pdb/CHEMBL3675973.pdb
REMARK                            x       y       z     vdW  Elec       q    Type
REMARK                         _______ _______ _______ _____ _____    ______ ____
ROOT
ATOM      1  C   LIG    1      -19.467  85.265  13.180  0.00  0.00    +0.126 A 
ATOM      2  N   LIG    1      -19.300  83.992  13.488  0.00  0.00    -0.212 NA
ATOM      3  C   LIG    1      -18.385  83.271  12.759  0.00  0.00    +0.170 A 
ATOM      4  C   LIG    1      -17.997  81.941  12.811  0.00  0.00    +0.100 A 
ATOM      5  C   LIG    1      -17.104  81.802  11.720  0.00  0.00    +0.150 A 
ATOM      6  N   LIG    1      -16.875  82.943  11.075  0.00  0.00    -0.173 NA
ATOM      7  N   LIG    1      -17.646  83.845  11.721  0.00  0.00    -0.221 N 
ATOM      8  C   LIG    1      -17.742  85.198  11.459  0.00  0.00    +0.118 A 
ATOM      9  C   LIG    1      -18.596  85.953  12.154  0.00  0.00    +0.063 A 
ENDROOT
BRANCH   1  11
ATOM     10  C   LIG    1      -21.911  85.813  13.579  0.00  0.00    +0.107 C 
ATOM     11  N   LIG    1      -20.468  85.988  13.812  0.00  0.00    -0.308 N 
ATOM     12  C   LIG    1      -20.212  87.251  14.501  0.00  0.00    +0.107 C 
ATOM     13  C   LIG    1      -21.463  88.070  14.205  0.00  0.00    +0.021 C 
ATOM     14  C   LIG    1      -22.563  87.024  14.255  0.00  0.00    +0.029 C 
BRANCH  10  18
ATOM     15  F   LIG    1      -22.850  82.553  17.152  0.00  0.00    -0.204 F 
ATOM     16  C   LIG    1      -22.899  82.911  15.864  0.00  0.00    +0.142 A 
ATOM     17  C   LIG    1      -22.393  84.140  15.459  0.00  0.00    +0.046 A 
ATOM     18  C   LIG    1      -22.448  84.502  14.106  0.00  0.00    -0.006 A 
ATOM     19  C   LIG    1      -23.039  83.586  13.233  0.00  0.00    +0.116 A 
ATOM     20  N   LIG    1      -23.536  82.380  13.604  0.00  0.00    -0.260 NA
ATOM     21  C   LIG    1      -23.451  82.069  14.918  0.00  0.00    +0.149 A 
ENDBRANCH  10  18
ENDBRANCH   1  11
BRANCH   4  22
ATOM     22  C   LIG    1      -18.401  80.900  13.738  0.00  0.00    +0.250 C 
ATOM     23  N   LIG    1      -19.758  80.724  13.858  0.00  0.00    -0.297 N 
ATOM     24  H   LIG    1      -20.362  81.311  13.278  0.00  0.00    +0.150 HD
ATOM     25  O   LIG    1      -17.580  80.240  14.381  0.00  0.00    -0.270 OA
BRANCH  23  26
ATOM     26  C   LIG    1      -20.356  79.765  14.782  0.00  0.00    +0.130 C 
ATOM     27  C   LIG    1      -20.208  78.287  14.433  0.00  0.00    +0.037 C 
ATOM     28  C   LIG    1      -21.539  78.942  14.271  0.00  0.00    +0.037 C 
BRANCH  26  29
ATOM     29  C   LIG    1      -20.383  80.142  16.276  0.00  0.00    +0.411 C 
ATOM     30  F   LIG    1      -21.615  79.968  16.813  0.00  0.00    -0.168 F 
ATOM     31  F   LIG    1      -20.062  81.454  16.434  0.00  0.00    -0.168 F 
ATOM     32  F   LIG    1      -19.495  79.432  17.011  0.00  0.00    -0.168 F 
ENDBRANCH  26  29
ENDBRANCH  23  26
ENDBRANCH   4  22
TORSDOF 5
ENDMDL
MODEL 5
REMARK VINA RESULT:      -5.5      3.417      7.061
REMARK  Name = pdb/CHEMBL3675973.pdb
REMARK                            x       y       z     vdW  Elec       q    Type
REMARK                         _______ _______ _______ _____ _____    ______ ____
ROOT
ATOM      1  C   LIG    1      -19.915  77.825  32.422  0.00  0.00    +0.126 A 
ATOM      2  N   LIG    1      -20.256  78.544  33.475  0.00  0.00    -0.212 NA
ATOM      3  C   LIG    1      -19.296  78.776  34.430  0.00  0.00    +0.170 A 
ATOM      4  C   LIG    1      -19.333  79.456  35.638  0.00  0.00    +0.100 A 
ATOM      5  C   LIG    1      -18.051  79.230  36.198  0.00  0.00    +0.150 A 
ATOM      6  N   LIG    1      -17.240  78.541  35.401  0.00  0.00    -0.173 NA
ATOM      7  N   LIG    1      -17.995  78.278  34.312  0.00  0.00    -0.221 N 
ATOM      8  C   LIG    1      -17.604  77.610  33.168  0.00  0.00    +0.118 A 
ATOM      9  C   LIG    1      -18.488  77.378  32.196  0.00  0.00    +0.063 A 
ENDROOT
BRANCH   1  11
ATOM     10  C   LIG    1      -21.956  76.483  31.742  0.00  0.00    +0.107 C 
ATOM     11  N   LIG    1      -20.889  77.468  31.502  0.00  0.00    -0.308 N 
ATOM     12  C   LIG    1      -20.762  77.744  30.073  0.00  0.00    +0.107 C 
ATOM     13  C   LIG    1      -21.402  76.522  29.423  0.00  0.00    +0.021 C 
ATOM     14  C   LIG    1      -22.560  76.218  30.358  0.00  0.00    +0.029 C 
BRANCH  10  18
ATOM     15  F   LIG    1      -24.077  76.540  36.189  0.00  0.00    -0.204 F 
ATOM     16  C   LIG    1      -24.023  76.966  34.922  0.00  0.00    +0.142 A 
ATOM     17  C   LIG    1      -23.034  76.498  34.067  0.00  0.00    +0.046 A 
ATOM     18  C   LIG    1      -22.990  76.951  32.741  0.00  0.00    -0.006 A 
ATOM     19  C   LIG    1      -23.958  77.884  32.362  0.00  0.00    +0.116 A 
ATOM     20  N   LIG    1      -24.934  78.354  33.178  0.00  0.00    -0.260 NA
ATOM     21  C   LIG    1      -24.944  77.879  34.445  0.00  0.00    +0.149 A 
ENDBRANCH  10  18
ENDBRANCH   1  11
BRANCH   4  22
ATOM     22  C   LIG    1      -20.416  80.219  36.232  0.00  0.00    +0.250 C 
ATOM     23  N   LIG    1      -21.611  79.550  36.331  0.00  0.00    -0.297 N 
ATOM     24  H   LIG    1      -21.636  78.580  36.007  0.00  0.00    +0.150 HD
ATOM     25  O   LIG    1      -20.269  81.388  36.601  0.00  0.00    -0.270 OA
BRANCH  23  26
ATOM     26  C   LIG    1      -22.828  80.168  36.847  0.00  0.00    +0.130 C 
ATOM     27  C   LIG    1      -22.832  80.552  38.324  0.00  0.00    +0.037 C 
ATOM     28  C   LIG    1      -23.635  79.377  37.877  0.00  0.00    +0.037 C 
BRANCH  26  29
ATOM     29  C   LIG    1      -23.638  81.056  35.881  0.00  0.00    +0.411 C 
ATOM     30  F   LIG    1      -23.311  80.814  34.589  0.00  0.00    -0.168 F 
ATOM     31  F   LIG    1      -23.375  82.368  36.120  0.00  0.00    -0.168 F 
ATOM     32  F   LIG    1      -24.975  80.895  36.020  0.00  0.00    -0.168 F 
ENDBRANCH  26  29
ENDBRANCH  23  26
ENDBRANCH   4  22
TORSDOF 5
ENDMDL
MODEL 6
REMARK VINA RESULT:      -5.5     16.566     18.595
REMARK  Name = pdb/CHEMBL3675973.pdb
REMARK                            x       y       z     vdW  Elec       q    Type
REMARK                         _______ _______ _______ _____ _____    ______ ____
ROOT
ATOM      1  C   LIG    1      -20.962  76.972  14.956  0.00  0.00    +0.126 A 
ATOM      2  N   LIG    1      -20.780  75.936  15.755  0.00  0.00    -0.212 NA
ATOM      3  C   LIG    1      -19.498  75.658  16.160  0.00  0.00    +0.170 A 
ATOM      4  C   LIG    1      -18.974  74.654  16.960  0.00  0.00    +0.100 A 
ATOM      5  C   LIG    1      -17.574  74.858  16.893  0.00  0.00    +0.150 A 
ATOM      6  N   LIG    1      -17.229  75.930  16.187  0.00  0.00    -0.173 NA
ATOM      7  N   LIG    1      -18.406  76.430  15.752  0.00  0.00    -0.221 N 
ATOM      8  C   LIG    1      -18.600  77.571  14.998  0.00  0.00    +0.118 A 
ATOM      9  C   LIG    1      -19.828  77.905  14.597  0.00  0.00    +0.063 A 
ENDROOT
BRANCH   1  11
ATOM     10  C   LIG    1      -23.282  77.986  15.090  0.00  0.00    +0.107 C 
ATOM     11  N   LIG    1      -22.223  77.207  14.429  0.00  0.00    -0.308 N 
ATOM     12  C   LIG    1      -22.781  76.414  13.336  0.00  0.00    +0.107 C 
ATOM     13  C   LIG    1      -24.261  76.322  13.691  0.00  0.00    +0.021 C 
ATOM     14  C   LIG    1      -24.547  77.695  14.275  0.00  0.00    +0.029 C 
BRANCH  10  18
ATOM     15  F   LIG    1      -22.523  82.204  17.522  0.00  0.00    -0.204 F 
ATOM     16  C   LIG    1      -22.612  81.525  16.372  0.00  0.00    +0.142 A 
ATOM     17  C   LIG    1      -22.885  80.163  16.381  0.00  0.00    +0.046 A 
ATOM     18  C   LIG    1      -22.978  79.465  15.170  0.00  0.00    -0.006 A 
ATOM     19  C   LIG    1      -22.765  80.200  14.002  0.00  0.00    +0.116 A 
ATOM     20  N   LIG    1      -22.501  81.530  13.967  0.00  0.00    -0.260 NA
ATOM     21  C   LIG    1      -22.433  82.164  15.160  0.00  0.00    +0.149 A 
ENDBRANCH  10  18
ENDBRANCH   1  11
BRANCH   4  22
ATOM     22  C   LIG    1      -19.663  73.610  17.697  0.00  0.00    +0.250 C 
ATOM     23  N   LIG    1      -20.723  73.037  17.037  0.00  0.00    -0.297 N 
ATOM     24  H   LIG    1      -20.922  73.367  16.089  0.00  0.00    +0.150 HD
ATOM     25  O   LIG    1      -19.328  73.282  18.838  0.00  0.00    -0.270 OA
BRANCH  23  26
ATOM     26  C   LIG    1      -21.572  72.012  17.635  0.00  0.00    +0.130 C 
ATOM     27  C   LIG    1      -20.951  70.632  17.835  0.00  0.00    +0.037 C 
ATOM     28  C   LIG    1      -21.965  70.824  16.757  0.00  0.00    +0.037 C 
BRANCH  26  29
ATOM     29  C   LIG    1      -22.621  72.473  18.667  0.00  0.00    +0.411 C 
ATOM     30  F   LIG    1      -22.902  73.792  18.537  0.00  0.00    -0.168 F 
ATOM     31  F   LIG    1      -22.148  72.289  19.929  0.00  0.00    -0.168 F 
ATOM     32  F   LIG    1      -23.780  71.780  18.580  0.00  0.00    -0.168 F 
ENDBRANCH  26  29
ENDBRANCH  23  26
ENDBRANCH   4  22
TORSDOF 5
ENDMDL
MODEL 7
REMARK VINA RESULT:      -5.5     18.645     21.252
REMARK  Name = pdb/CHEMBL3675973.pdb
REMARK                            x       y       z     vdW  Elec       q    Type
REMARK                         _______ _______ _______ _____ _____    ______ ____
ROOT
ATOM      1  C   LIG    1      -22.429  85.682  12.022  0.00  0.00    +0.126 A 
ATOM      2  N   LIG    1      -22.786  84.620  12.719  0.00  0.00    -0.212 NA
ATOM      3  C   LIG    1      -23.728  83.783  12.173  0.00  0.00    +0.170 A 
ATOM      4  C   LIG    1      -24.325  82.623  12.644  0.00  0.00    +0.100 A 
ATOM      5  C   LIG    1      -25.291  82.310  11.656  0.00  0.00    +0.150 A 
ATOM      6  N   LIG    1      -25.270  83.136  10.615  0.00  0.00    -0.173 NA
ATOM      7  N   LIG    1      -24.302  84.027  10.922  0.00  0.00    -0.221 N 
ATOM      8  C   LIG    1      -23.862  85.080  10.144  0.00  0.00    +0.118 A 
ATOM      9  C   LIG    1      -22.930  85.912  10.614  0.00  0.00    +0.063 A 
ENDROOT
BRANCH   1  11
ATOM     10  C   LIG    1      -20.721  86.364  13.769  0.00  0.00    +0.107 C 
ATOM     11  N   LIG    1      -21.575  86.613  12.595  0.00  0.00    -0.308 N 
ATOM     12  C   LIG    1      -21.687  88.047  12.341  0.00  0.00    +0.107 C 
ATOM     13  C   LIG    1      -21.326  88.669  13.685  0.00  0.00    +0.021 C 
ATOM     14  C   LIG    1      -20.226  87.753  14.190  0.00  0.00    +0.029 C 
BRANCH  10  18
ATOM     15  F   LIG    1      -18.609  81.913  13.771  0.00  0.00    -0.204 F 
ATOM     16  C   LIG    1      -18.559  83.223  13.502  0.00  0.00    +0.142 A 
ATOM     17  C   LIG    1      -19.651  84.037  13.775  0.00  0.00    +0.046 A 
ATOM     18  C   LIG    1      -19.585  85.407  13.491  0.00  0.00    -0.006 A 
ATOM     19  C   LIG    1      -18.399  85.875  12.918  0.00  0.00    +0.116 A 
ATOM     20  N   LIG    1      -17.320  85.101  12.645  0.00  0.00    -0.260 NA
ATOM     21  C   LIG    1      -17.426  83.787  12.948  0.00  0.00    +0.149 A 
ENDBRANCH  10  18
ENDBRANCH   1  11
BRANCH   4  22
ATOM     22  C   LIG    1      -24.061  81.882  13.864  0.00  0.00    +0.250 C 
ATOM     23  N   LIG    1      -22.735  81.793  14.213  0.00  0.00    -0.297 N 
ATOM     24  H   LIG    1      -22.056  82.268  13.612  0.00  0.00    +0.150 HD
ATOM     25  O   LIG    1      -24.964  81.358  14.521  0.00  0.00    -0.270 OA
BRANCH  23  26
ATOM     26  C   LIG    1      -22.268  81.042  15.374  0.00  0.00    +0.130 C 
ATOM     27  C   LIG    1      -22.437  81.706  16.738  0.00  0.00    +0.037 C 
ATOM     28  C   LIG    1      -21.073  81.608  16.142  0.00  0.00    +0.037 C 
BRANCH  26  29
ATOM     29  C   LIG    1      -22.375  79.506  15.315  0.00  0.00    +0.411 C 
ATOM     30  F   LIG    1      -22.538  79.065  14.045  0.00  0.00    -0.168 F 
ATOM     31  F   LIG    1      -23.456  79.084  16.025  0.00  0.00    -0.168 F 
ATOM     32  F   LIG    1      -21.295  78.885  15.845  0.00  0.00    -0.168 F 
ENDBRANCH  26  29
ENDBRANCH  23  26
ENDBRANCH   4  22
TORSDOF 5
ENDMDL
MODEL 8
REMARK VINA RESULT:      -5.4      2.344      4.733
REMARK  Name = pdb/CHEMBL3675973.pdb
REMARK                            x       y       z     vdW  Elec       q    Type
REMARK                         _______ _______ _______ _____ _____    ______ ____
ROOT
ATOM      1  C   LIG    1      -24.650  77.413  33.887  0.00  0.00    +0.126 A 
ATOM      2  N   LIG    1      -23.540  77.476  33.174  0.00  0.00    -0.212 NA
ATOM      3  C   LIG    1      -23.647  77.351  31.810  0.00  0.00    +0.170 A 
ATOM      4  C   LIG    1      -22.696  77.349  30.801  0.00  0.00    +0.100 A 
ATOM      5  C   LIG    1      -23.441  77.065  29.630  0.00  0.00    +0.150 A 
ATOM      6  N   LIG    1      -24.750  76.970  29.845  0.00  0.00    -0.173 NA
ATOM      7  N   LIG    1      -24.878  77.163  31.176  0.00  0.00    -0.221 N 
ATOM      8  C   LIG    1      -26.052  77.195  31.905  0.00  0.00    +0.118 A 
ATOM      9  C   LIG    1      -26.010  77.340  33.230  0.00  0.00    +0.063 A 
ENDROOT
BRANCH   1  11
ATOM     10  C   LIG    1      -23.392  77.843  36.046  0.00  0.00    +0.107 C 
ATOM     11  N   LIG    1      -24.566  77.411  35.271  0.00  0.00    -0.308 N 
ATOM     12  C   LIG    1      -25.480  76.643  36.114  0.00  0.00    +0.107 C 
ATOM     13  C   LIG    1      -24.587  76.173  37.257  0.00  0.00    +0.021 C 
ATOM     14  C   LIG    1      -23.672  77.365  37.476  0.00  0.00    +0.029 C 
BRANCH  10  18
ATOM     15  F   LIG    1      -20.625  81.808  35.095  0.00  0.00    -0.204 F 
ATOM     16  C   LIG    1      -21.776  81.266  35.511  0.00  0.00    +0.142 A 
ATOM     17  C   LIG    1      -21.933  79.887  35.536  0.00  0.00    +0.046 A 
ATOM     18  C   LIG    1      -23.143  79.332  35.977  0.00  0.00    -0.006 A 
ATOM     19  C   LIG    1      -24.145  80.229  36.354  0.00  0.00    +0.116 A 
ATOM     20  N   LIG    1      -24.014  81.579  36.342  0.00  0.00    -0.260 NA
ATOM     21  C   LIG    1      -22.825  82.067  35.920  0.00  0.00    +0.149 A 
ENDBRANCH  10  18
ENDBRANCH   1  11
BRANCH   4  22
ATOM     22  C   LIG    1      -21.263  77.566  30.885  0.00  0.00    +0.250 C 
ATOM     23  N   LIG    1      -20.691  77.206  32.081  0.00  0.00    -0.297 N 
ATOM     24  H   LIG    1      -21.304  76.800  32.793  0.00  0.00    +0.150 HD
ATOM     25  O   LIG    1      -20.619  78.055  29.953  0.00  0.00    -0.270 OA
BRANCH  23  26
ATOM     26  C   LIG    1      -19.275  77.402  32.375  0.00  0.00    +0.130 C 
ATOM     27  C   LIG    1      -18.277  76.759  31.416  0.00  0.00    +0.037 C 
ATOM     28  C   LIG    1      -18.464  76.168  32.773  0.00  0.00    +0.037 C 
BRANCH  26  29
ATOM     29  C   LIG    1      -18.866  78.731  33.039  0.00  0.00    +0.411 C 
ATOM     30  F   LIG    1      -19.677  79.748  32.662  0.00  0.00    -0.168 F 
ATOM     31  F   LIG    1      -17.603  79.070  32.668  0.00  0.00    -0.168 F 
ATOM     32  F   LIG    1      -18.869  78.663  34.391  0.00  0.00    -0.168 F 
ENDBRANCH  26  29
ENDBRANCH  23  26
ENDBRANCH   4  22
TORSDOF 5
ENDMDL
MODEL 9
REMARK VINA RESULT:      -5.4     18.342     21.179
REMARK  Name = pdb/CHEMBL3675973.pdb
REMARK                            x       y       z     vdW  Elec       q    Type
REMARK                         _______ _______ _______ _____ _____    ______ ____
ROOT
ATOM      1  C   LIG    1      -20.409  84.902  13.635  0.00  0.00    +0.126 A 
ATOM      2  N   LIG    1      -20.501  83.658  14.070  0.00  0.00    -0.212 NA
ATOM      3  C   LIG    1      -19.352  82.908  14.112  0.00  0.00    +0.170 A 
ATOM      4  C   LIG    1      -19.114  81.594  14.486  0.00  0.00    +0.100 A 
ATOM      5  C   LIG    1      -17.742  81.397  14.190  0.00  0.00    +0.150 A 
ATOM      6  N   LIG    1      -17.134  82.492  13.744  0.00  0.00    -0.173 NA
ATOM      7  N   LIG    1      -18.115  83.422  13.713  0.00  0.00    -0.221 N 
ATOM      8  C   LIG    1      -17.993  84.749  13.351  0.00  0.00    +0.118 A 
ATOM      9  C   LIG    1      -19.073  85.533  13.317  0.00  0.00    +0.063 A 
ENDROOT
BRANCH   1  11
ATOM     10  C   LIG    1      -22.261  85.842  12.180  0.00  0.00    +0.107 C 
ATOM     11  N   LIG    1      -21.566  85.646  13.463  0.00  0.00    -0.308 N 
ATOM     12  C   LIG    1      -22.030  86.621  14.448  0.00  0.00    +0.107 C 
ATOM     13  C   LIG    1      -22.619  87.733  13.587  0.00  0.00    +0.021 C 
ATOM     14  C   LIG    1      -23.270  86.964  12.451  0.00  0.00    +0.029 C 
BRANCH  10  18
ATOM     15  F   LIG    1      -24.801  81.653  12.714  0.00  0.00    -0.204 F 
ATOM     16  C   LIG    1      -24.164  82.535  11.935  0.00  0.00    +0.142 A 
ATOM     17  C   LIG    1      -23.590  83.673  12.487  0.00  0.00    +0.046 A 
ATOM     18  C   LIG    1      -22.923  84.586  11.659  0.00  0.00    -0.006 A 
ATOM     19  C   LIG    1      -22.895  84.294  10.294  0.00  0.00    +0.116 A 
ATOM     20  N   LIG    1      -23.445  83.190   9.732  0.00  0.00    -0.260 NA
ATOM     21  C   LIG    1      -24.068  82.330  10.571  0.00  0.00    +0.149 A 
ENDBRANCH  10  18
ENDBRANCH   1  11
BRANCH   4  22
ATOM     22  C   LIG    1      -20.031  80.614  15.039  0.00  0.00    +0.250 C 
ATOM     23  N   LIG    1      -21.244  80.529  14.400  0.00  0.00    -0.297 N 
ATOM     24  H   LIG    1      -21.392  81.134  13.588  0.00  0.00    +0.150 HD
ATOM     25  O   LIG    1      -19.740  79.926  16.021  0.00  0.00    -0.270 OA
BRANCH  23  26
ATOM     26  C   LIG    1      -22.316  79.644  14.845  0.00  0.00    +0.130 C 
ATOM     27  C   LIG    1      -22.014  78.148  14.857  0.00  0.00    +0.037 C 
ATOM     28  C   LIG    1      -22.920  78.698  13.807  0.00  0.00    +0.037 C 
BRANCH  26  29
ATOM     29  C   LIG    1      -23.279  80.182  15.921  0.00  0.00    +0.411 C 
ATOM     30  F   LIG    1      -23.909  81.309  15.510  0.00  0.00    -0.168 F 
ATOM     31  F   LIG    1      -22.591  80.499  17.049  0.00  0.00    -0.168 F 
ATOM     32  F   LIG    1      -24.219  79.276  16.280  0.00  0.00    -0.168 F 
ENDBRANCH  26  29
ENDBRANCH  23  26
ENDBRANCH   4  22
TORSDOF 5
ENDMDL
