MODEL 1
REMARK VINA RESULT:      -6.7      0.000      0.000
REMARK  Name = pdb/CHEMBL3954487.pdb
REMARK                            x       y       z     vdW  Elec       q    Type
REMARK                         _______ _______ _______ _____ _____    ______ ____
ROOT
ATOM      1  C   LIG    1      -22.190  85.396  14.755  0.00  0.00    +0.149 A 
ATOM      2  N   LIG    1      -21.247  85.363  13.798  0.00  0.00    -0.160 NA
ATOM      3  N   LIG    1      -21.230  86.607  13.271  0.00  0.00    -0.218 N 
ATOM      4  C   LIG    1      -22.295  87.380  13.743  0.00  0.00    +0.129 A 
ATOM      5  C   LIG    1      -22.849  86.648  14.768  0.00  0.00    +0.078 A 
ENDROOT
BRANCH   3   6
ATOM      6  C   LIG    1      -20.247  86.961  12.306  0.00  0.00    +0.067 A 
ATOM      7  C   LIG    1      -20.362  86.536  10.978  0.00  0.00    +0.028 A 
ATOM      8  C   LIG    1      -19.379  86.862  10.044  0.00  0.00    +0.002 A 
ATOM      9  C   LIG    1      -18.292  87.643  10.423  0.00  0.00    +0.000 A 
ATOM     10  C   LIG    1      -18.186  88.103  11.735  0.00  0.00    +0.002 A 
ATOM     11  C   LIG    1      -19.163  87.768  12.679  0.00  0.00    +0.028 A 
ENDBRANCH   3   6
BRANCH   4  12
ATOM     12  N   LIG    1      -22.751  88.594  13.209  0.00  0.00    -0.266 N 
ATOM     13  H   LIG    1      -22.432  89.444  13.651  0.00  0.00    +0.157 HD
ATOM     14  C   LIG    1      -23.541  88.695  12.012  0.00  0.00    +0.251 C 
ATOM     15  O   LIG    1      -23.874  87.710  11.394  0.00  0.00    -0.270 OA
BRANCH  14  16
ATOM     16  C   LIG    1      -23.856  90.057  11.504  0.00  0.00    +0.056 A 
ATOM     17  C   LIG    1      -23.016  90.813  10.692  0.00  0.00    +0.054 A 
ATOM     18 CL   LIG    1      -21.422  90.329  10.259  0.00  0.00    -0.083 Cl
ATOM     19  C   LIG    1      -23.421  92.076  10.255  0.00  0.00    +0.041 A 
ATOM     20  C   LIG    1      -24.625  92.640  10.698  0.00  0.00    +0.052 A 
ATOM     21 CL   LIG    1      -24.951  94.233  10.109  0.00  0.00    -0.083 Cl
ATOM     22  C   LIG    1      -25.442  91.955  11.616  0.00  0.00    +0.019 A 
ATOM     23  C   LIG    1      -25.058  90.631  11.948  0.00  0.00    +0.026 A 
BRANCH  22  24
ATOM     24  C   LIG    1      -26.538  92.572  12.398  0.00  0.00    +0.072 A 
ATOM     25  N   LIG    1      -27.575  92.986  11.621  0.00  0.00    -0.255 NA
ATOM     26  C   LIG    1      -28.703  93.417  12.226  0.00  0.00    +0.111 A 
ATOM     27  C   LIG    1      -28.861  93.464  13.596  0.00  0.00    +0.020 A 
ATOM     28  C   LIG    1      -27.784  93.087  14.387  0.00  0.00    +0.004 A 
ATOM     29  C   LIG    1      -26.601  92.657  13.785  0.00  0.00    +0.028 A 
ENDBRANCH  22  24
ENDBRANCH  14  16
ENDBRANCH   4  12
BRANCH   1  30
ATOM     30  C   LIG    1      -22.503  84.231  15.582  0.00  0.00    +0.236 C 
ATOM     31  N   LIG    1      -22.355  83.048  15.107  0.00  0.00    -0.241 NA
BRANCH  30  32
ATOM     32  O   LIG    1      -22.899  84.547  16.830  0.00  0.00    -0.491 OA
ATOM     33  H   LIG    1      -22.509  85.366  17.162  0.00  0.00    +0.294 HD
ENDBRANCH  30  32
BRANCH  31  34
ATOM     34  C   LIG    1      -22.578  81.848  15.912  0.00  0.00    +0.222 C 
BRANCH  34  35
ATOM     35  C   LIG    1      -23.704  81.025  15.412  0.00  0.00    +0.158 A 
ATOM     36  C   LIG    1      -24.140  79.738  15.607  0.00  0.00    +0.069 A 
ATOM     37  C   LIG    1      -25.233  79.615  14.728  0.00  0.00    +0.157 A 
ATOM     38  N   LIG    1      -25.463  80.744  14.054  0.00  0.00    -0.086 NA
ATOM     39  O   LIG    1      -24.526  81.642  14.518  0.00  0.00    -0.358 OA
ENDBRANCH  34  35
ENDBRANCH  31  34
ENDBRANCH   1  30
TORSDOF 8
ENDMDL
MODEL 2
REMARK VINA RESULT:      -6.6     22.049     25.048
REMARK  Name = pdb/CHEMBL3954487.pdb
REMARK                            x       y       z     vdW  Elec       q    Type
REMARK                         _______ _______ _______ _____ _____    ______ ____
ROOT
ATOM      1  C   LIG    1      -35.114  67.245  22.481  0.00  0.00    +0.149 A 
ATOM      2  N   LIG    1      -34.687  67.723  23.662  0.00  0.00    -0.160 NA
ATOM      3  N   LIG    1      -35.667  68.548  24.089  0.00  0.00    -0.218 N 
ATOM      4  C   LIG    1      -36.629  68.761  23.097  0.00  0.00    +0.129 A 
ATOM      5  C   LIG    1      -36.338  67.850  22.107  0.00  0.00    +0.078 A 
ENDROOT
BRANCH   3   6
ATOM      6  C   LIG    1      -35.596  69.134  25.384  0.00  0.00    +0.067 A 
ATOM      7  C   LIG    1      -36.518  68.788  26.377  0.00  0.00    +0.028 A 
ATOM      8  C   LIG    1      -36.460  69.388  27.635  0.00  0.00    +0.002 A 
ATOM      9  C   LIG    1      -35.459  70.312  27.918  0.00  0.00    +0.000 A 
ATOM     10  C   LIG    1      -34.513  70.636  26.946  0.00  0.00    +0.002 A 
ATOM     11  C   LIG    1      -34.574  70.047  25.680  0.00  0.00    +0.028 A 
ENDBRANCH   3   6
BRANCH   4  12
ATOM     12  N   LIG    1      -37.613  69.760  23.083  0.00  0.00    -0.266 N 
ATOM     13  H   LIG    1      -37.404  70.610  22.580  0.00  0.00    +0.157 HD
ATOM     14  C   LIG    1      -38.930  69.594  23.637  0.00  0.00    +0.251 C 
ATOM     15  O   LIG    1      -39.260  68.560  24.171  0.00  0.00    -0.270 OA
BRANCH  14  16
ATOM     16  C   LIG    1      -39.904  70.701  23.447  0.00  0.00    +0.056 A 
ATOM     17  C   LIG    1      -41.054  70.619  22.668  0.00  0.00    +0.054 A 
ATOM     18 CL   LIG    1      -41.453  69.252  21.701  0.00  0.00    -0.083 Cl
ATOM     19  C   LIG    1      -41.913  71.716  22.576  0.00  0.00    +0.041 A 
ATOM     20  C   LIG    1      -41.589  72.939  23.179  0.00  0.00    +0.052 A 
ATOM     21 CL   LIG    1      -42.729  74.212  22.921  0.00  0.00    -0.083 Cl
ATOM     22  C   LIG    1      -40.374  73.095  23.873  0.00  0.00    +0.019 A 
ATOM     23  C   LIG    1      -39.583  71.931  24.045  0.00  0.00    +0.026 A 
BRANCH  22  24
ATOM     24  C   LIG    1      -39.778  74.396  24.253  0.00  0.00    +0.072 A 
ATOM     25  N   LIG    1      -38.548  74.270  24.821  0.00  0.00    -0.255 NA
ATOM     26  C   LIG    1      -37.832  75.387  25.064  0.00  0.00    +0.111 A 
ATOM     27  C   LIG    1      -38.280  76.658  24.768  0.00  0.00    +0.020 A 
ATOM     28  C   LIG    1      -39.554  76.789  24.233  0.00  0.00    +0.004 A 
ATOM     29  C   LIG    1      -40.323  75.650  23.991  0.00  0.00    +0.028 A 
ENDBRANCH  22  24
ENDBRANCH  14  16
ENDBRANCH   4  12
BRANCH   1  30
ATOM     30  C   LIG    1      -34.332  66.290  21.698  0.00  0.00    +0.236 C 
ATOM     31  N   LIG    1      -33.523  66.711  20.795  0.00  0.00    -0.241 NA
BRANCH  30  32
ATOM     32  O   LIG    1      -34.534  65.007  22.054  0.00  0.00    -0.491 OA
ATOM     33  H   LIG    1      -35.417  64.840  22.409  0.00  0.00    +0.294 HD
ENDBRANCH  30  32
BRANCH  31  34
ATOM     34  C   LIG    1      -32.660  65.808  20.035  0.00  0.00    +0.222 C 
BRANCH  34  35
ATOM     35  C   LIG    1      -31.492  66.498  19.439  0.00  0.00    +0.158 A 
ATOM     36  C   LIG    1      -30.182  66.174  19.191  0.00  0.00    +0.069 A 
ATOM     37  C   LIG    1      -29.629  67.364  18.684  0.00  0.00    +0.157 A 
ATOM     38  N   LIG    1      -30.532  68.344  18.609  0.00  0.00    -0.086 NA
ATOM     39  O   LIG    1      -31.713  67.783  19.045  0.00  0.00    -0.358 OA
ENDBRANCH  34  35
ENDBRANCH  31  34
ENDBRANCH   1  30
TORSDOF 8
ENDMDL
MODEL 3
REMARK VINA RESULT:      -6.5     20.435     23.162
REMARK  Name = pdb/CHEMBL3954487.pdb
REMARK                            x       y       z     vdW  Elec       q    Type
REMARK                         _______ _______ _______ _____ _____    ______ ____
ROOT
ATOM      1  C   LIG    1      -31.154  75.076  30.448  0.00  0.00    +0.149 A 
ATOM      2  N   LIG    1      -31.269  76.306  29.921  0.00  0.00    -0.160 NA
ATOM      3  N   LIG    1      -32.417  76.284  29.209  0.00  0.00    -0.218 N 
ATOM      4  C   LIG    1      -32.934  74.989  29.108  0.00  0.00    +0.129 A 
ATOM      5  C   LIG    1      -32.191  74.231  29.984  0.00  0.00    +0.078 A 
ENDROOT
BRANCH   3   6
ATOM      6  C   LIG    1      -32.913  77.477  28.615  0.00  0.00    +0.067 A 
ATOM      7  C   LIG    1      -32.287  78.031  27.493  0.00  0.00    +0.028 A 
ATOM      8  C   LIG    1      -32.762  79.217  26.933  0.00  0.00    +0.002 A 
ATOM      9  C   LIG    1      -33.885  79.839  27.470  0.00  0.00    +0.000 A 
ATOM     10  C   LIG    1      -34.538  79.275  28.566  0.00  0.00    +0.002 A 
ATOM     11  C   LIG    1      -34.059  78.093  29.138  0.00  0.00    +0.028 A 
ENDBRANCH   3   6
BRANCH   4  12
ATOM     12  N   LIG    1      -33.931  74.550  28.225  0.00  0.00    -0.266 N 
ATOM     13  H   LIG    1      -33.638  74.239  27.310  0.00  0.00    +0.157 HD
ATOM     14  C   LIG    1      -35.316  74.409  28.588  0.00  0.00    +0.251 C 
ATOM     15  O   LIG    1      -35.704  74.682  29.700  0.00  0.00    -0.270 OA
BRANCH  14  16
ATOM     16  C   LIG    1      -36.239  73.824  27.579  0.00  0.00    +0.056 A 
ATOM     17  C   LIG    1      -36.193  72.507  27.133  0.00  0.00    +0.054 A 
ATOM     18 CL   LIG    1      -34.970  71.388  27.595  0.00  0.00    -0.083 Cl
ATOM     19  C   LIG    1      -37.124  72.057  26.195  0.00  0.00    +0.041 A 
ATOM     20  C   LIG    1      -38.051  72.936  25.619  0.00  0.00    +0.052 A 
ATOM     21 CL   LIG    1      -39.094  72.232  24.433  0.00  0.00    -0.083 Cl
ATOM     22  C   LIG    1      -38.047  74.302  25.955  0.00  0.00    +0.019 A 
ATOM     23  C   LIG    1      -37.167  74.701  26.993  0.00  0.00    +0.026 A 
BRANCH  22  24
ATOM     24  C   LIG    1      -38.732  75.366  25.185  0.00  0.00    +0.072 A 
ATOM     25  N   LIG    1      -37.893  76.368  24.806  0.00  0.00    -0.255 NA
ATOM     26  C   LIG    1      -38.359  77.315  23.964  0.00  0.00    +0.111 A 
ATOM     27  C   LIG    1      -39.645  77.323  23.464  0.00  0.00    +0.020 A 
ATOM     28  C   LIG    1      -40.513  76.326  23.889  0.00  0.00    +0.004 A 
ATOM     29  C   LIG    1      -40.061  75.348  24.776  0.00  0.00    +0.028 A 
ENDBRANCH  22  24
ENDBRANCH  14  16
ENDBRANCH   4  12
BRANCH   1  30
ATOM     30  C   LIG    1      -30.037  74.699  31.312  0.00  0.00    +0.236 C 
ATOM     31  N   LIG    1      -29.054  75.508  31.482  0.00  0.00    -0.241 NA
BRANCH  30  32
ATOM     32  O   LIG    1      -30.187  73.493  31.894  0.00  0.00    -0.491 OA
ATOM     33  H   LIG    1      -29.606  72.813  31.528  0.00  0.00    +0.294 HD
ENDBRANCH  30  32
BRANCH  31  34
ATOM     34  C   LIG    1      -27.949  75.217  32.393  0.00  0.00    +0.222 C 
BRANCH  34  35
ATOM     35  C   LIG    1      -26.626  75.533  31.808  0.00  0.00    +0.158 A 
ATOM     36  C   LIG    1      -25.353  75.033  31.930  0.00  0.00    +0.069 A 
ATOM     37  C   LIG    1      -24.573  75.895  31.137  0.00  0.00    +0.157 A 
ATOM     38  N   LIG    1      -25.309  76.845  30.557  0.00  0.00    -0.086 NA
ATOM     39  O   LIG    1      -26.606  76.589  30.947  0.00  0.00    -0.358 OA
ENDBRANCH  34  35
ENDBRANCH  31  34
ENDBRANCH   1  30
TORSDOF 8
ENDMDL
MODEL 4
REMARK VINA RESULT:      -6.5     19.978     23.907
REMARK  Name = pdb/CHEMBL3954487.pdb
REMARK                            x       y       z     vdW  Elec       q    Type
REMARK                         _______ _______ _______ _____ _____    ______ ____
ROOT
ATOM      1  C   LIG    1      -38.052  76.722  25.670  0.00  0.00    +0.149 A 
ATOM      2  N   LIG    1      -38.407  77.968  25.316  0.00  0.00    -0.160 NA
ATOM      3  N   LIG    1      -39.558  77.829  24.623  0.00  0.00    -0.218 N 
ATOM      4  C   LIG    1      -39.837  76.486  24.355  0.00  0.00    +0.129 A 
ATOM      5  C   LIG    1      -38.936  75.770  25.109  0.00  0.00    +0.078 A 
ENDROOT
BRANCH   3   6
ATOM      6  C   LIG    1      -40.284  78.978  24.202  0.00  0.00    +0.067 A 
ATOM      7  C   LIG    1      -41.647  79.106  24.488  0.00  0.00    +0.028 A 
ATOM      8  C   LIG    1      -42.359  80.222  24.047  0.00  0.00    +0.002 A 
ATOM      9  C   LIG    1      -41.705  81.232  23.348  0.00  0.00    +0.000 A 
ATOM     10  C   LIG    1      -40.338  81.130  23.090  0.00  0.00    +0.002 A 
ATOM     11  C   LIG    1      -39.623  80.008  23.519  0.00  0.00    +0.028 A 
ENDBRANCH   3   6
BRANCH   4  12
ATOM     12  N   LIG    1      -40.771  75.990  23.434  0.00  0.00    -0.266 N 
ATOM     13  H   LIG    1      -40.460  75.858  22.482  0.00  0.00    +0.157 HD
ATOM     14  C   LIG    1      -42.095  75.555  23.792  0.00  0.00    +0.251 C 
ATOM     15  O   LIG    1      -42.485  75.608  24.936  0.00  0.00    -0.270 OA
BRANCH  14  16
ATOM     16  C   LIG    1      -42.935  74.947  22.726  0.00  0.00    +0.056 A 
ATOM     17  C   LIG    1      -43.000  73.585  22.450  0.00  0.00    +0.054 A 
ATOM     18 CL   LIG    1      -42.012  72.408  23.225  0.00  0.00    -0.083 Cl
ATOM     19  C   LIG    1      -43.841  73.119  21.436  0.00  0.00    +0.041 A 
ATOM     20  C   LIG    1      -44.553  74.012  20.623  0.00  0.00    +0.052 A 
ATOM     21 CL   LIG    1      -45.502  73.276  19.380  0.00  0.00    -0.083 Cl
ATOM     22  C   LIG    1      -44.417  75.402  20.795  0.00  0.00    +0.019 A 
ATOM     23  C   LIG    1      -43.647  75.835  21.904  0.00  0.00    +0.026 A 
BRANCH  22  24
ATOM     24  C   LIG    1      -44.840  76.421  19.808  0.00  0.00    +0.072 A 
ATOM     25  N   LIG    1      -45.598  77.409  20.359  0.00  0.00    -0.255 NA
ATOM     26  C   LIG    1      -45.912  78.480  19.601  0.00  0.00    +0.111 A 
ATOM     27  C   LIG    1      -45.506  78.631  18.290  0.00  0.00    +0.020 A 
ATOM     28  C   LIG    1      -44.773  77.601  17.716  0.00  0.00    +0.004 A 
ATOM     29  C   LIG    1      -44.454  76.473  18.473  0.00  0.00    +0.028 A 
ENDBRANCH  22  24
ENDBRANCH  14  16
ENDBRANCH   4  12
BRANCH   1  30
ATOM     30  C   LIG    1      -36.853  76.447  26.459  0.00  0.00    +0.236 C 
ATOM     31  N   LIG    1      -36.305  77.385  27.144  0.00  0.00    -0.241 NA
BRANCH  30  32
ATOM     32  O   LIG    1      -36.454  75.161  26.406  0.00  0.00    -0.491 OA
ATOM     33  H   LIG    1      -36.877  74.599  27.068  0.00  0.00    +0.294 HD
ENDBRANCH  30  32
BRANCH  31  34
ATOM     34  C   LIG    1      -35.152  77.151  28.011  0.00  0.00    +0.222 C 
BRANCH  34  35
ATOM     35  C   LIG    1      -33.938  77.866  27.555  0.00  0.00    +0.158 A 
ATOM     36  C   LIG    1      -33.180  78.910  28.023  0.00  0.00    +0.069 A 
ATOM     37  C   LIG    1      -32.218  79.108  27.015  0.00  0.00    +0.157 A 
ATOM     38  N   LIG    1      -32.361  78.243  26.009  0.00  0.00    -0.086 NA
ATOM     39  O   LIG    1      -33.417  77.435  26.372  0.00  0.00    -0.358 OA
ENDBRANCH  34  35
ENDBRANCH  31  34
ENDBRANCH   1  30
TORSDOF 8
ENDMDL
MODEL 5
REMARK VINA RESULT:      -6.5     21.260     24.977
REMARK  Name = pdb/CHEMBL3954487.pdb
REMARK                            x       y       z     vdW  Elec       q    Type
REMARK                         _______ _______ _______ _____ _____    ______ ____
ROOT
ATOM      1  C   LIG    1      -29.687  75.832  31.298  0.00  0.00    +0.149 A 
ATOM      2  N   LIG    1      -30.467  76.253  30.289  0.00  0.00    -0.160 NA
ATOM      3  N   LIG    1      -31.367  75.264  30.095  0.00  0.00    -0.218 N 
ATOM      4  C   LIG    1      -31.043  74.123  30.836  0.00  0.00    +0.129 A 
ATOM      5  C   LIG    1      -30.033  74.515  31.685  0.00  0.00    +0.078 A 
ENDROOT
BRANCH   3   6
ATOM      6  C   LIG    1      -32.435  75.438  29.173  0.00  0.00    +0.067 A 
ATOM      7  C   LIG    1      -33.463  74.494  29.081  0.00  0.00    +0.028 A 
ATOM      8  C   LIG    1      -34.492  74.657  28.154  0.00  0.00    +0.002 A 
ATOM      9  C   LIG    1      -34.518  75.782  27.335  0.00  0.00    +0.000 A 
ATOM     10  C   LIG    1      -33.518  76.748  27.445  0.00  0.00    +0.002 A 
ATOM     11  C   LIG    1      -32.478  76.583  28.364  0.00  0.00    +0.028 A 
ENDBRANCH   3   6
BRANCH   4  12
ATOM     12  N   LIG    1      -31.574  72.836  30.670  0.00  0.00    -0.266 N 
ATOM     13  H   LIG    1      -32.496  72.662  31.043  0.00  0.00    +0.157 HD
ATOM     14  C   LIG    1      -30.935  71.800  29.903  0.00  0.00    +0.251 C 
ATOM     15  O   LIG    1      -29.870  71.987  29.360  0.00  0.00    -0.270 OA
BRANCH  14  16
ATOM     16  C   LIG    1      -31.671  70.521  29.721  0.00  0.00    +0.056 A 
ATOM     17  C   LIG    1      -31.311  69.310  30.303  0.00  0.00    +0.054 A 
ATOM     18 CL   LIG    1      -29.875  69.087  31.227  0.00  0.00    -0.083 Cl
ATOM     19  C   LIG    1      -32.088  68.171  30.080  0.00  0.00    +0.041 A 
ATOM     20  C   LIG    1      -33.176  68.202  29.197  0.00  0.00    +0.052 A 
ATOM     21 CL   LIG    1      -33.997  66.695  28.989  0.00  0.00    -0.083 Cl
ATOM     22  C   LIG    1      -33.496  69.379  28.496  0.00  0.00    +0.019 A 
ATOM     23  C   LIG    1      -32.760  70.543  28.833  0.00  0.00    +0.026 A 
BRANCH  22  24
ATOM     24  C   LIG    1      -34.387  69.445  27.315  0.00  0.00    +0.072 A 
ATOM     25  N   LIG    1      -33.906  68.746  26.251  0.00  0.00    -0.255 NA
ATOM     26  C   LIG    1      -34.699  68.593  25.168  0.00  0.00    +0.111 A 
ATOM     27  C   LIG    1      -35.975  69.110  25.080  0.00  0.00    +0.020 A 
ATOM     28  C   LIG    1      -36.445  69.864  26.148  0.00  0.00    +0.004 A 
ATOM     29  C   LIG    1      -35.637  70.053  27.269  0.00  0.00    +0.028 A 
ENDBRANCH  22  24
ENDBRANCH  14  16
ENDBRANCH   4  12
BRANCH   1  30
ATOM     30  C   LIG    1      -28.589  76.641  31.825  0.00  0.00    +0.236 C 
ATOM     31  N   LIG    1      -27.673  76.094  32.538  0.00  0.00    -0.241 NA
BRANCH  30  32
ATOM     32  O   LIG    1      -28.647  77.935  31.454  0.00  0.00    -0.491 OA
ATOM     33  H   LIG    1      -28.202  78.532  32.069  0.00  0.00    +0.294 HD
ENDBRANCH  30  32
BRANCH  31  34
ATOM     34  C   LIG    1      -26.512  76.837  33.025  0.00  0.00    +0.222 C 
BRANCH  34  35
ATOM     35  C   LIG    1      -25.563  77.191  31.944  0.00  0.00    +0.158 A 
ATOM     36  C   LIG    1      -24.434  77.964  31.844  0.00  0.00    +0.069 A 
ATOM     37  C   LIG    1      -24.107  77.910  30.476  0.00  0.00    +0.157 A 
ATOM     38  N   LIG    1      -24.960  77.150  29.787  0.00  0.00    -0.086 NA
ATOM     39  O   LIG    1      -25.851  76.665  30.721  0.00  0.00    -0.358 OA
ENDBRANCH  34  35
ENDBRANCH  31  34
ENDBRANCH   1  30
TORSDOF 8
ENDMDL
MODEL 6
REMARK VINA RESULT:      -6.3     21.328     24.638
REMARK  Name = pdb/CHEMBL3954487.pdb
REMARK                            x       y       z     vdW  Elec       q    Type
REMARK                         _______ _______ _______ _____ _____    ______ ____
ROOT
ATOM      1  C   LIG    1      -23.958  79.371  34.477  0.00  0.00    +0.149 A 
ATOM      2  N   LIG    1      -22.940  79.116  33.639  0.00  0.00    -0.160 NA
ATOM      3  N   LIG    1      -23.334  78.048  32.911  0.00  0.00    -0.218 N 
ATOM      4  C   LIG    1      -24.513  77.490  33.416  0.00  0.00    +0.129 A 
ATOM      5  C   LIG    1      -24.971  78.392  34.349  0.00  0.00    +0.078 A 
ENDROOT
BRANCH   3   6
ATOM      6  C   LIG    1      -22.536  77.586  31.829  0.00  0.00    +0.067 A 
ATOM      7  C   LIG    1      -23.080  77.445  30.548  0.00  0.00    +0.028 A 
ATOM      8  C   LIG    1      -22.299  76.963  29.497  0.00  0.00    +0.002 A 
ATOM      9  C   LIG    1      -20.960  76.650  29.713  0.00  0.00    +0.000 A 
ATOM     10  C   LIG    1      -20.399  76.822  30.978  0.00  0.00    +0.002 A 
ATOM     11  C   LIG    1      -21.181  77.293  32.037  0.00  0.00    +0.028 A 
ENDBRANCH   3   6
BRANCH   4  12
ATOM     12  N   LIG    1      -25.047  76.233  33.101  0.00  0.00    -0.266 N 
ATOM     13  H   LIG    1      -24.791  75.457  33.694  0.00  0.00    +0.157 HD
ATOM     14  C   LIG    1      -26.021  76.013  32.065  0.00  0.00    +0.251 C 
ATOM     15  O   LIG    1      -26.429  76.926  31.384  0.00  0.00    -0.270 OA
BRANCH  14  16
ATOM     16  C   LIG    1      -26.581  74.644  31.921  0.00  0.00    +0.056 A 
ATOM     17  C   LIG    1      -27.861  74.266  32.316  0.00  0.00    +0.054 A 
ATOM     18 CL   LIG    1      -28.946  75.309  33.151  0.00  0.00    -0.083 Cl
ATOM     19  C   LIG    1      -28.293  72.953  32.115  0.00  0.00    +0.041 A 
ATOM     20  C   LIG    1      -27.424  71.978  31.607  0.00  0.00    +0.052 A 
ATOM     21 CL   LIG    1      -28.098  70.391  31.473  0.00  0.00    -0.083 Cl
ATOM     22  C   LIG    1      -26.085  72.295  31.311  0.00  0.00    +0.019 A 
ATOM     23  C   LIG    1      -25.714  73.659  31.418  0.00  0.00    +0.026 A 
BRANCH  22  24
ATOM     24  C   LIG    1      -25.008  71.302  31.096  0.00  0.00    +0.072 A 
ATOM     25  N   LIG    1      -25.030  70.759  29.849  0.00  0.00    -0.255 NA
ATOM     26  C   LIG    1      -24.007  69.962  29.474  0.00  0.00    +0.111 A 
ATOM     27  C   LIG    1      -22.935  69.665  30.291  0.00  0.00    +0.020 A 
ATOM     28  C   LIG    1      -22.938  70.181  31.580  0.00  0.00    +0.004 A 
ATOM     29  C   LIG    1      -23.995  70.991  31.998  0.00  0.00    +0.028 A 
ENDBRANCH  22  24
ENDBRANCH  14  16
ENDBRANCH   4  12
BRANCH   1  30
ATOM     30  C   LIG    1      -23.925  80.480  35.429  0.00  0.00    +0.236 C 
ATOM     31  N   LIG    1      -24.954  80.736  36.153  0.00  0.00    -0.241 NA
BRANCH  30  32
ATOM     32  O   LIG    1      -22.742  81.123  35.467  0.00  0.00    -0.491 OA
ATOM     33  H   LIG    1      -22.513  81.456  36.345  0.00  0.00    +0.294 HD
ENDBRANCH  30  32
BRANCH  31  34
ATOM     34  C   LIG    1      -24.952  81.782  37.174  0.00  0.00    +0.222 C 
BRANCH  34  35
ATOM     35  C   LIG    1      -26.015  82.792  36.963  0.00  0.00    +0.158 A 
ATOM     36  C   LIG    1      -27.334  82.918  37.319  0.00  0.00    +0.069 A 
ATOM     37  C   LIG    1      -27.744  84.106  36.686  0.00  0.00    +0.157 A 
ATOM     38  N   LIG    1      -26.750  84.678  36.004  0.00  0.00    -0.086 NA
ATOM     39  O   LIG    1      -25.652  83.871  36.215  0.00  0.00    -0.358 OA
ENDBRANCH  34  35
ENDBRANCH  31  34
ENDBRANCH   1  30
TORSDOF 8
ENDMDL
MODEL 7
REMARK VINA RESULT:      -6.3     19.799     24.423
REMARK  Name = pdb/CHEMBL3954487.pdb
REMARK                            x       y       z     vdW  Elec       q    Type
REMARK                         _______ _______ _______ _____ _____    ______ ____
ROOT
ATOM      1  C   LIG    1      -37.210  76.137  26.032  0.00  0.00    +0.149 A 
ATOM      2  N   LIG    1      -37.579  74.848  25.943  0.00  0.00    -0.160 NA
ATOM      3  N   LIG    1      -38.530  74.813  24.984  0.00  0.00    -0.218 N 
ATOM      4  C   LIG    1      -38.919  76.100  24.600  0.00  0.00    +0.129 A 
ATOM      5  C   LIG    1      -38.007  76.946  25.188  0.00  0.00    +0.078 A 
ENDROOT
BRANCH   3   6
ATOM      6  C   LIG    1      -39.056  73.568  24.542  0.00  0.00    +0.067 A 
ATOM      7  C   LIG    1      -40.323  73.495  23.954  0.00  0.00    +0.028 A 
ATOM      8  C   LIG    1      -40.844  72.265  23.549  0.00  0.00    +0.002 A 
ATOM      9  C   LIG    1      -40.088  71.106  23.699  0.00  0.00    +0.000 A 
ATOM     10  C   LIG    1      -38.809  71.174  24.251  0.00  0.00    +0.002 A 
ATOM     11  C   LIG    1      -38.287  72.402  24.669  0.00  0.00    +0.028 A 
ENDBRANCH   3   6
BRANCH   4  12
ATOM     12  N   LIG    1      -40.056  76.446  23.856  0.00  0.00    -0.266 N 
ATOM     13  H   LIG    1      -39.992  76.378  22.850  0.00  0.00    +0.157 HD
ATOM     14  C   LIG    1      -41.328  76.773  24.443  0.00  0.00    +0.251 C 
ATOM     15  O   LIG    1      -41.482  76.781  25.643  0.00  0.00    -0.270 OA
BRANCH  14  16
ATOM     16  C   LIG    1      -42.474  77.009  23.525  0.00  0.00    +0.056 A 
ATOM     17  C   LIG    1      -43.196  78.195  23.449  0.00  0.00    +0.054 A 
ATOM     18 CL   LIG    1      -42.946  79.532  24.504  0.00  0.00    -0.083 Cl
ATOM     19  C   LIG    1      -44.244  78.315  22.533  0.00  0.00    +0.041 A 
ATOM     20  C   LIG    1      -44.647  77.224  21.751  0.00  0.00    +0.052 A 
ATOM     21 CL   LIG    1      -45.996  77.523  20.711  0.00  0.00    -0.083 Cl
ATOM     22  C   LIG    1      -44.018  75.972  21.890  0.00  0.00    +0.019 A 
ATOM     23  C   LIG    1      -42.887  75.918  22.742  0.00  0.00    +0.026 A 
BRANCH  22  24
ATOM     24  C   LIG    1      -44.561  74.692  21.380  0.00  0.00    +0.072 A 
ATOM     25  N   LIG    1      -45.183  73.960  22.345  0.00  0.00    -0.255 NA
ATOM     26  C   LIG    1      -45.859  72.851  21.977  0.00  0.00    +0.111 A 
ATOM     27  C   LIG    1      -45.953  72.415  20.671  0.00  0.00    +0.020 A 
ATOM     28  C   LIG    1      -45.278  73.136  19.696  0.00  0.00    +0.004 A 
ATOM     29  C   LIG    1      -44.556  74.275  20.053  0.00  0.00    +0.028 A 
ENDBRANCH  22  24
ENDBRANCH  14  16
ENDBRANCH   4  12
BRANCH   1  30
ATOM     30  C   LIG    1      -36.173  76.589  26.958  0.00  0.00    +0.236 C 
ATOM     31  N   LIG    1      -35.260  75.775  27.346  0.00  0.00    -0.241 NA
BRANCH  30  32
ATOM     32  O   LIG    1      -36.278  77.890  27.291  0.00  0.00    -0.491 OA
ATOM     33  H   LIG    1      -35.492  78.240  27.729  0.00  0.00    +0.294 HD
ENDBRANCH  30  32
BRANCH  31  34
ATOM     34  C   LIG    1      -34.156  76.192  28.209  0.00  0.00    +0.222 C 
BRANCH  34  35
ATOM     35  C   LIG    1      -33.387  77.327  27.648  0.00  0.00    +0.158 A 
ATOM     36  C   LIG    1      -32.840  78.483  28.145  0.00  0.00    +0.069 A 
ATOM     37  C   LIG    1      -32.331  79.135  27.006  0.00  0.00    +0.157 A 
ATOM     38  N   LIG    1      -32.535  78.428  25.892  0.00  0.00    -0.086 NA
ATOM     39  O   LIG    1      -33.162  77.272  26.305  0.00  0.00    -0.358 OA
ENDBRANCH  34  35
ENDBRANCH  31  34
ENDBRANCH   1  30
TORSDOF 8
ENDMDL
MODEL 8
REMARK VINA RESULT:      -6.2     19.695     22.754
REMARK  Name = pdb/CHEMBL3954487.pdb
REMARK                            x       y       z     vdW  Elec       q    Type
REMARK                         _______ _______ _______ _____ _____    ______ ____
ROOT
ATOM      1  C   LIG    1      -35.021  82.095  29.702  0.00  0.00    +0.149 A 
ATOM      2  N   LIG    1      -34.247  81.007  29.552  0.00  0.00    -0.160 NA
ATOM      3  N   LIG    1      -34.735  80.368  28.466  0.00  0.00    -0.218 N 
ATOM      4  C   LIG    1      -35.943  80.929  28.040  0.00  0.00    +0.129 A 
ATOM      5  C   LIG    1      -36.077  82.095  28.759  0.00  0.00    +0.078 A 
ENDROOT
BRANCH   3   6
ATOM      6  C   LIG    1      -34.063  79.229  27.944  0.00  0.00    +0.067 A 
ATOM      7  C   LIG    1      -34.488  77.936  28.270  0.00  0.00    +0.028 A 
ATOM      8  C   LIG    1      -33.806  76.824  27.777  0.00  0.00    +0.002 A 
ATOM      9  C   LIG    1      -32.715  76.995  26.930  0.00  0.00    +0.000 A 
ATOM     10  C   LIG    1      -32.307  78.280  26.570  0.00  0.00    +0.002 A 
ATOM     11  C   LIG    1      -32.980  79.398  27.070  0.00  0.00    +0.028 A 
ENDBRANCH   3   6
BRANCH   4  12
ATOM     12  N   LIG    1      -36.861  80.363  27.144  0.00  0.00    -0.266 N 
ATOM     13  H   LIG    1      -36.793  80.637  26.174  0.00  0.00    +0.157 HD
ATOM     14  C   LIG    1      -37.804  79.338  27.504  0.00  0.00    +0.251 C 
ATOM     15  O   LIG    1      -37.864  78.910  28.634  0.00  0.00    -0.270 OA
BRANCH  14  16
ATOM     16  C   LIG    1      -38.637  78.753  26.420  0.00  0.00    +0.056 A 
ATOM     17  C   LIG    1      -39.734  79.380  25.839  0.00  0.00    +0.054 A 
ATOM     18 CL   LIG    1      -40.368  80.886  26.381  0.00  0.00    -0.083 Cl
ATOM     19  C   LIG    1      -40.435  78.746  24.811  0.00  0.00    +0.041 A 
ATOM     20  C   LIG    1      -40.113  77.440  24.416  0.00  0.00    +0.052 A 
ATOM     21 CL   LIG    1      -41.114  76.780  23.171  0.00  0.00    -0.083 Cl
ATOM     22  C   LIG    1      -39.087  76.729  25.066  0.00  0.00    +0.019 A 
ATOM     23  C   LIG    1      -38.323  77.442  26.024  0.00  0.00    +0.026 A 
BRANCH  22  24
ATOM     24  C   LIG    1      -38.883  75.265  24.973  0.00  0.00    +0.072 A 
ATOM     25  N   LIG    1      -37.878  74.819  25.774  0.00  0.00    -0.255 NA
ATOM     26  C   LIG    1      -37.698  73.487  25.902  0.00  0.00    +0.111 A 
ATOM     27  C   LIG    1      -38.480  72.548  25.261  0.00  0.00    +0.020 A 
ATOM     28  C   LIG    1      -39.475  73.006  24.407  0.00  0.00    +0.004 A 
ATOM     29  C   LIG    1      -39.667  74.378  24.242  0.00  0.00    +0.028 A 
ENDBRANCH  22  24
ENDBRANCH  14  16
ENDBRANCH   4  12
BRANCH   1  30
ATOM     30  C   LIG    1      -34.800  83.068  30.770  0.00  0.00    +0.236 C 
ATOM     31  N   LIG    1      -33.629  83.559  30.960  0.00  0.00    -0.241 NA
BRANCH  30  32
ATOM     32  O   LIG    1      -35.918  83.385  31.452  0.00  0.00    -0.491 OA
ATOM     33  H   LIG    1      -36.383  84.151  31.093  0.00  0.00    +0.294 HD
ENDBRANCH  30  32
BRANCH  31  34
ATOM     34  C   LIG    1      -33.365  84.591  31.961  0.00  0.00    +0.222 C 
BRANCH  34  35
ATOM     35  C   LIG    1      -32.312  85.543  31.538  0.00  0.00    +0.158 A 
ATOM     36  C   LIG    1      -31.955  86.825  31.875  0.00  0.00    +0.069 A 
ATOM     37  C   LIG    1      -30.901  87.126  30.992  0.00  0.00    +0.157 A 
ATOM     38  N   LIG    1      -30.618  86.103  30.182  0.00  0.00    -0.086 NA
ATOM     39  O   LIG    1      -31.480  85.094  30.557  0.00  0.00    -0.358 OA
ENDBRANCH  34  35
ENDBRANCH  31  34
ENDBRANCH   1  30
TORSDOF 8
ENDMDL
MODEL 9
REMARK VINA RESULT:      -6.1     20.987     24.286
REMARK  Name = pdb/CHEMBL3954487.pdb
REMARK                            x       y       z     vdW  Elec       q    Type
REMARK                         _______ _______ _______ _____ _____    ______ ____
ROOT
ATOM      1  C   LIG    1      -40.317  73.112  24.215  0.00  0.00    +0.149 A 
ATOM      2  N   LIG    1      -40.660  74.402  24.365  0.00  0.00    -0.160 NA
ATOM      3  N   LIG    1      -39.518  75.039  24.705  0.00  0.00    -0.218 N 
ATOM      4  C   LIG    1      -38.486  74.135  24.973  0.00  0.00    +0.129 A 
ATOM      5  C   LIG    1      -38.959  72.910  24.561  0.00  0.00    +0.078 A 
ENDROOT
BRANCH   3   6
ATOM      6  C   LIG    1      -39.496  76.457  24.818  0.00  0.00    +0.067 A 
ATOM      7  C   LIG    1      -39.463  77.265  23.677  0.00  0.00    +0.028 A 
ATOM      8  C   LIG    1      -39.412  78.654  23.796  0.00  0.00    +0.002 A 
ATOM      9  C   LIG    1      -39.428  79.245  25.056  0.00  0.00    +0.000 A 
ATOM     10  C   LIG    1      -39.498  78.448  26.199  0.00  0.00    +0.002 A 
ATOM     11  C   LIG    1      -39.537  77.056  26.085  0.00  0.00    +0.028 A 
ENDBRANCH   3   6
BRANCH   4  12
ATOM     12  N   LIG    1      -37.272  74.414  25.617  0.00  0.00    -0.266 N 
ATOM     13  H   LIG    1      -36.485  74.666  25.036  0.00  0.00    +0.157 HD
ATOM     14  C   LIG    1      -37.120  74.478  27.046  0.00  0.00    +0.251 C 
ATOM     15  O   LIG    1      -38.055  74.273  27.786  0.00  0.00    -0.270 OA
BRANCH  14  16
ATOM     16  C   LIG    1      -35.799  74.896  27.583  0.00  0.00    +0.056 A 
ATOM     17  C   LIG    1      -34.839  74.027  28.092  0.00  0.00    +0.054 A 
ATOM     18 CL   LIG    1      -35.095  72.336  28.290  0.00  0.00    -0.083 Cl
ATOM     19  C   LIG    1      -33.620  74.528  28.553  0.00  0.00    +0.041 A 
ATOM     20  C   LIG    1      -33.380  75.908  28.603  0.00  0.00    +0.052 A 
ATOM     21 CL   LIG    1      -31.844  76.364  29.254  0.00  0.00    -0.083 Cl
ATOM     22  C   LIG    1      -34.375  76.823  28.212  0.00  0.00    +0.019 A 
ATOM     23  C   LIG    1      -35.553  76.278  27.642  0.00  0.00    +0.026 A 
BRANCH  22  24
ATOM     24  C   LIG    1      -34.366  78.269  28.530  0.00  0.00    +0.072 A 
ATOM     25  N   LIG    1      -34.218  79.052  27.427  0.00  0.00    -0.255 NA
ATOM     26  C   LIG    1      -34.356  80.388  27.561  0.00  0.00    +0.111 A 
ATOM     27  C   LIG    1      -34.639  81.007  28.762  0.00  0.00    +0.020 A 
ATOM     28  C   LIG    1      -34.742  80.211  29.894  0.00  0.00    +0.004 A 
ATOM     29  C   LIG    1      -34.583  78.829  29.784  0.00  0.00    +0.028 A 
ENDBRANCH  22  24
ENDBRANCH  14  16
ENDBRANCH   4  12
BRANCH   1  30
ATOM     30  C   LIG    1      -41.284  72.088  23.825  0.00  0.00    +0.236 C 
ATOM     31  N   LIG    1      -41.069  71.363  22.787  0.00  0.00    -0.241 NA
BRANCH  30  32
ATOM     32  O   LIG    1      -42.334  71.991  24.663  0.00  0.00    -0.491 OA
ATOM     33  H   LIG    1      -42.292  71.220  25.245  0.00  0.00    +0.294 HD
ENDBRANCH  30  32
BRANCH  31  34
ATOM     34  C   LIG    1      -41.962  70.274  22.395  0.00  0.00    +0.222 C 
BRANCH  34  35
ATOM     35  C   LIG    1      -42.861  70.645  21.278  0.00  0.00    +0.158 A 
ATOM     36  C   LIG    1      -43.985  71.420  21.139  0.00  0.00    +0.069 A 
ATOM     37  C   LIG    1      -44.359  71.236  19.795  0.00  0.00    +0.157 A 
ATOM     38  N   LIG    1      -43.521  70.423  19.148  0.00  0.00    -0.086 NA
ATOM     39  O   LIG    1      -42.555  70.086  20.074  0.00  0.00    -0.358 OA
ENDBRANCH  34  35
ENDBRANCH  31  34
ENDBRANCH   1  30
TORSDOF 8
ENDMDL
