MODEL 1
REMARK VINA RESULT:      -5.5      0.000      0.000
REMARK  Name = pdb/CHEMBL378978.pdb
REMARK                            x       y       z     vdW  Elec       q    Type
REMARK                         _______ _______ _______ _____ _____    ______ ____
ROOT
ATOM      1  C   LIG    1      -30.738  94.480  23.412  0.00  0.00    +0.106 A 
ATOM      2  C   LIG    1      -30.448  94.790  22.083  0.00  0.00    +0.098 A 
ATOM      3  C   LIG    1      -31.411  94.117  21.243  0.00  0.00    +0.120 A 
ATOM      4  N   LIG    1      -32.352  93.395  21.839  0.00  0.00    -0.202 NA
ATOM      5  S   LIG    1      -32.129  93.498  23.466  0.00  0.00    +0.029 S 
ENDROOT
BRANCH   1  10
ATOM      6  C   LIG    1      -29.787  97.405  27.197  0.00  0.00    +0.129 C 
ATOM      7  N   LIG    1      -29.623  96.224  26.381  0.00  0.00    -0.302 N 
ATOM      8  H   LIG    1      -28.708  95.802  26.359  0.00  0.00    +0.150 HD
ATOM      9  C   LIG    1      -30.416  96.064  25.262  0.00  0.00    +0.304 C 
ATOM     10  N   LIG    1      -30.102  94.907  24.574  0.00  0.00    -0.262 N 
ATOM     11  H   LIG    1      -29.536  94.216  25.058  0.00  0.00    +0.157 HD
ATOM     12  O   LIG    1      -31.297  96.866  24.984  0.00  0.00    -0.253 OA
ENDBRANCH   1  10
BRANCH   2  13
ATOM     13  C   LIG    1      -29.345  95.650  21.697  0.00  0.00    +0.246 C 
ATOM     14  N   LIG    1      -29.645  96.738  20.937  0.00  0.00    -0.325 N 
ATOM     15  H   LIG    1      -28.903  97.367  20.662  0.00  0.00    +0.145 HD
ATOM     16  H   LIG    1      -30.550  96.843  20.489  0.00  0.00    +0.145 HD
ATOM     17  O   LIG    1      -28.180  95.451  22.063  0.00  0.00    -0.270 OA
ENDBRANCH   2  13
BRANCH   3  18
ATOM     18  S   LIG    1      -31.470  94.194  19.484  0.00  0.00    -0.100 S 
BRANCH  18  19
ATOM     19  C   LIG    1      -33.192  93.677  19.198  0.00  0.00    +0.111 C 
BRANCH  19  20
ATOM     20  C   LIG    1      -33.243  92.386  18.415  0.00  0.00    -0.037 A 
ATOM     21  C   LIG    1      -33.772  91.221  18.994  0.00  0.00    +0.006 A 
ATOM     22  C   LIG    1      -33.826  90.030  18.269  0.00  0.00    +0.020 A 
ATOM     23  C   LIG    1      -33.348  89.994  16.961  0.00  0.00    +0.041 A 
ATOM     24 CL   LIG    1      -33.423  88.526  16.066  0.00  0.00    -0.084 Cl
ATOM     25  C   LIG    1      -32.811  91.137  16.375  0.00  0.00    +0.020 A 
ATOM     26  C   LIG    1      -32.755  92.330  17.100  0.00  0.00    +0.006 A 
ENDBRANCH  19  20
ENDBRANCH  18  19
ENDBRANCH   3  18
TORSDOF 5
ENDMDL
MODEL 2
REMARK VINA RESULT:      -5.4     17.473     19.351
REMARK  Name = pdb/CHEMBL378978.pdb
REMARK                            x       y       z     vdW  Elec       q    Type
REMARK                         _______ _______ _______ _____ _____    ______ ____
ROOT
ATOM      1  C   LIG    1      -22.058  80.621  16.056  0.00  0.00    +0.106 A 
ATOM      2  C   LIG    1      -22.912  79.655  15.525  0.00  0.00    +0.098 A 
ATOM      3  C   LIG    1      -22.127  78.487  15.202  0.00  0.00    +0.120 A 
ATOM      4  N   LIG    1      -20.828  78.523  15.473  0.00  0.00    -0.202 NA
ATOM      5  S   LIG    1      -20.480  79.983  16.147  0.00  0.00    +0.029 S 
ENDROOT
BRANCH   1  10
ATOM      6  C   LIG    1      -22.575  85.468  15.874  0.00  0.00    +0.129 C 
ATOM      7  N   LIG    1      -22.640  84.166  16.497  0.00  0.00    -0.302 N 
ATOM      8  H   LIG    1      -22.505  84.126  17.496  0.00  0.00    +0.150 HD
ATOM      9  C   LIG    1      -22.277  83.051  15.769  0.00  0.00    +0.304 C 
ATOM     10  N   LIG    1      -22.357  81.897  16.526  0.00  0.00    -0.262 N 
ATOM     11  H   LIG    1      -22.874  81.946  17.398  0.00  0.00    +0.157 HD
ATOM     12  O   LIG    1      -21.964  83.134  14.588  0.00  0.00    -0.253 OA
ENDBRANCH   1  10
BRANCH   2  13
ATOM     13  C   LIG    1      -24.337  79.869  15.357  0.00  0.00    +0.246 C 
ATOM     14  N   LIG    1      -25.172  78.936  15.890  0.00  0.00    -0.325 N 
ATOM     15  H   LIG    1      -26.171  79.060  15.805  0.00  0.00    +0.145 HD
ATOM     16  H   LIG    1      -24.829  78.035  16.210  0.00  0.00    +0.145 HD
ATOM     17  O   LIG    1      -24.804  80.868  14.796  0.00  0.00    -0.270 OA
ENDBRANCH   2  13
BRANCH   3  18
ATOM     18  S   LIG    1      -22.748  76.992  14.506  0.00  0.00    -0.100 S 
BRANCH  18  19
ATOM     19  C   LIG    1      -21.286  75.922  14.691  0.00  0.00    +0.111 C 
BRANCH  19  20
ATOM     20  C   LIG    1      -21.454  74.979  15.861  0.00  0.00    -0.037 A 
ATOM     21  C   LIG    1      -20.337  74.352  16.437  0.00  0.00    +0.006 A 
ATOM     22  C   LIG    1      -20.491  73.486  17.521  0.00  0.00    +0.020 A 
ATOM     23  C   LIG    1      -21.763  73.239  18.034  0.00  0.00    +0.041 A 
ATOM     24 CL   LIG    1      -21.949  72.177  19.376  0.00  0.00    -0.084 Cl
ATOM     25  C   LIG    1      -22.882  73.844  17.468  0.00  0.00    +0.020 A 
ATOM     26  C   LIG    1      -22.729  74.710  16.382  0.00  0.00    +0.006 A 
ENDBRANCH  19  20
ENDBRANCH  18  19
ENDBRANCH   3  18
TORSDOF 5
ENDMDL
MODEL 3
REMARK VINA RESULT:      -5.4     12.582     14.347
REMARK  Name = pdb/CHEMBL378978.pdb
REMARK                            x       y       z     vdW  Elec       q    Type
REMARK                         _______ _______ _______ _____ _____    ______ ____
ROOT
ATOM      1  C   LIG    1      -22.817  85.808  13.520  0.00  0.00    +0.106 A 
ATOM      2  C   LIG    1      -22.289  87.097  13.597  0.00  0.00    +0.098 A 
ATOM      3  C   LIG    1      -22.256  87.651  12.264  0.00  0.00    +0.120 A 
ATOM      4  N   LIG    1      -22.726  86.903  11.273  0.00  0.00    -0.202 NA
ATOM      5  S   LIG    1      -23.247  85.475  11.905  0.00  0.00    +0.029 S 
ENDROOT
BRANCH   1  10
ATOM      6  C   LIG    1      -21.961  81.972  16.408  0.00  0.00    +0.129 C 
ATOM      7  N   LIG    1      -22.703  83.121  15.942  0.00  0.00    -0.302 N 
ATOM      8  H   LIG    1      -23.705  83.100  16.057  0.00  0.00    +0.150 HD
ATOM      9  C   LIG    1      -22.207  83.861  14.887  0.00  0.00    +0.304 C 
ATOM     10  N   LIG    1      -23.058  84.893  14.541  0.00  0.00    -0.262 N 
ATOM     11  H   LIG    1      -23.784  85.141  15.206  0.00  0.00    +0.157 HD
ATOM     12  O   LIG    1      -21.122  83.604  14.382  0.00  0.00    -0.253 OA
ENDBRANCH   1  10
BRANCH   2  13
ATOM     13  C   LIG    1      -21.866  87.702  14.846  0.00  0.00    +0.246 C 
ATOM     14  N   LIG    1      -20.624  87.383  15.300  0.00  0.00    -0.325 N 
ATOM     15  H   LIG    1      -20.291  87.797  16.160  0.00  0.00    +0.145 HD
ATOM     16  H   LIG    1      -20.094  86.611  14.906  0.00  0.00    +0.145 HD
ATOM     17  O   LIG    1      -22.566  88.509  15.470  0.00  0.00    -0.270 OA
ENDBRANCH   2  13
BRANCH   3  18
ATOM     18  S   LIG    1      -21.675  89.258  11.834  0.00  0.00    -0.100 S 
BRANCH  18  19
ATOM     19  C   LIG    1      -22.832  89.667  10.489  0.00  0.00    +0.111 C 
BRANCH  19  20
ATOM     20  C   LIG    1      -23.830  90.711  10.936  0.00  0.00    -0.037 A 
ATOM     21  C   LIG    1      -24.954  90.344  11.694  0.00  0.00    +0.006 A 
ATOM     22  C   LIG    1      -25.872  91.308  12.113  0.00  0.00    +0.020 A 
ATOM     23  C   LIG    1      -25.675  92.644  11.775  0.00  0.00    +0.041 A 
ATOM     24 CL   LIG    1      -26.805  93.832  12.299  0.00  0.00    -0.084 Cl
ATOM     25  C   LIG    1      -24.571  93.024  11.015  0.00  0.00    +0.020 A 
ATOM     26  C   LIG    1      -23.652  92.060  10.594  0.00  0.00    +0.006 A 
ENDBRANCH  19  20
ENDBRANCH  18  19
ENDBRANCH   3  18
TORSDOF 5
ENDMDL
MODEL 4
REMARK VINA RESULT:      -5.3     18.998     20.109
REMARK  Name = pdb/CHEMBL378978.pdb
REMARK                            x       y       z     vdW  Elec       q    Type
REMARK                         _______ _______ _______ _____ _____    ______ ____
ROOT
ATOM      1  C   LIG    1      -33.117  76.533  28.270  0.00  0.00    +0.106 A 
ATOM      2  C   LIG    1      -34.110  75.557  28.181  0.00  0.00    +0.098 A 
ATOM      3  C   LIG    1      -35.291  76.166  27.616  0.00  0.00    +0.120 A 
ATOM      4  N   LIG    1      -35.223  77.448  27.278  0.00  0.00    -0.202 NA
ATOM      5  S   LIG    1      -33.709  77.993  27.621  0.00  0.00    +0.029 S 
ENDROOT
BRANCH   1  10
ATOM      6  C   LIG    1      -29.536  76.060  31.548  0.00  0.00    +0.129 C 
ATOM      7  N   LIG    1      -30.088  76.175  30.217  0.00  0.00    -0.302 N 
ATOM      8  H   LIG    1      -29.512  76.617  29.516  0.00  0.00    +0.150 HD
ATOM      9  C   LIG    1      -31.456  76.272  30.060  0.00  0.00    +0.304 C 
ATOM     10  N   LIG    1      -31.809  76.417  28.732  0.00  0.00    -0.262 N 
ATOM     11  H   LIG    1      -31.103  76.202  28.035  0.00  0.00    +0.157 HD
ATOM     12  O   LIG    1      -32.215  76.198  31.018  0.00  0.00    -0.253 OA
ENDBRANCH   1  10
BRANCH   2  13
ATOM     13  C   LIG    1      -33.908  74.186  28.609  0.00  0.00    +0.246 C 
ATOM     14  N   LIG    1      -34.074  73.918  29.932  0.00  0.00    -0.325 N 
ATOM     15  H   LIG    1      -33.955  72.971  30.263  0.00  0.00    +0.145 HD
ATOM     16  H   LIG    1      -34.135  74.660  30.623  0.00  0.00    +0.145 HD
ATOM     17  O   LIG    1      -33.638  73.271  27.821  0.00  0.00    -0.270 OA
ENDBRANCH   2  13
BRANCH   3  18
ATOM     18  S   LIG    1      -36.818  75.346  27.299  0.00  0.00    -0.100 S 
BRANCH  18  19
ATOM     19  C   LIG    1      -37.201  76.008  25.647  0.00  0.00    +0.111 C 
BRANCH  19  20
ATOM     20  C   LIG    1      -38.332  75.236  25.007  0.00  0.00    -0.037 A 
ATOM     21  C   LIG    1      -39.453  75.909  24.494  0.00  0.00    +0.006 A 
ATOM     22  C   LIG    1      -40.495  75.198  23.897  0.00  0.00    +0.020 A 
ATOM     23  C   LIG    1      -40.424  73.809  23.811  0.00  0.00    +0.041 A 
ATOM     24 CL   LIG    1      -41.707  72.936  23.068  0.00  0.00    -0.084 Cl
ATOM     25  C   LIG    1      -39.325  73.126  24.324  0.00  0.00    +0.020 A 
ATOM     26  C   LIG    1      -38.283  73.836  24.923  0.00  0.00    +0.006 A 
ENDBRANCH  19  20
ENDBRANCH  18  19
ENDBRANCH   3  18
TORSDOF 5
ENDMDL
MODEL 5
REMARK VINA RESULT:      -5.2     18.281     20.183
REMARK  Name = pdb/CHEMBL378978.pdb
REMARK                            x       y       z     vdW  Elec       q    Type
REMARK                         _______ _______ _______ _____ _____    ______ ____
ROOT
ATOM      1  C   LIG    1      -35.471  76.144  27.310  0.00  0.00    +0.106 A 
ATOM      2  C   LIG    1      -36.691  75.690  26.809  0.00  0.00    +0.098 A 
ATOM      3  C   LIG    1      -36.897  74.341  27.278  0.00  0.00    +0.120 A 
ATOM      4  N   LIG    1      -35.972  73.815  28.071  0.00  0.00    -0.202 NA
ATOM      5  S   LIG    1      -34.790  74.937  28.302  0.00  0.00    +0.029 S 
ENDROOT
BRANCH   1  10
ATOM      6  C   LIG    1      -34.577  80.864  28.157  0.00  0.00    +0.129 C 
ATOM      7  N   LIG    1      -34.376  79.588  27.509  0.00  0.00    -0.302 N 
ATOM      8  H   LIG    1      -34.048  79.603  26.555  0.00  0.00    +0.150 HD
ATOM      9  C   LIG    1      -35.147  78.509  27.892  0.00  0.00    +0.304 C 
ATOM     10  N   LIG    1      -34.857  77.383  27.144  0.00  0.00    -0.262 N 
ATOM     11  H   LIG    1      -33.999  77.392  26.602  0.00  0.00    +0.157 HD
ATOM     12  O   LIG    1      -35.949  78.592  28.812  0.00  0.00    -0.253 OA
ENDBRANCH   1  10
BRANCH   2  13
ATOM     13  C   LIG    1      -37.546  76.502  25.962  0.00  0.00    +0.246 C 
ATOM     14  N   LIG    1      -38.671  77.016  26.529  0.00  0.00    -0.325 N 
ATOM     15  H   LIG    1      -39.282  77.597  25.972  0.00  0.00    +0.145 HD
ATOM     16  H   LIG    1      -39.010  76.692  27.429  0.00  0.00    +0.145 HD
ATOM     17  O   LIG    1      -37.268  76.766  24.786  0.00  0.00    -0.270 OA
ENDBRANCH   2  13
BRANCH   3  18
ATOM     18  S   LIG    1      -38.296  73.331  26.919  0.00  0.00    -0.100 S 
BRANCH  18  19
ATOM     19  C   LIG    1      -38.077  73.106  25.126  0.00  0.00    +0.111 C 
BRANCH  19  20
ATOM     20  C   LIG    1      -39.401  73.210  24.405  0.00  0.00    -0.037 A 
ATOM     21  C   LIG    1      -40.044  72.057  23.925  0.00  0.00    +0.006 A 
ATOM     22  C   LIG    1      -41.270  72.152  23.265  0.00  0.00    +0.020 A 
ATOM     23  C   LIG    1      -41.859  73.400  23.077  0.00  0.00    +0.041 A 
ATOM     24 CL   LIG    1      -43.375  73.513  22.269  0.00  0.00    -0.084 Cl
ATOM     25  C   LIG    1      -41.230  74.554  23.536  0.00  0.00    +0.020 A 
ATOM     26  C   LIG    1      -40.003  74.461  24.196  0.00  0.00    +0.006 A 
ENDBRANCH  19  20
ENDBRANCH  18  19
ENDBRANCH   3  18
TORSDOF 5
ENDMDL
MODEL 6
REMARK VINA RESULT:      -5.2     21.976     24.671
REMARK  Name = pdb/CHEMBL378978.pdb
REMARK                            x       y       z     vdW  Elec       q    Type
REMARK                         _______ _______ _______ _____ _____    ______ ____
ROOT
ATOM      1  C   LIG    1      -37.831  69.235  22.388  0.00  0.00    +0.106 A 
ATOM      2  C   LIG    1      -38.069  70.010  23.524  0.00  0.00    +0.098 A 
ATOM      3  C   LIG    1      -39.470  70.359  23.545  0.00  0.00    +0.120 A 
ATOM      4  N   LIG    1      -40.237  69.893  22.568  0.00  0.00    -0.202 NA
ATOM      5  S   LIG    1      -39.300  68.990  21.560  0.00  0.00    +0.029 S 
ENDROOT
BRANCH   1  10
ATOM      6  C   LIG    1      -34.434  65.766  21.923  0.00  0.00    +0.129 C 
ATOM      7  N   LIG    1      -35.026  67.061  21.678  0.00  0.00    -0.302 N 
ATOM      8  H   LIG    1      -34.397  67.830  21.501  0.00  0.00    +0.150 HD
ATOM      9  C   LIG    1      -36.243  67.365  22.253  0.00  0.00    +0.304 C 
ATOM     10  N   LIG    1      -36.643  68.654  21.953  0.00  0.00    -0.262 N 
ATOM     11  H   LIG    1      -36.163  69.126  21.192  0.00  0.00    +0.157 HD
ATOM     12  O   LIG    1      -36.862  66.540  22.912  0.00  0.00    -0.253 OA
ENDBRANCH   1  10
BRANCH   2  13
ATOM     13  C   LIG    1      -37.027  70.361  24.471  0.00  0.00    +0.246 C 
ATOM     14  N   LIG    1      -36.642  71.665  24.512  0.00  0.00    -0.325 N 
ATOM     15  H   LIG    1      -35.928  71.948  25.170  0.00  0.00    +0.145 HD
ATOM     16  H   LIG    1      -36.912  72.324  23.789  0.00  0.00    +0.145 HD
ATOM     17  O   LIG    1      -36.523  69.541  25.248  0.00  0.00    -0.270 OA
ENDBRANCH   2  13
BRANCH   3  18
ATOM     18  S   LIG    1      -40.267  71.328  24.782  0.00  0.00    -0.100 S 
BRANCH  18  19
ATOM     19  C   LIG    1      -41.190  72.494  23.730  0.00  0.00    +0.111 C 
BRANCH  19  20
ATOM     20  C   LIG    1      -40.652  73.898  23.884  0.00  0.00    -0.037 A 
ATOM     21  C   LIG    1      -41.395  75.000  23.428  0.00  0.00    +0.006 A 
ATOM     22  C   LIG    1      -40.903  76.297  23.576  0.00  0.00    +0.020 A 
ATOM     23  C   LIG    1      -39.663  76.502  24.177  0.00  0.00    +0.041 A 
ATOM     24 CL   LIG    1      -39.062  78.104  24.365  0.00  0.00    -0.084 Cl
ATOM     25  C   LIG    1      -38.909  75.421  24.625  0.00  0.00    +0.020 A 
ATOM     26  C   LIG    1      -39.400  74.122  24.477  0.00  0.00    +0.006 A 
ENDBRANCH  19  20
ENDBRANCH  18  19
ENDBRANCH   3  18
TORSDOF 5
ENDMDL
MODEL 7
REMARK VINA RESULT:      -5.1     20.519     22.337
REMARK  Name = pdb/CHEMBL378978.pdb
REMARK                            x       y       z     vdW  Elec       q    Type
REMARK                         _______ _______ _______ _____ _____    ______ ____
ROOT
ATOM      1  C   LIG    1      -26.626  76.835  33.031  0.00  0.00    +0.106 A 
ATOM      2  C   LIG    1      -25.437  77.224  32.412  0.00  0.00    +0.098 A 
ATOM      3  C   LIG    1      -24.641  77.943  33.379  0.00  0.00    +0.120 A 
ATOM      4  N   LIG    1      -25.130  78.075  34.605  0.00  0.00    -0.202 NA
ATOM      5  S   LIG    1      -26.593  77.323  34.663  0.00  0.00    +0.029 S 
ENDROOT
BRANCH   1  10
ATOM      6  C   LIG    1      -30.725  76.061  30.503  0.00  0.00    +0.129 C 
ATOM      7  N   LIG    1      -29.599  75.677  31.324  0.00  0.00    -0.302 N 
ATOM      8  H   LIG    1      -29.732  74.900  31.953  0.00  0.00    +0.150 HD
ATOM      9  C   LIG    1      -28.676  76.634  31.693  0.00  0.00    +0.304 C 
ATOM     10  N   LIG    1      -27.692  76.108  32.509  0.00  0.00    -0.262 N 
ATOM     11  H   LIG    1      -27.610  75.097  32.547  0.00  0.00    +0.157 HD
ATOM     12  O   LIG    1      -28.755  77.787  31.288  0.00  0.00    -0.253 OA
ENDBRANCH   1  10
BRANCH   2  13
ATOM     13  C   LIG    1      -25.133  76.919  31.027  0.00  0.00    +0.246 C 
ATOM     14  N   LIG    1      -25.109  77.961  30.153  0.00  0.00    -0.325 N 
ATOM     15  H   LIG    1      -24.887  77.787  29.183  0.00  0.00    +0.145 HD
ATOM     16  H   LIG    1      -25.481  78.873  30.401  0.00  0.00    +0.145 HD
ATOM     17  O   LIG    1      -24.861  75.776  30.637  0.00  0.00    -0.270 OA
ENDBRANCH   2  13
BRANCH   3  18
ATOM     18  S   LIG    1      -23.049  78.638  33.083  0.00  0.00    -0.100 S 
BRANCH  18  19
ATOM     19  C   LIG    1      -22.270  78.352  34.704  0.00  0.00    +0.111 C 
BRANCH  19  20
ATOM     20  C   LIG    1      -21.846  79.659  35.335  0.00  0.00    -0.037 A 
ATOM     21  C   LIG    1      -22.663  80.797  35.236  0.00  0.00    +0.006 A 
ATOM     22  C   LIG    1      -22.275  82.002  35.824  0.00  0.00    +0.020 A 
ATOM     23  C   LIG    1      -21.066  82.078  36.512  0.00  0.00    +0.041 A 
ATOM     24 CL   LIG    1      -20.594  83.563  37.242  0.00  0.00    -0.084 Cl
ATOM     25  C   LIG    1      -20.239  80.962  36.611  0.00  0.00    +0.020 A 
ATOM     26  C   LIG    1      -20.625  79.756  36.021  0.00  0.00    +0.006 A 
ENDBRANCH  19  20
ENDBRANCH  18  19
ENDBRANCH   3  18
TORSDOF 5
ENDMDL
MODEL 8
REMARK VINA RESULT:      -5.1     13.562     15.054
REMARK  Name = pdb/CHEMBL378978.pdb
REMARK                            x       y       z     vdW  Elec       q    Type
REMARK                         _______ _______ _______ _____ _____    ______ ____
ROOT
ATOM      1  C   LIG    1      -23.356  87.916  12.240  0.00  0.00    +0.106 A 
ATOM      2  C   LIG    1      -22.782  87.499  13.441  0.00  0.00    +0.098 A 
ATOM      3  C   LIG    1      -22.854  86.058  13.498  0.00  0.00    +0.120 A 
ATOM      4  N   LIG    1      -23.390  85.425  12.462  0.00  0.00    -0.202 NA
ATOM      5  S   LIG    1      -23.835  86.548  11.344  0.00  0.00    +0.029 S 
ENDROOT
BRANCH   1  10
ATOM      6  C   LIG    1      -21.962  92.126  10.209  0.00  0.00    +0.129 C 
ATOM      7  N   LIG    1      -22.914  91.191  10.766  0.00  0.00    -0.302 N 
ATOM      8  H   LIG    1      -23.719  91.578  11.234  0.00  0.00    +0.150 HD
ATOM      9  C   LIG    1      -22.473  89.954  11.191  0.00  0.00    +0.304 C 
ATOM     10  N   LIG    1      -23.500  89.205  11.735  0.00  0.00    -0.262 N 
ATOM     11  H   LIG    1      -24.449  89.514  11.552  0.00  0.00    +0.157 HD
ATOM     12  O   LIG    1      -21.308  89.607  11.048  0.00  0.00    -0.253 OA
ENDBRANCH   1  10
BRANCH   2  13
ATOM     13  C   LIG    1      -22.230  88.423  14.414  0.00  0.00    +0.246 C 
ATOM     14  N   LIG    1      -20.953  88.848  14.210  0.00  0.00    -0.325 N 
ATOM     15  H   LIG    1      -20.542  89.504  14.860  0.00  0.00    +0.145 HD
ATOM     16  H   LIG    1      -20.342  88.397  13.537  0.00  0.00    +0.145 HD
ATOM     17  O   LIG    1      -22.882  88.856  15.373  0.00  0.00    -0.270 OA
ENDBRANCH   2  13
BRANCH   3  18
ATOM     18  S   LIG    1      -22.258  85.052  14.817  0.00  0.00    -0.100 S 
BRANCH  18  19
ATOM     19  C   LIG    1      -21.863  83.527  13.903  0.00  0.00    +0.111 C 
BRANCH  19  20
ATOM     20  C   LIG    1      -22.686  82.366  14.411  0.00  0.00    -0.037 A 
ATOM     21  C   LIG    1      -23.847  81.964  13.731  0.00  0.00    +0.006 A 
ATOM     22  C   LIG    1      -24.604  80.887  14.196  0.00  0.00    +0.020 A 
ATOM     23  C   LIG    1      -24.207  80.208  15.346  0.00  0.00    +0.041 A 
ATOM     24 CL   LIG    1      -25.139  78.877  15.913  0.00  0.00    -0.084 Cl
ATOM     25  C   LIG    1      -23.065  80.601  16.038  0.00  0.00    +0.020 A 
ATOM     26  C   LIG    1      -22.307  81.679  15.574  0.00  0.00    +0.006 A 
ENDBRANCH  19  20
ENDBRANCH  18  19
ENDBRANCH   3  18
TORSDOF 5
ENDMDL
MODEL 9
REMARK VINA RESULT:      -5.1     21.290     22.540
REMARK  Name = pdb/CHEMBL378978.pdb
REMARK                            x       y       z     vdW  Elec       q    Type
REMARK                         _______ _______ _______ _____ _____    ______ ____
ROOT
ATOM      1  C   LIG    1      -25.419  75.279  31.868  0.00  0.00    +0.106 A 
ATOM      2  C   LIG    1      -24.629  76.254  31.260  0.00  0.00    +0.098 A 
ATOM      3  C   LIG    1      -23.549  75.591  30.566  0.00  0.00    +0.120 A 
ATOM      4  N   LIG    1      -23.515  74.265  30.602  0.00  0.00    -0.202 NA
ATOM      5  S   LIG    1      -24.804  73.738  31.480  0.00  0.00    +0.029 S 
ENDROOT
BRANCH   1  10
ATOM      6  C   LIG    1      -30.017  76.583  32.838  0.00  0.00    +0.129 C 
ATOM      7  N   LIG    1      -28.730  75.999  33.138  0.00  0.00    -0.302 N 
ATOM      8  H   LIG    1      -28.422  76.033  34.098  0.00  0.00    +0.150 HD
ATOM      9  C   LIG    1      -27.753  75.985  32.163  0.00  0.00    +0.304 C 
ATOM     10  N   LIG    1      -26.575  75.432  32.629  0.00  0.00    -0.262 N 
ATOM     11  H   LIG    1      -26.618  74.902  33.494  0.00  0.00    +0.157 HD
ATOM     12  O   LIG    1      -27.974  76.397  31.032  0.00  0.00    -0.253 OA
ENDBRANCH   1  10
BRANCH   2  13
ATOM     13  C   LIG    1      -24.913  77.674  31.359  0.00  0.00    +0.246 C 
ATOM     14  N   LIG    1      -25.353  78.298  30.233  0.00  0.00    -0.325 N 
ATOM     15  H   LIG    1      -25.574  79.283  30.269  0.00  0.00    +0.145 HD
ATOM     16  H   LIG    1      -25.295  77.855  29.321  0.00  0.00    +0.145 HD
ATOM     17  O   LIG    1      -24.809  78.306  32.417  0.00  0.00    -0.270 OA
ENDBRANCH   2  13
BRANCH   3  18
ATOM     18  S   LIG    1      -22.282  76.390  29.638  0.00  0.00    -0.100 S 
BRANCH  18  19
ATOM     19  C   LIG    1      -20.840  76.029  30.690  0.00  0.00    +0.111 C 
BRANCH  19  20
ATOM     20  C   LIG    1      -20.705  77.059  31.789  0.00  0.00    -0.037 A 
ATOM     21  C   LIG    1      -19.757  78.090  31.686  0.00  0.00    +0.006 A 
ATOM     22  C   LIG    1      -19.637  79.045  32.697  0.00  0.00    +0.020 A 
ATOM     23  C   LIG    1      -20.460  78.974  33.818  0.00  0.00    +0.041 A 
ATOM     24 CL   LIG    1      -20.314  80.157  35.059  0.00  0.00    -0.084 Cl
ATOM     25  C   LIG    1      -21.397  77.951  33.941  0.00  0.00    +0.020 A 
ATOM     26  C   LIG    1      -21.518  76.994  32.931  0.00  0.00    +0.006 A 
ENDBRANCH  19  20
ENDBRANCH  18  19
ENDBRANCH   3  18
TORSDOF 5
ENDMDL
