MODEL 1
REMARK VINA RESULT:      -6.4      0.000      0.000
REMARK  Name = pdb/CHEMBL3979634.pdb
REMARK                            x       y       z     vdW  Elec       q    Type
REMARK                         _______ _______ _______ _____ _____    ______ ____
ROOT
ATOM      1  C   LIG    1      -31.676  74.204  29.743  0.00  0.00    +0.149 A 
ATOM      2  N   LIG    1      -31.709  75.536  29.570  0.00  0.00    -0.160 NA
ATOM      3  N   LIG    1      -32.716  75.764  28.689  0.00  0.00    -0.218 N 
ATOM      4  C   LIG    1      -33.370  74.576  28.345  0.00  0.00    +0.129 A 
ATOM      5  C   LIG    1      -32.740  73.580  29.048  0.00  0.00    +0.078 A 
ENDROOT
BRANCH   3   6
ATOM      6  C   LIG    1      -32.970  77.095  28.232  0.00  0.00    +0.067 A 
ATOM      7  C   LIG    1      -32.246  77.673  27.179  0.00  0.00    +0.028 A 
ATOM      8  C   LIG    1      -32.509  78.990  26.781  0.00  0.00    +0.002 A 
ATOM      9  C   LIG    1      -33.489  79.738  27.429  0.00  0.00    +0.000 A 
ATOM     10  C   LIG    1      -34.217  79.172  28.472  0.00  0.00    +0.002 A 
ATOM     11  C   LIG    1      -33.955  77.860  28.880  0.00  0.00    +0.028 A 
ENDBRANCH   3   6
BRANCH   4  12
ATOM     12  N   LIG    1      -34.506  74.441  27.547  0.00  0.00    -0.266 N 
ATOM     13  H   LIG    1      -34.343  74.389  26.551  0.00  0.00    +0.157 HD
ATOM     14  C   LIG    1      -35.869  74.433  28.026  0.00  0.00    +0.251 C 
ATOM     15  O   LIG    1      -36.128  74.478  29.204  0.00  0.00    -0.270 OA
BRANCH  14  16
ATOM     16  C   LIG    1      -36.925  74.289  26.969  0.00  0.00    +0.056 A 
ATOM     17  C   LIG    1      -37.262  73.053  26.424  0.00  0.00    +0.054 A 
ATOM     18 CL   LIG    1      -36.489  71.562  26.840  0.00  0.00    -0.083 Cl
ATOM     19  C   LIG    1      -38.274  72.966  25.473  0.00  0.00    +0.041 A 
ATOM     20  C   LIG    1      -38.964  74.105  25.036  0.00  0.00    +0.052 A 
ATOM     21 CL   LIG    1      -40.298  73.758  23.988  0.00  0.00    -0.083 Cl
ATOM     22  C   LIG    1      -38.619  75.392  25.501  0.00  0.00    +0.022 A 
ATOM     23  C   LIG    1      -37.599  75.445  26.500  0.00  0.00    +0.026 A 
BRANCH  22  24
ATOM     24  C   LIG    1      -39.258  76.662  25.039  0.00  0.00    +0.107 A 
ATOM     25  C   LIG    1      -38.767  77.481  24.014  0.00  0.00    +0.149 A 
ATOM     26  F   LIG    1      -37.597  77.239  23.410  0.00  0.00    -0.203 F 
ATOM     27  C   LIG    1      -39.460  78.626  23.631  0.00  0.00    +0.042 A 
ATOM     28  C   LIG    1      -40.603  78.990  24.325  0.00  0.00    +0.023 A 
ATOM     29  C   LIG    1      -41.006  78.179  25.372  0.00  0.00    +0.111 A 
ATOM     30  N   LIG    1      -40.375  77.029  25.733  0.00  0.00    -0.252 NA
ENDBRANCH  22  24
ENDBRANCH  14  16
ENDBRANCH   4  12
BRANCH   1  31
ATOM     31  C   LIG    1      -30.664  73.539  30.565  0.00  0.00    +0.236 C 
ATOM     32  N   LIG    1      -30.261  72.353  30.243  0.00  0.00    -0.241 NA
BRANCH  32  33
ATOM     33  C   LIG    1      -29.226  71.713  31.045  0.00  0.00    +0.160 C 
ATOM     34  C   LIG    1      -28.606  70.469  30.388  0.00  0.00    +0.189 C 
ATOM     35  O   LIG    1      -28.897  69.666  31.560  0.00  0.00    -0.375 OA
ATOM     36  C   LIG    1      -29.804  70.695  32.040  0.00  0.00    +0.189 C 
ENDBRANCH  32  33
BRANCH  31  37
ATOM     37  O   LIG    1      -30.230  74.243  31.630  0.00  0.00    -0.491 OA
ATOM     38  H   LIG    1      -29.988  75.149  31.409  0.00  0.00    +0.294 HD
ENDBRANCH  31  37
ENDBRANCH   1  31
TORSDOF 7
ENDMDL
MODEL 2
REMARK VINA RESULT:      -6.3      4.839      8.126
REMARK  Name = pdb/CHEMBL3979634.pdb
REMARK                            x       y       z     vdW  Elec       q    Type
REMARK                         _______ _______ _______ _____ _____    ______ ____
ROOT
ATOM      1  C   LIG    1      -35.410  69.176  24.892  0.00  0.00    +0.149 A 
ATOM      2  N   LIG    1      -36.488  69.978  24.923  0.00  0.00    -0.160 NA
ATOM      3  N   LIG    1      -36.140  71.025  25.713  0.00  0.00    -0.218 N 
ATOM      4  C   LIG    1      -34.811  70.922  26.139  0.00  0.00    +0.129 A 
ATOM      5  C   LIG    1      -34.324  69.766  25.583  0.00  0.00    +0.078 A 
ENDROOT
BRANCH   3   6
ATOM      6  C   LIG    1      -37.104  72.038  26.012  0.00  0.00    +0.067 A 
ATOM      7  C   LIG    1      -37.530  72.299  27.323  0.00  0.00    +0.028 A 
ATOM      8  C   LIG    1      -38.496  73.282  27.569  0.00  0.00    +0.002 A 
ATOM      9  C   LIG    1      -39.047  74.006  26.514  0.00  0.00    +0.000 A 
ATOM     10  C   LIG    1      -38.629  73.758  25.210  0.00  0.00    +0.002 A 
ATOM     11  C   LIG    1      -37.669  72.772  24.955  0.00  0.00    +0.028 A 
ENDBRANCH   3   6
BRANCH   4  12
ATOM     12  N   LIG    1      -34.089  71.861  26.876  0.00  0.00    -0.266 N 
ATOM     13  H   LIG    1      -33.538  72.516  26.338  0.00  0.00    +0.157 HD
ATOM     14  C   LIG    1      -34.026  71.924  28.318  0.00  0.00    +0.251 C 
ATOM     15  O   LIG    1      -34.671  71.179  29.014  0.00  0.00    -0.270 OA
BRANCH  14  16
ATOM     16  C   LIG    1      -33.168  73.020  28.880  0.00  0.00    +0.056 A 
ATOM     17  C   LIG    1      -32.022  72.755  29.623  0.00  0.00    +0.054 A 
ATOM     18 CL   LIG    1      -31.476  71.166  30.039  0.00  0.00    -0.083 Cl
ATOM     19  C   LIG    1      -31.238  73.805  30.091  0.00  0.00    +0.041 A 
ATOM     20  C   LIG    1      -31.584  75.141  29.841  0.00  0.00    +0.052 A 
ATOM     21 CL   LIG    1      -30.389  76.283  30.355  0.00  0.00    -0.083 Cl
ATOM     22  C   LIG    1      -32.771  75.472  29.152  0.00  0.00    +0.022 A 
ATOM     23  C   LIG    1      -33.535  74.371  28.656  0.00  0.00    +0.026 A 
BRANCH  22  24
ATOM     24  C   LIG    1      -33.246  76.866  28.900  0.00  0.00    +0.107 A 
ATOM     25  C   LIG    1      -32.825  77.678  27.839  0.00  0.00    +0.149 A 
ATOM     26  F   LIG    1      -31.859  77.297  26.992  0.00  0.00    -0.203 F 
ATOM     27  C   LIG    1      -33.360  78.951  27.667  0.00  0.00    +0.042 A 
ATOM     28  C   LIG    1      -34.260  79.439  28.601  0.00  0.00    +0.023 A 
ATOM     29  C   LIG    1      -34.590  78.619  29.665  0.00  0.00    +0.111 A 
ATOM     30  N   LIG    1      -34.120  77.353  29.829  0.00  0.00    -0.252 NA
ENDBRANCH  22  24
ENDBRANCH  14  16
ENDBRANCH   4  12
BRANCH   1  31
ATOM     31  C   LIG    1      -35.407  67.882  24.207  0.00  0.00    +0.236 C 
ATOM     32  N   LIG    1      -34.837  67.775  23.052  0.00  0.00    -0.241 NA
BRANCH  32  33
ATOM     33  C   LIG    1      -34.804  66.475  22.394  0.00  0.00    +0.160 C 
ATOM     34  C   LIG    1      -33.852  66.407  21.189  0.00  0.00    +0.189 C 
ATOM     35  O   LIG    1      -34.920  65.928  20.332  0.00  0.00    -0.375 OA
ATOM     36  C   LIG    1      -35.899  66.334  21.325  0.00  0.00    +0.189 C 
ENDBRANCH  32  33
BRANCH  31  37
ATOM     37  O   LIG    1      -36.029  66.881  24.861  0.00  0.00    -0.491 OA
ATOM     38  H   LIG    1      -35.638  66.018  24.688  0.00  0.00    +0.294 HD
ENDBRANCH  31  37
ENDBRANCH   1  31
TORSDOF 7
ENDMDL
MODEL 3
REMARK VINA RESULT:      -6.2     17.570     20.002
REMARK  Name = pdb/CHEMBL3979634.pdb
REMARK                            x       y       z     vdW  Elec       q    Type
REMARK                         _______ _______ _______ _____ _____    ______ ____
ROOT
ATOM      1  C   LIG    1      -26.249  77.794  14.120  0.00  0.00    +0.149 A 
ATOM      2  N   LIG    1      -25.119  77.857  14.845  0.00  0.00    -0.160 NA
ATOM      3  N   LIG    1      -24.582  79.074  14.578  0.00  0.00    -0.218 N 
ATOM      4  C   LIG    1      -25.406  79.818  13.725  0.00  0.00    +0.129 A 
ATOM      5  C   LIG    1      -26.495  79.023  13.463  0.00  0.00    +0.078 A 
ENDROOT
BRANCH   3   6
ATOM      6  C   LIG    1      -23.320  79.431  15.145  0.00  0.00    +0.067 A 
ATOM      7  C   LIG    1      -22.149  78.705  14.878  0.00  0.00    +0.028 A 
ATOM      8  C   LIG    1      -20.939  79.073  15.477  0.00  0.00    +0.002 A 
ATOM      9  C   LIG    1      -20.885  80.161  16.345  0.00  0.00    +0.000 A 
ATOM     10  C   LIG    1      -22.039  80.892  16.613  0.00  0.00    +0.002 A 
ATOM     11  C   LIG    1      -23.255  80.526  16.025  0.00  0.00    +0.028 A 
ENDBRANCH   3   6
BRANCH   4  12
ATOM     12  N   LIG    1      -25.223  81.140  13.321  0.00  0.00    -0.266 N 
ATOM     13  H   LIG    1      -25.838  81.821  13.745  0.00  0.00    +0.157 HD
ATOM     14  C   LIG    1      -24.282  81.586  12.320  0.00  0.00    +0.251 C 
ATOM     15  O   LIG    1      -23.511  80.824  11.789  0.00  0.00    -0.270 OA
BRANCH  14  16
ATOM     16  C   LIG    1      -24.279  83.063  12.048  0.00  0.00    +0.056 A 
ATOM     17  C   LIG    1      -25.246  83.669  11.251  0.00  0.00    +0.054 A 
ATOM     18 CL   LIG    1      -26.515  82.817  10.440  0.00  0.00    -0.083 Cl
ATOM     19  C   LIG    1      -25.223  85.047  11.058  0.00  0.00    +0.041 A 
ATOM     20  C   LIG    1      -24.233  85.849  11.644  0.00  0.00    +0.052 A 
ATOM     21 CL   LIG    1      -24.487  87.548  11.426  0.00  0.00    -0.083 Cl
ATOM     22  C   LIG    1      -23.188  85.282  12.404  0.00  0.00    +0.022 A 
ATOM     23  C   LIG    1      -23.259  83.869  12.611  0.00  0.00    +0.026 A 
BRANCH  22  24
ATOM     24  C   LIG    1      -22.060  86.054  13.008  0.00  0.00    +0.107 A 
ATOM     25  C   LIG    1      -21.926  86.346  14.371  0.00  0.00    +0.149 A 
ATOM     26  F   LIG    1      -22.875  86.032  15.262  0.00  0.00    -0.203 F 
ATOM     27  C   LIG    1      -20.814  87.039  14.840  0.00  0.00    +0.042 A 
ATOM     28  C   LIG    1      -19.875  87.505  13.934  0.00  0.00    +0.023 A 
ATOM     29  C   LIG    1      -20.092  87.245  12.591  0.00  0.00    +0.111 A 
ATOM     30  N   LIG    1      -21.143  86.527  12.113  0.00  0.00    -0.252 NA
ENDBRANCH  22  24
ENDBRANCH  14  16
ENDBRANCH   4  12
BRANCH   1  31
ATOM     31  C   LIG    1      -27.087  76.595  14.064  0.00  0.00    +0.236 C 
ATOM     32  N   LIG    1      -26.532  75.427  14.095  0.00  0.00    -0.241 NA
BRANCH  32  33
ATOM     33  C   LIG    1      -27.375  74.239  14.078  0.00  0.00    +0.160 C 
ATOM     34  C   LIG    1      -26.662  72.960  14.544  0.00  0.00    +0.189 C 
ATOM     35  O   LIG    1      -27.032  72.270  13.323  0.00  0.00    -0.375 OA
ATOM     36  C   LIG    1      -27.373  73.541  12.708  0.00  0.00    +0.189 C 
ENDBRANCH  32  33
BRANCH  31  37
ATOM     37  O   LIG    1      -28.413  76.821  13.973  0.00  0.00    -0.491 OA
ATOM     38  H   LIG    1      -28.814  77.053  14.818  0.00  0.00    +0.294 HD
ENDBRANCH  31  37
ENDBRANCH   1  31
TORSDOF 7
ENDMDL
MODEL 4
REMARK VINA RESULT:      -6.2      4.677      8.114
REMARK  Name = pdb/CHEMBL3979634.pdb
REMARK                            x       y       z     vdW  Elec       q    Type
REMARK                         _______ _______ _______ _____ _____    ______ ____
ROOT
ATOM      1  C   LIG    1      -37.440  79.801  27.475  0.00  0.00    +0.149 A 
ATOM      2  N   LIG    1      -36.340  79.122  27.841  0.00  0.00    -0.160 NA
ATOM      3  N   LIG    1      -36.589  77.826  27.526  0.00  0.00    -0.218 N 
ATOM      4  C   LIG    1      -37.832  77.685  26.897  0.00  0.00    +0.129 A 
ATOM      5  C   LIG    1      -38.363  78.949  26.821  0.00  0.00    +0.078 A 
ENDROOT
BRANCH   3   6
ATOM      6  C   LIG    1      -35.631  76.819  27.859  0.00  0.00    +0.067 A 
ATOM      7  C   LIG    1      -34.382  76.739  27.224  0.00  0.00    +0.028 A 
ATOM      8  C   LIG    1      -33.483  75.720  27.561  0.00  0.00    +0.002 A 
ATOM      9  C   LIG    1      -33.821  74.774  28.526  0.00  0.00    +0.000 A 
ATOM     10  C   LIG    1      -35.056  74.847  29.165  0.00  0.00    +0.002 A 
ATOM     11  C   LIG    1      -35.963  75.858  28.829  0.00  0.00    +0.028 A 
ENDBRANCH   3   6
BRANCH   4  12
ATOM     12  N   LIG    1      -38.370  76.521  26.349  0.00  0.00    -0.266 N 
ATOM     13  H   LIG    1      -39.065  76.048  26.912  0.00  0.00    +0.157 HD
ATOM     14  C   LIG    1      -37.971  75.923  25.096  0.00  0.00    +0.251 C 
ATOM     15  O   LIG    1      -37.158  76.447  24.374  0.00  0.00    -0.270 OA
BRANCH  14  16
ATOM     16  C   LIG    1      -38.690  74.659  24.725  0.00  0.00    +0.056 A 
ATOM     17  C   LIG    1      -39.935  74.671  24.103  0.00  0.00    +0.054 A 
ATOM     18 CL   LIG    1      -40.826  76.109  23.735  0.00  0.00    -0.083 Cl
ATOM     19  C   LIG    1      -40.545  73.473  23.744  0.00  0.00    +0.041 A 
ATOM     20  C   LIG    1      -39.936  72.238  24.007  0.00  0.00    +0.052 A 
ATOM     21 CL   LIG    1      -40.773  70.885  23.325  0.00  0.00    -0.083 Cl
ATOM     22  C   LIG    1      -38.708  72.161  24.696  0.00  0.00    +0.022 A 
ATOM     23  C   LIG    1      -38.091  73.409  25.021  0.00  0.00    +0.026 A 
BRANCH  22  24
ATOM     24  C   LIG    1      -38.023  70.886  25.073  0.00  0.00    +0.107 A 
ATOM     25  C   LIG    1      -37.454  69.983  24.167  0.00  0.00    +0.149 A 
ATOM     26  F   LIG    1      -37.565  70.140  22.842  0.00  0.00    -0.203 F 
ATOM     27  C   LIG    1      -36.802  68.841  24.623  0.00  0.00    +0.042 A 
ATOM     28  C   LIG    1      -36.785  68.567  25.981  0.00  0.00    +0.023 A 
ATOM     29  C   LIG    1      -37.420  69.462  26.826  0.00  0.00    +0.111 A 
ATOM     30  N   LIG    1      -38.021  70.609  26.410  0.00  0.00    -0.252 NA
ENDBRANCH  22  24
ENDBRANCH  14  16
ENDBRANCH   4  12
BRANCH   1  31
ATOM     31  C   LIG    1      -37.606  81.233  27.726  0.00  0.00    +0.236 C 
ATOM     32  N   LIG    1      -36.569  81.958  27.992  0.00  0.00    -0.241 NA
BRANCH  32  33
ATOM     33  C   LIG    1      -36.738  83.390  28.203  0.00  0.00    +0.160 C 
ATOM     34  C   LIG    1      -36.425  84.246  26.965  0.00  0.00    +0.189 C 
ATOM     35  O   LIG    1      -35.483  85.050  27.720  0.00  0.00    -0.375 OA
ATOM     36  C   LIG    1      -35.472  84.049  28.773  0.00  0.00    +0.189 C 
ENDBRANCH  32  33
BRANCH  31  37
ATOM     37  O   LIG    1      -38.875  81.687  27.665  0.00  0.00    -0.491 OA
ATOM     38  H   LIG    1      -39.196  82.019  28.510  0.00  0.00    +0.294 HD
ENDBRANCH  31  37
ENDBRANCH   1  31
TORSDOF 7
ENDMDL
MODEL 5
REMARK VINA RESULT:      -6.2     10.881     13.779
REMARK  Name = pdb/CHEMBL3979634.pdb
REMARK                            x       y       z     vdW  Elec       q    Type
REMARK                         _______ _______ _______ _____ _____    ______ ____
ROOT
ATOM      1  C   LIG    1      -24.401  78.391  34.355  0.00  0.00    +0.149 A 
ATOM      2  N   LIG    1      -23.442  78.456  33.416  0.00  0.00    -0.160 NA
ATOM      3  N   LIG    1      -23.438  77.239  32.815  0.00  0.00    -0.218 N 
ATOM      4  C   LIG    1      -24.444  76.413  33.331  0.00  0.00    +0.129 A 
ATOM      5  C   LIG    1      -25.092  77.158  34.285  0.00  0.00    +0.078 A 
ENDROOT
BRANCH   3   6
ATOM      6  C   LIG    1      -22.470  76.951  31.804  0.00  0.00    +0.067 A 
ATOM      7  C   LIG    1      -21.158  76.565  32.115  0.00  0.00    +0.028 A 
ATOM      8  C   LIG    1      -20.233  76.318  31.094  0.00  0.00    +0.002 A 
ATOM      9  C   LIG    1      -20.606  76.459  29.759  0.00  0.00    +0.000 A 
ATOM     10  C   LIG    1      -21.907  76.836  29.438  0.00  0.00    +0.002 A 
ATOM     11  C   LIG    1      -22.835  77.092  30.454  0.00  0.00    +0.028 A 
ENDBRANCH   3   6
BRANCH   4  12
ATOM     12  N   LIG    1      -24.798  75.140  32.886  0.00  0.00    -0.266 N 
ATOM     13  H   LIG    1      -24.458  74.367  33.443  0.00  0.00    +0.157 HD
ATOM     14  C   LIG    1      -25.544  74.850  31.684  0.00  0.00    +0.251 C 
ATOM     15  O   LIG    1      -25.989  75.729  30.986  0.00  0.00    -0.270 OA
BRANCH  14  16
ATOM     16  C   LIG    1      -25.789  73.394  31.410  0.00  0.00    +0.056 A 
ATOM     17  C   LIG    1      -26.992  72.773  31.736  0.00  0.00    +0.054 A 
ATOM     18 CL   LIG    1      -28.310  73.561  32.532  0.00  0.00    -0.083 Cl
ATOM     19  C   LIG    1      -27.186  71.430  31.427  0.00  0.00    +0.041 A 
ATOM     20  C   LIG    1      -26.185  70.674  30.801  0.00  0.00    +0.052 A 
ATOM     21 CL   LIG    1      -26.690  69.081  30.347  0.00  0.00    -0.083 Cl
ATOM     22  C   LIG    1      -24.921  71.231  30.510  0.00  0.00    +0.022 A 
ATOM     23  C   LIG    1      -24.766  72.620  30.808  0.00  0.00    +0.026 A 
BRANCH  22  24
ATOM     24  C   LIG    1      -23.780  70.480  29.903  0.00  0.00    +0.107 A 
ATOM     25  C   LIG    1      -23.713  70.063  28.568  0.00  0.00    +0.149 A 
ATOM     26  F   LIG    1      -24.739  70.219  27.722  0.00  0.00    -0.203 F 
ATOM     27  C   LIG    1      -22.585  69.403  28.090  0.00  0.00    +0.042 A 
ATOM     28  C   LIG    1      -21.557  69.095  28.966  0.00  0.00    +0.023 A 
ATOM     29  C   LIG    1      -21.705  69.475  30.290  0.00  0.00    +0.111 A 
ATOM     30  N   LIG    1      -22.775  70.164  30.771  0.00  0.00    -0.252 NA
ENDBRANCH  22  24
ENDBRANCH  14  16
ENDBRANCH   4  12
BRANCH   1  31
ATOM     31  C   LIG    1      -24.667  79.486  35.290  0.00  0.00    +0.236 C 
ATOM     32  N   LIG    1      -23.704  80.275  35.637  0.00  0.00    -0.241 NA
BRANCH  32  33
ATOM     33  C   LIG    1      -23.985  81.385  36.539  0.00  0.00    +0.160 C 
ATOM     34  C   LIG    1      -23.120  82.630  36.286  0.00  0.00    +0.189 C 
ATOM     35  O   LIG    1      -22.691  82.653  37.671  0.00  0.00    -0.375 OA
ATOM     36  C   LIG    1      -23.180  81.296  37.844  0.00  0.00    +0.189 C 
ENDBRANCH  32  33
BRANCH  31  37
ATOM     37  O   LIG    1      -25.939  79.573  35.730  0.00  0.00    -0.491 OA
ATOM     38  H   LIG    1      -26.275  78.740  36.078  0.00  0.00    +0.294 HD
ENDBRANCH  31  37
ENDBRANCH   1  31
TORSDOF 7
ENDMDL
MODEL 6
REMARK VINA RESULT:      -6.2     17.132     19.966
REMARK  Name = pdb/CHEMBL3979634.pdb
REMARK                            x       y       z     vdW  Elec       q    Type
REMARK                         _______ _______ _______ _____ _____    ______ ____
ROOT
ATOM      1  C   LIG    1      -22.794  82.953  15.385  0.00  0.00    +0.149 A 
ATOM      2  N   LIG    1      -23.906  82.404  14.870  0.00  0.00    -0.160 NA
ATOM      3  N   LIG    1      -23.686  81.064  14.874  0.00  0.00    -0.218 N 
ATOM      4  C   LIG    1      -22.450  80.753  15.452  0.00  0.00    +0.129 A 
ATOM      5  C   LIG    1      -21.893  81.952  15.821  0.00  0.00    +0.078 A 
ENDROOT
BRANCH   3   6
ATOM      6  C   LIG    1      -24.664  80.184  14.315  0.00  0.00    +0.067 A 
ATOM      7  C   LIG    1      -25.002  80.211  12.954  0.00  0.00    +0.028 A 
ATOM      8  C   LIG    1      -25.985  79.350  12.453  0.00  0.00    +0.002 A 
ATOM      9  C   LIG    1      -26.641  78.461  13.302  0.00  0.00    +0.000 A 
ATOM     10  C   LIG    1      -26.309  78.422  14.654  0.00  0.00    +0.002 A 
ATOM     11  C   LIG    1      -25.333  79.285  15.163  0.00  0.00    +0.028 A 
ENDBRANCH   3   6
BRANCH   4  12
ATOM     12  N   LIG    1      -21.940  79.482  15.713  0.00  0.00    -0.266 N 
ATOM     13  H   LIG    1      -21.955  79.190  16.681  0.00  0.00    +0.157 HD
ATOM     14  C   LIG    1      -21.352  78.599  14.733  0.00  0.00    +0.251 C 
ATOM     15  O   LIG    1      -21.319  78.884  13.561  0.00  0.00    -0.270 OA
BRANCH  14  16
ATOM     16  C   LIG    1      -20.860  77.282  15.261  0.00  0.00    +0.056 A 
ATOM     17  C   LIG    1      -19.548  77.100  15.688  0.00  0.00    +0.054 A 
ATOM     18 CL   LIG    1      -18.322  78.319  15.614  0.00  0.00    -0.083 Cl
ATOM     19  C   LIG    1      -19.149  75.871  16.205  0.00  0.00    +0.041 A 
ATOM     20  C   LIG    1      -20.043  74.795  16.298  0.00  0.00    +0.052 A 
ATOM     21 CL   LIG    1      -19.400  73.419  17.130  0.00  0.00    -0.083 Cl
ATOM     22  C   LIG    1      -21.366  74.900  15.818  0.00  0.00    +0.022 A 
ATOM     23  C   LIG    1      -21.754  76.183  15.324  0.00  0.00    +0.026 A 
BRANCH  22  24
ATOM     24  C   LIG    1      -22.362  73.785  15.820  0.00  0.00    +0.107 A 
ATOM     25  C   LIG    1      -23.110  73.378  16.932  0.00  0.00    +0.149 A 
ATOM     26  F   LIG    1      -22.919  73.906  18.148  0.00  0.00    -0.203 F 
ATOM     27  C   LIG    1      -24.044  72.353  16.819  0.00  0.00    +0.042 A 
ATOM     28  C   LIG    1      -24.173  71.684  15.613  0.00  0.00    +0.023 A 
ATOM     29  C   LIG    1      -23.362  72.085  14.565  0.00  0.00    +0.111 A 
ATOM     30  N   LIG    1      -22.478  73.116  14.635  0.00  0.00    -0.252 NA
ENDBRANCH  22  24
ENDBRANCH  14  16
ENDBRANCH   4  12
BRANCH   1  31
ATOM     31  C   LIG    1      -22.596  84.401  15.475  0.00  0.00    +0.236 C 
ATOM     32  N   LIG    1      -22.208  85.058  14.431  0.00  0.00    -0.241 NA
BRANCH  32  33
ATOM     33  C   LIG    1      -22.051  86.504  14.519  0.00  0.00    +0.160 C 
ATOM     34  C   LIG    1      -22.195  87.231  13.173  0.00  0.00    +0.189 C 
ATOM     35  O   LIG    1      -20.908  87.877  13.348  0.00  0.00    -0.375 OA
ATOM     36  C   LIG    1      -20.581  86.938  14.407  0.00  0.00    +0.189 C 
ENDBRANCH  32  33
BRANCH  31  37
ATOM     37  O   LIG    1      -22.836  84.942  16.687  0.00  0.00    -0.491 OA
ATOM     38  H   LIG    1      -23.752  84.843  16.969  0.00  0.00    +0.294 HD
ENDBRANCH  31  37
ENDBRANCH   1  31
TORSDOF 7
ENDMDL
MODEL 7
REMARK VINA RESULT:      -6.1      4.327      8.767
REMARK  Name = pdb/CHEMBL3979634.pdb
REMARK                            x       y       z     vdW  Elec       q    Type
REMARK                         _______ _______ _______ _____ _____    ______ ____
ROOT
ATOM      1  C   LIG    1      -38.707  70.426  24.335  0.00  0.00    +0.149 A 
ATOM      2  N   LIG    1      -39.215  71.629  24.018  0.00  0.00    -0.160 NA
ATOM      3  N   LIG    1      -38.455  72.533  24.687  0.00  0.00    -0.218 N 
ATOM      4  C   LIG    1      -37.416  71.906  25.385  0.00  0.00    +0.129 A 
ATOM      5  C   LIG    1      -37.544  70.564  25.130  0.00  0.00    +0.078 A 
ENDROOT
BRANCH   3   6
ATOM      6  C   LIG    1      -38.783  73.922  24.619  0.00  0.00    +0.067 A 
ATOM      7  C   LIG    1      -37.865  74.923  24.970  0.00  0.00    +0.028 A 
ATOM      8  C   LIG    1      -38.236  76.272  24.915  0.00  0.00    +0.002 A 
ATOM      9  C   LIG    1      -39.522  76.632  24.516  0.00  0.00    +0.000 A 
ATOM     10  C   LIG    1      -40.439  75.647  24.160  0.00  0.00    +0.002 A 
ATOM     11  C   LIG    1      -40.078  74.297  24.220  0.00  0.00    +0.028 A 
ENDBRANCH   3   6
BRANCH   4  12
ATOM     12  N   LIG    1      -36.388  72.525  26.096  0.00  0.00    -0.266 N 
ATOM     13  H   LIG    1      -35.543  72.717  25.574  0.00  0.00    +0.157 HD
ATOM     14  C   LIG    1      -36.420  72.850  27.503  0.00  0.00    +0.251 C 
ATOM     15  O   LIG    1      -37.404  72.660  28.175  0.00  0.00    -0.270 OA
BRANCH  14  16
ATOM     16  C   LIG    1      -35.182  73.504  28.044  0.00  0.00    +0.056 A 
ATOM     17  C   LIG    1      -34.188  72.780  28.696  0.00  0.00    +0.054 A 
ATOM     18 CL   LIG    1      -34.270  71.081  29.014  0.00  0.00    -0.083 Cl
ATOM     19  C   LIG    1      -33.041  73.426  29.147  0.00  0.00    +0.041 A 
ATOM     20  C   LIG    1      -32.863  74.805  28.970  0.00  0.00    +0.052 A 
ATOM     21 CL   LIG    1      -31.298  75.376  29.442  0.00  0.00    -0.083 Cl
ATOM     22  C   LIG    1      -33.866  75.602  28.378  0.00  0.00    +0.022 A 
ATOM     23  C   LIG    1      -35.017  74.904  27.896  0.00  0.00    +0.026 A 
BRANCH  22  24
ATOM     24  C   LIG    1      -33.786  77.085  28.210  0.00  0.00    +0.107 A 
ATOM     25  C   LIG    1      -32.972  77.744  27.281  0.00  0.00    +0.149 A 
ATOM     26  F   LIG    1      -32.099  77.086  26.508  0.00  0.00    -0.203 F 
ATOM     27  C   LIG    1      -33.000  79.132  27.175  0.00  0.00    +0.042 A 
ATOM     28  C   LIG    1      -33.785  79.862  28.052  0.00  0.00    +0.023 A 
ATOM     29  C   LIG    1      -34.519  79.161  28.994  0.00  0.00    +0.111 A 
ATOM     30  N   LIG    1      -34.548  77.805  29.085  0.00  0.00    -0.252 NA
ENDBRANCH  22  24
ENDBRANCH  14  16
ENDBRANCH   4  12
BRANCH   1  31
ATOM     31  C   LIG    1      -39.305  69.170  23.878  0.00  0.00    +0.236 C 
ATOM     32  N   LIG    1      -40.152  69.186  22.901  0.00  0.00    -0.241 NA
BRANCH  32  33
ATOM     33  C   LIG    1      -40.714  67.927  22.428  0.00  0.00    +0.160 C 
ATOM     34  C   LIG    1      -40.001  67.348  21.196  0.00  0.00    +0.189 C 
ATOM     35  O   LIG    1      -41.254  67.265  20.470  0.00  0.00    -0.375 OA
ATOM     36  C   LIG    1      -41.878  68.140  21.448  0.00  0.00    +0.189 C 
ENDBRANCH  32  33
BRANCH  31  37
ATOM     37  O   LIG    1      -38.913  68.067  24.547  0.00  0.00    -0.491 OA
ATOM     38  H   LIG    1      -38.959  68.170  25.504  0.00  0.00    +0.294 HD
ENDBRANCH  31  37
ENDBRANCH   1  31
TORSDOF 7
ENDMDL
MODEL 8
REMARK VINA RESULT:      -6.1     16.983     19.749
REMARK  Name = pdb/CHEMBL3979634.pdb
REMARK                            x       y       z     vdW  Elec       q    Type
REMARK                         _______ _______ _______ _____ _____    ______ ____
ROOT
ATOM      1  C   LIG    1      -26.391  78.176  13.639  0.00  0.00    +0.149 A 
ATOM      2  N   LIG    1      -25.907  79.404  13.892  0.00  0.00    -0.160 NA
ATOM      3  N   LIG    1      -24.739  79.206  14.553  0.00  0.00    -0.218 N 
ATOM      4  C   LIG    1      -24.443  77.842  14.667  0.00  0.00    +0.129 A 
ATOM      5  C   LIG    1      -25.473  77.179  14.046  0.00  0.00    +0.078 A 
ENDROOT
BRANCH   3   6
ATOM      6  C   LIG    1      -23.998  80.330  15.036  0.00  0.00    +0.067 A 
ATOM      7  C   LIG    1      -24.041  81.580  14.401  0.00  0.00    +0.028 A 
ATOM      8  C   LIG    1      -23.279  82.647  14.891  0.00  0.00    +0.002 A 
ATOM      9  C   LIG    1      -22.468  82.476  16.011  0.00  0.00    +0.000 A 
ATOM     10  C   LIG    1      -22.422  81.241  16.652  0.00  0.00    +0.002 A 
ATOM     11  C   LIG    1      -23.174  80.168  16.163  0.00  0.00    +0.028 A 
ENDBRANCH   3   6
BRANCH   4  12
ATOM     12  N   LIG    1      -23.283  77.274  15.193  0.00  0.00    -0.266 N 
ATOM     13  H   LIG    1      -23.310  77.049  16.179  0.00  0.00    +0.157 HD
ATOM     14  C   LIG    1      -22.057  77.047  14.464  0.00  0.00    +0.251 C 
ATOM     15  O   LIG    1      -21.968  77.282  13.284  0.00  0.00    -0.270 OA
BRANCH  14  16
ATOM     16  C   LIG    1      -20.939  76.432  15.255  0.00  0.00    +0.056 A 
ATOM     17  C   LIG    1      -19.772  77.131  15.552  0.00  0.00    +0.054 A 
ATOM     18 CL   LIG    1      -19.438  78.741  15.014  0.00  0.00    -0.083 Cl
ATOM     19  C   LIG    1      -18.780  76.531  16.321  0.00  0.00    +0.041 A 
ATOM     20  C   LIG    1      -18.921  75.221  16.800  0.00  0.00    +0.052 A 
ATOM     21 CL   LIG    1      -17.659  74.729  17.879  0.00  0.00    -0.083 Cl
ATOM     22  C   LIG    1      -20.050  74.440  16.474  0.00  0.00    +0.022 A 
ATOM     23  C   LIG    1      -21.066  75.096  15.711  0.00  0.00    +0.026 A 
BRANCH  22  24
ATOM     24  C   LIG    1      -20.250  73.018  16.888  0.00  0.00    +0.107 A 
ATOM     25  C   LIG    1      -21.198  72.579  17.820  0.00  0.00    +0.149 A 
ATOM     26  F   LIG    1      -21.963  73.433  18.512  0.00  0.00    -0.203 F 
ATOM     27  C   LIG    1      -21.332  71.224  18.108  0.00  0.00    +0.042 A 
ATOM     28  C   LIG    1      -20.465  70.317  17.518  0.00  0.00    +0.023 A 
ATOM     29  C   LIG    1      -19.504  70.815  16.655  0.00  0.00    +0.111 A 
ATOM     30  N   LIG    1      -19.385  72.127  16.319  0.00  0.00    -0.252 NA
ENDBRANCH  22  24
ENDBRANCH  14  16
ENDBRANCH   4  12
BRANCH   1  31
ATOM     31  C   LIG    1      -27.693  77.955  13.007  0.00  0.00    +0.236 C 
ATOM     32  N   LIG    1      -27.977  78.563  11.902  0.00  0.00    -0.241 NA
BRANCH  32  33
ATOM     33  C   LIG    1      -29.260  78.307  11.260  0.00  0.00    +0.160 C 
ATOM     34  C   LIG    1      -29.170  77.403  10.020  0.00  0.00    +0.189 C 
ATOM     35  O   LIG    1      -29.859  78.390   9.211  0.00  0.00    -0.375 OA
ATOM     36  C   LIG    1      -29.627  79.393  10.236  0.00  0.00    +0.189 C 
ENDBRANCH  32  33
BRANCH  31  37
ATOM     37  O   LIG    1      -28.517  77.112  13.663  0.00  0.00    -0.491 OA
ATOM     38  H   LIG    1      -28.299  76.185  13.518  0.00  0.00    +0.294 HD
ENDBRANCH  31  37
ENDBRANCH   1  31
TORSDOF 7
ENDMDL
MODEL 9
REMARK VINA RESULT:      -6.1     11.394     13.033
REMARK  Name = pdb/CHEMBL3979634.pdb
REMARK                            x       y       z     vdW  Elec       q    Type
REMARK                         _______ _______ _______ _____ _____    ______ ____
ROOT
ATOM      1  C   LIG    1      -27.104  65.933  19.404  0.00  0.00    +0.149 A 
ATOM      2  N   LIG    1      -27.048  67.180  18.905  0.00  0.00    -0.160 NA
ATOM      3  N   LIG    1      -28.333  67.614  18.865  0.00  0.00    -0.218 N 
ATOM      4  C   LIG    1      -29.209  66.662  19.400  0.00  0.00    +0.129 A 
ATOM      5  C   LIG    1      -28.426  65.603  19.787  0.00  0.00    +0.078 A 
ENDROOT
BRANCH   3   6
ATOM      6  C   LIG    1      -28.630  68.897  18.309  0.00  0.00    +0.067 A 
ATOM      7  C   LIG    1      -28.457  70.084  19.037  0.00  0.00    +0.028 A 
ATOM      8  C   LIG    1      -28.786  71.318  18.464  0.00  0.00    +0.002 A 
ATOM      9  C   LIG    1      -29.293  71.379  17.168  0.00  0.00    +0.000 A 
ATOM     10  C   LIG    1      -29.464  70.208  16.435  0.00  0.00    +0.002 A 
ATOM     11  C   LIG    1      -29.145  68.970  17.003  0.00  0.00    +0.028 A 
ENDBRANCH   3   6
BRANCH   4  12
ATOM     12  N   LIG    1      -30.580  66.806  19.611  0.00  0.00    -0.266 N 
ATOM     13  H   LIG    1      -30.867  67.646  20.093  0.00  0.00    +0.157 HD
ATOM     14  C   LIG    1      -31.588  65.835  19.252  0.00  0.00    +0.251 C 
ATOM     15  O   LIG    1      -31.310  64.820  18.661  0.00  0.00    -0.270 OA
BRANCH  14  16
ATOM     16  C   LIG    1      -33.000  66.213  19.594  0.00  0.00    +0.056 A 
ATOM     17  C   LIG    1      -33.956  66.468  18.614  0.00  0.00    +0.054 A 
ATOM     18 CL   LIG    1      -33.638  66.441  16.914  0.00  0.00    -0.083 Cl
ATOM     19  C   LIG    1      -35.262  66.778  18.981  0.00  0.00    +0.041 A 
ATOM     20  C   LIG    1      -35.642  66.853  20.329  0.00  0.00    +0.052 A 
ATOM     21 CL   LIG    1      -37.342  67.076  20.566  0.00  0.00    -0.083 Cl
ATOM     22  C   LIG    1      -34.701  66.673  21.365  0.00  0.00    +0.022 A 
ATOM     23  C   LIG    1      -33.377  66.323  20.956  0.00  0.00    +0.026 A 
BRANCH  22  24
ATOM     24  C   LIG    1      -35.008  66.798  22.823  0.00  0.00    +0.107 A 
ATOM     25  C   LIG    1      -35.472  65.759  23.638  0.00  0.00    +0.149 A 
ATOM     26  F   LIG    1      -35.782  64.553  23.145  0.00  0.00    -0.203 F 
ATOM     27  C   LIG    1      -35.689  65.969  24.997  0.00  0.00    +0.042 A 
ATOM     28  C   LIG    1      -35.514  67.239  25.522  0.00  0.00    +0.023 A 
ATOM     29  C   LIG    1      -35.118  68.244  24.657  0.00  0.00    +0.111 A 
ATOM     30  N   LIG    1      -34.851  68.054  23.337  0.00  0.00    -0.252 NA
ENDBRANCH  22  24
ENDBRANCH  14  16
ENDBRANCH   4  12
BRANCH   1  31
ATOM     31  C   LIG    1      -25.922  65.078  19.529  0.00  0.00    +0.236 C 
ATOM     32  N   LIG    1      -24.965  65.183  18.666  0.00  0.00    -0.241 NA
BRANCH  32  33
ATOM     33  C   LIG    1      -23.776  64.355  18.819  0.00  0.00    +0.160 C 
ATOM     34  C   LIG    1      -22.609  65.063  19.525  0.00  0.00    +0.189 C 
ATOM     35  O   LIG    1      -21.714  64.752  18.427  0.00  0.00    -0.375 OA
ATOM     36  C   LIG    1      -22.855  64.422  17.591  0.00  0.00    +0.189 C 
ENDBRANCH  32  33
BRANCH  31  37
ATOM     37  O   LIG    1      -25.939  64.218  20.567  0.00  0.00    -0.491 OA
ATOM     38  H   LIG    1      -25.062  64.045  20.927  0.00  0.00    +0.294 HD
ENDBRANCH  31  37
ENDBRANCH   1  31
TORSDOF 7
ENDMDL
