MODEL 1
REMARK VINA RESULT:      -5.9      0.000      0.000
REMARK  Name = pdb/CHEMBL3678292.pdb
REMARK                            x       y       z     vdW  Elec       q    Type
REMARK                         _______ _______ _______ _____ _____    ______ ____
ROOT
ATOM      1  C   LIG    1      -44.666  73.388  22.161  0.00  0.00    +0.117 C 
ATOM      2  C   LIG    1      -45.483  72.968  23.427  0.00  0.00    +0.036 C 
ENDROOT
BRANCH   1   3
ATOM      3  N   LIG    1      -43.764  74.516  22.388  0.00  0.00    -0.305 N 
ATOM      4  C   LIG    1      -42.528  74.479  23.018  0.00  0.00    +0.071 A 
ATOM      5  C   LIG    1      -41.662  73.477  23.453  0.00  0.00    +0.028 A 
ATOM      6  C   LIG    1      -40.476  73.868  24.094  0.00  0.00    +0.011 A 
ATOM      7  C   LIG    1      -40.135  75.217  24.262  0.00  0.00    -0.013 A 
ATOM      8  C   LIG    1      -41.018  76.199  23.796  0.00  0.00    +0.038 A 
ATOM      9  C   LIG    1      -42.211  75.831  23.171  0.00  0.00    +0.091 A 
ATOM     10  N   LIG    1      -43.138  76.650  22.625  0.00  0.00    -0.215 NA
ATOM     11  C   LIG    1      -44.079  75.831  22.109  0.00  0.00    +0.195 A 
BRANCH   7  12
ATOM     12  C   LIG    1      -38.858  75.587  24.853  0.00  0.00    +0.020 A 
ATOM     13  C   LIG    1      -38.325  75.033  25.999  0.00  0.00    +0.116 A 
ATOM     14  N   LIG    1      -37.152  75.687  26.236  0.00  0.00    -0.274 N 
ATOM     15  C   LIG    1      -36.266  75.465  27.352  0.00  0.00    +0.172 C 
ATOM     16  N   LIG    1      -36.872  76.635  25.326  0.00  0.00    -0.179 NA
ATOM     17  C   LIG    1      -37.907  76.569  24.485  0.00  0.00    +0.142 A 
ENDBRANCH   7  12
BRANCH  11  18
ATOM     18  N   LIG    1      -45.098  76.294  21.453  0.00  0.00    -0.329 N 
ATOM     19  H   LIG    1      -44.912  76.981  20.732  0.00  0.00    +0.145 HD
ATOM     20  H   LIG    1      -45.973  75.770  21.286  0.00  0.00    +0.145 HD
ENDBRANCH  11  18
ENDBRANCH   1   3
BRANCH   1  24
ATOM     21  C   LIG    1      -42.465  69.809  20.984  0.00  0.00    +0.162 A 
ATOM     22  C   LIG    1      -43.251  69.967  22.115  0.00  0.00    +0.162 A 
ATOM     23  C   LIG    1      -44.192  70.993  22.195  0.00  0.00    +0.055 A 
ATOM     24  C   LIG    1      -44.020  72.177  21.487  0.00  0.00    -0.021 A 
ATOM     25  C   LIG    1      -43.174  72.115  20.380  0.00  0.00    +0.009 A 
ATOM     26  C   LIG    1      -42.465  70.913  20.095  0.00  0.00    +0.050 A 
BRANCH  22  27
ATOM     27  O   LIG    1      -43.189  69.381  23.346  0.00  0.00    -0.491 OA
ATOM     28  C   LIG    1      -44.377  68.952  23.964  0.00  0.00    +0.277 C 
ENDBRANCH  22  27
BRANCH  21  29
ATOM     29  O   LIG    1      -41.514  68.867  20.752  0.00  0.00    -0.484 OA
BRANCH  29  30
ATOM     30  C   LIG    1      -40.077  68.852  20.934  0.00  0.00    +0.266 C 
BRANCH  30  34
ATOM     31  C   LIG    1      -37.438  70.295  23.915  0.00  0.00    +0.214 A 
ATOM     32  N   LIG    1      -36.994  69.288  23.170  0.00  0.00    -0.221 NA
ATOM     33  C   LIG    1      -37.865  68.835  22.254  0.00  0.00    +0.121 A 
ATOM     34  C   LIG    1      -39.209  69.174  22.145  0.00  0.00    +0.008 A 
ATOM     35  C   LIG    1      -39.696  70.020  23.154  0.00  0.00    +0.013 A 
ATOM     36  C   LIG    1      -38.778  70.648  23.998  0.00  0.00    +0.067 A 
BRANCH  31  38
ATOM     37  C   LIG    1      -35.927  70.900  25.638  0.00  0.00    +0.279 C 
ATOM     38  O   LIG    1      -36.533  71.216  24.385  0.00  0.00    -0.480 OA
ENDBRANCH  31  38
ENDBRANCH  30  34
ENDBRANCH  29  30
ENDBRANCH  21  29
ENDBRANCH   1  24
TORSDOF 9
ENDMDL
MODEL 2
REMARK VINA RESULT:      -5.8     10.235     15.038
REMARK  Name = pdb/CHEMBL3678292.pdb
REMARK                            x       y       z     vdW  Elec       q    Type
REMARK                         _______ _______ _______ _____ _____    ______ ____
ROOT
ATOM      1  C   LIG    1      -27.479  68.436  19.240  0.00  0.00    +0.117 C 
ATOM      2  C   LIG    1      -27.717  69.530  20.332  0.00  0.00    +0.036 C 
ENDROOT
BRANCH   1   3
ATOM      3  N   LIG    1      -28.572  67.472  19.122  0.00  0.00    -0.305 N 
ATOM      4  C   LIG    1      -29.843  67.713  18.623  0.00  0.00    +0.071 A 
ATOM      5  C   LIG    1      -30.462  68.758  17.938  0.00  0.00    +0.028 A 
ATOM      6  C   LIG    1      -31.823  68.622  17.625  0.00  0.00    +0.011 A 
ATOM      7  C   LIG    1      -32.545  67.463  17.943  0.00  0.00    -0.013 A 
ATOM      8  C   LIG    1      -31.888  66.423  18.614  0.00  0.00    +0.038 A 
ATOM      9  C   LIG    1      -30.538  66.546  18.949  0.00  0.00    +0.091 A 
ATOM     10  N   LIG    1      -29.754  65.621  19.547  0.00  0.00    -0.215 NA
ATOM     11  C   LIG    1      -28.529  66.185  19.618  0.00  0.00    +0.195 A 
BRANCH   7  12
ATOM     12  C   LIG    1      -33.931  67.319  17.528  0.00  0.00    +0.020 A 
ATOM     13  C   LIG    1      -35.015  67.288  18.382  0.00  0.00    +0.116 A 
ATOM     14  N   LIG    1      -36.116  67.091  17.603  0.00  0.00    -0.274 N 
ATOM     15  C   LIG    1      -37.474  66.957  18.070  0.00  0.00    +0.172 C 
ATOM     16  N   LIG    1      -35.838  66.990  16.293  0.00  0.00    -0.179 NA
ATOM     17  C   LIG    1      -34.510  67.133  16.250  0.00  0.00    +0.142 A 
ENDBRANCH   7  12
BRANCH  11  18
ATOM     18  N   LIG    1      -27.509  65.537  20.091  0.00  0.00    -0.329 N 
ATOM     19  H   LIG    1      -27.108  65.872  20.959  0.00  0.00    +0.145 HD
ATOM     20  H   LIG    1      -27.330  64.531  19.934  0.00  0.00    +0.145 HD
ENDBRANCH  11  18
ENDBRANCH   1   3
BRANCH   1  24
ATOM     21  C   LIG    1      -26.886  70.666  15.537  0.00  0.00    +0.162 A 
ATOM     22  C   LIG    1      -27.195  71.190  16.782  0.00  0.00    +0.162 A 
ATOM     23  C   LIG    1      -26.989  70.447  17.943  0.00  0.00    +0.055 A 
ATOM     24  C   LIG    1      -27.026  69.057  17.918  0.00  0.00    -0.021 A 
ATOM     25  C   LIG    1      -26.805  68.457  16.678  0.00  0.00    +0.009 A 
ATOM     26  C   LIG    1      -26.661  69.267  15.515  0.00  0.00    +0.050 A 
BRANCH  22  27
ATOM     27  O   LIG    1      -27.870  72.321  17.143  0.00  0.00    -0.491 OA
ATOM     28  C   LIG    1      -29.047  72.207  17.905  0.00  0.00    +0.277 C 
ENDBRANCH  22  27
BRANCH  21  29
ATOM     29  O   LIG    1      -27.024  71.259  14.322  0.00  0.00    -0.484 OA
BRANCH  29  30
ATOM     30  C   LIG    1      -28.133  71.361  13.397  0.00  0.00    +0.266 C 
BRANCH  30  34
ATOM     31  C   LIG    1      -32.365  71.317  13.519  0.00  0.00    +0.214 A 
ATOM     32  N   LIG    1      -31.804  72.321  12.855  0.00  0.00    -0.221 NA
ATOM     33  C   LIG    1      -30.461  72.323  12.859  0.00  0.00    +0.121 A 
ATOM     34  C   LIG    1      -29.631  71.515  13.629  0.00  0.00    +0.008 A 
ATOM     35  C   LIG    1      -30.292  70.675  14.539  0.00  0.00    +0.013 A 
ATOM     36  C   LIG    1      -31.674  70.521  14.422  0.00  0.00    +0.067 A 
BRANCH  31  38
ATOM     37  C   LIG    1      -33.721  70.683  11.681  0.00  0.00    +0.279 C 
ATOM     38  O   LIG    1      -33.582  70.842  13.092  0.00  0.00    -0.480 OA
ENDBRANCH  31  38
ENDBRANCH  30  34
ENDBRANCH  29  30
ENDBRANCH  21  29
ENDBRANCH   1  24
TORSDOF 9
ENDMDL
MODEL 3
REMARK VINA RESULT:      -5.8     18.876     22.474
REMARK  Name = pdb/CHEMBL3678292.pdb
REMARK                            x       y       z     vdW  Elec       q    Type
REMARK                         _______ _______ _______ _____ _____    ______ ____
ROOT
ATOM      1  C   LIG    1      -20.815  75.972  30.579  0.00  0.00    +0.117 C 
ATOM      2  C   LIG    1      -21.048  76.980  29.406  0.00  0.00    +0.036 C 
ENDROOT
BRANCH   1   3
ATOM      3  N   LIG    1      -19.969  76.498  31.650  0.00  0.00    -0.305 N 
ATOM      4  C   LIG    1      -20.322  77.447  32.598  0.00  0.00    +0.071 A 
ATOM      5  C   LIG    1      -21.509  78.057  33.002  0.00  0.00    +0.028 A 
ATOM      6  C   LIG    1      -21.437  79.022  34.018  0.00  0.00    +0.011 A 
ATOM      7  C   LIG    1      -20.228  79.346  34.649  0.00  0.00    -0.013 A 
ATOM      8  C   LIG    1      -19.056  78.701  34.233  0.00  0.00    +0.038 A 
ATOM      9  C   LIG    1      -19.103  77.748  33.212  0.00  0.00    +0.091 A 
ATOM     10  N   LIG    1      -18.080  77.006  32.734  0.00  0.00    -0.215 NA
ATOM     11  C   LIG    1      -18.627  76.208  31.793  0.00  0.00    +0.195 A 
BRANCH   7  12
ATOM     12  C   LIG    1      -20.202  80.288  35.757  0.00  0.00    +0.020 A 
ATOM     13  C   LIG    1      -20.920  81.466  35.812  0.00  0.00    +0.116 A 
ATOM     14  N   LIG    1      -20.577  82.073  36.984  0.00  0.00    -0.274 N 
ATOM     15  C   LIG    1      -21.057  83.350  37.451  0.00  0.00    +0.172 C 
ATOM     16  N   LIG    1      -19.684  81.379  37.708  0.00  0.00    -0.179 NA
ATOM     17  C   LIG    1      -19.461  80.294  36.962  0.00  0.00    +0.142 A 
ENDBRANCH   7  12
BRANCH  11  18
ATOM     18  N   LIG    1      -17.924  75.316  31.166  0.00  0.00    -0.329 N 
ATOM     19  H   LIG    1      -18.052  74.348  31.438  0.00  0.00    +0.145 HD
ATOM     20  H   LIG    1      -17.588  75.413  30.193  0.00  0.00    +0.145 HD
ENDBRANCH  11  18
ENDBRANCH   1   3
BRANCH   1  24
ATOM     21  C   LIG    1      -24.839  74.983  31.944  0.00  0.00    +0.162 A 
ATOM     22  C   LIG    1      -24.500  75.819  30.891  0.00  0.00    +0.162 A 
ATOM     23  C   LIG    1      -23.233  75.764  30.313  0.00  0.00    +0.055 A 
ATOM     24  C   LIG    1      -22.129  75.348  31.049  0.00  0.00    -0.021 A 
ATOM     25  C   LIG    1      -22.397  74.569  32.174  0.00  0.00    +0.009 A 
ATOM     26  C   LIG    1      -23.746  74.332  32.567  0.00  0.00    +0.050 A 
BRANCH  22  27
ATOM     27  O   LIG    1      -25.143  76.895  30.350  0.00  0.00    -0.491 OA
ATOM     28  C   LIG    1      -24.530  78.159  30.399  0.00  0.00    +0.277 C 
ENDBRANCH  22  27
BRANCH  21  29
ATOM     29  O   LIG    1      -26.022  74.913  32.608  0.00  0.00    -0.484 OA
BRANCH  29  30
ATOM     30  C   LIG    1      -26.526  75.572  33.795  0.00  0.00    +0.266 C 
BRANCH  30  34
ATOM     31  C   LIG    1      -25.607  79.153  35.859  0.00  0.00    +0.214 A 
ATOM     32  N   LIG    1      -25.024  78.986  34.677  0.00  0.00    -0.221 NA
ATOM     33  C   LIG    1      -25.313  77.828  34.061  0.00  0.00    +0.121 A 
ATOM     34  C   LIG    1      -25.982  76.740  34.610  0.00  0.00    +0.008 A 
ATOM     35  C   LIG    1      -26.312  76.863  35.968  0.00  0.00    +0.013 A 
ATOM     36  C   LIG    1      -26.193  78.116  36.572  0.00  0.00    +0.067 A 
BRANCH  31  38
ATOM     37  C   LIG    1      -25.499  80.774  37.586  0.00  0.00    +0.279 C 
ATOM     38  O   LIG    1      -25.919  80.428  36.266  0.00  0.00    -0.480 OA
ENDBRANCH  31  38
ENDBRANCH  30  34
ENDBRANCH  29  30
ENDBRANCH  21  29
ENDBRANCH   1  24
TORSDOF 9
ENDMDL
MODEL 4
REMARK VINA RESULT:      -5.7     19.113     22.778
REMARK  Name = pdb/CHEMBL3678292.pdb
REMARK                            x       y       z     vdW  Elec       q    Type
REMARK                         _______ _______ _______ _____ _____    ______ ____
ROOT
ATOM      1  C   LIG    1      -35.782  90.824  18.667  0.00  0.00    +0.117 C 
ATOM      2  C   LIG    1      -35.217  89.415  19.044  0.00  0.00    +0.036 C 
ENDROOT
BRANCH   1   3
ATOM      3  N   LIG    1      -35.598  91.832  19.710  0.00  0.00    -0.305 N 
ATOM      4  C   LIG    1      -34.391  92.317  20.193  0.00  0.00    +0.071 A 
ATOM      5  C   LIG    1      -33.054  92.220  19.810  0.00  0.00    +0.028 A 
ATOM      6  C   LIG    1      -32.094  92.858  20.610  0.00  0.00    +0.011 A 
ATOM      7  C   LIG    1      -32.451  93.611  21.738  0.00  0.00    -0.013 A 
ATOM      8  C   LIG    1      -33.805  93.705  22.085  0.00  0.00    +0.038 A 
ATOM      9  C   LIG    1      -34.775  93.063  21.311  0.00  0.00    +0.091 A 
ATOM     10  N   LIG    1      -36.115  93.098  21.481  0.00  0.00    -0.215 NA
ATOM     11  C   LIG    1      -36.622  92.365  20.467  0.00  0.00    +0.195 A 
BRANCH   7  12
ATOM     12  C   LIG    1      -31.440  94.331  22.496  0.00  0.00    +0.020 A 
ATOM     13  C   LIG    1      -30.531  95.220  21.959  0.00  0.00    +0.116 A 
ATOM     14  N   LIG    1      -29.737  95.631  22.988  0.00  0.00    -0.274 N 
ATOM     15  C   LIG    1      -28.622  96.540  22.890  0.00  0.00    +0.172 C 
ATOM     16  N   LIG    1      -30.058  95.077  24.169  0.00  0.00    -0.179 NA
ATOM     17  C   LIG    1      -31.095  94.291  23.868  0.00  0.00    +0.142 A 
ENDBRANCH   7  12
BRANCH  11  18
ATOM     18  N   LIG    1      -37.902  92.237  20.294  0.00  0.00    -0.329 N 
ATOM     19  H   LIG    1      -38.418  93.065  20.021  0.00  0.00    +0.145 HD
ATOM     20  H   LIG    1      -38.368  91.363  19.999  0.00  0.00    +0.145 HD
ENDBRANCH  11  18
ENDBRANCH   1   3
BRANCH   1  24
ATOM     21  C   LIG    1      -33.729  91.784  14.939  0.00  0.00    +0.162 A 
ATOM     22  C   LIG    1      -33.667  90.590  15.639  0.00  0.00    +0.162 A 
ATOM     23  C   LIG    1      -34.636  90.262  16.586  0.00  0.00    +0.055 A 
ATOM     24  C   LIG    1      -35.327  91.254  17.273  0.00  0.00    -0.021 A 
ATOM     25  C   LIG    1      -35.364  92.511  16.668  0.00  0.00    +0.009 A 
ATOM     26  C   LIG    1      -34.628  92.742  15.470  0.00  0.00    +0.050 A 
BRANCH  22  27
ATOM     27  O   LIG    1      -32.684  89.645  15.727  0.00  0.00    -0.491 OA
ATOM     28  C   LIG    1      -32.980  88.396  16.301  0.00  0.00    +0.277 C 
ENDBRANCH  22  27
BRANCH  21  29
ATOM     29  O   LIG    1      -32.872  92.244  13.991  0.00  0.00    -0.484 OA
BRANCH  29  30
ATOM     30  C   LIG    1      -31.944  93.355  13.957  0.00  0.00    +0.266 C 
BRANCH  30  34
ATOM     31  C   LIG    1      -30.813  95.717  17.285  0.00  0.00    +0.214 A 
ATOM     32  N   LIG    1      -30.853  96.334  16.109  0.00  0.00    -0.221 NA
ATOM     33  C   LIG    1      -31.187  95.552  15.070  0.00  0.00    +0.121 A 
ATOM     34  C   LIG    1      -31.298  94.166  15.075  0.00  0.00    +0.008 A 
ATOM     35  C   LIG    1      -30.948  93.542  16.283  0.00  0.00    +0.013 A 
ATOM     36  C   LIG    1      -30.782  94.336  17.419  0.00  0.00    +0.067 A 
BRANCH  31  38
ATOM     37  C   LIG    1      -32.419  96.218  18.955  0.00  0.00    +0.279 C 
ATOM     38  O   LIG    1      -31.116  96.435  18.417  0.00  0.00    -0.480 OA
ENDBRANCH  31  38
ENDBRANCH  30  34
ENDBRANCH  29  30
ENDBRANCH  21  29
ENDBRANCH   1  24
TORSDOF 9
ENDMDL
MODEL 5
REMARK VINA RESULT:      -5.6      3.813      7.873
REMARK  Name = pdb/CHEMBL3678292.pdb
REMARK                            x       y       z     vdW  Elec       q    Type
REMARK                         _______ _______ _______ _____ _____    ______ ____
ROOT
ATOM      1  C   LIG    1      -36.647  77.551  27.502  0.00  0.00    +0.117 C 
ATOM      2  C   LIG    1      -37.225  77.832  28.928  0.00  0.00    +0.036 C 
ENDROOT
BRANCH   1   3
ATOM      3  N   LIG    1      -35.461  76.696  27.503  0.00  0.00    -0.305 N 
ATOM      4  C   LIG    1      -35.427  75.321  27.689  0.00  0.00    +0.071 A 
ATOM      5  C   LIG    1      -36.375  74.300  27.739  0.00  0.00    +0.028 A 
ATOM      6  C   LIG    1      -35.921  72.995  27.982  0.00  0.00    +0.011 A 
ATOM      7  C   LIG    1      -34.559  72.700  28.130  0.00  0.00    -0.013 A 
ATOM      8  C   LIG    1      -33.630  73.746  28.054  0.00  0.00    +0.038 A 
ATOM      9  C   LIG    1      -34.063  75.054  27.829  0.00  0.00    +0.091 A 
ATOM     10  N   LIG    1      -33.297  76.158  27.681  0.00  0.00    -0.215 NA
ATOM     11  C   LIG    1      -34.164  77.165  27.443  0.00  0.00    +0.195 A 
BRANCH   7  12
ATOM     12  C   LIG    1      -34.115  71.324  28.295  0.00  0.00    +0.020 A 
ATOM     13  C   LIG    1      -33.175  70.900  29.213  0.00  0.00    +0.116 A 
ATOM     14  N   LIG    1      -33.011  69.562  29.008  0.00  0.00    -0.274 N 
ATOM     15  C   LIG    1      -32.099  68.700  29.717  0.00  0.00    +0.172 C 
ATOM     16  N   LIG    1      -33.777  69.071  28.019  0.00  0.00    -0.179 NA
ATOM     17  C   LIG    1      -34.450  70.143  27.591  0.00  0.00    +0.142 A 
ENDBRANCH   7  12
BRANCH  11  18
ATOM     18  N   LIG    1      -33.754  78.371  27.194  0.00  0.00    -0.329 N 
ATOM     19  H   LIG    1      -32.858  78.470  26.733  0.00  0.00    +0.145 HD
ATOM     20  H   LIG    1      -34.378  79.178  27.027  0.00  0.00    +0.145 HD
ENDBRANCH  11  18
ENDBRANCH   1   3
BRANCH   1  24
ATOM     21  C   LIG    1      -39.928  75.720  25.284  0.00  0.00    +0.162 A 
ATOM     22  C   LIG    1      -39.922  76.064  26.626  0.00  0.00    +0.162 A 
ATOM     23  C   LIG    1      -38.989  76.969  27.130  0.00  0.00    +0.055 A 
ATOM     24  C   LIG    1      -37.745  77.122  26.528  0.00  0.00    -0.021 A 
ATOM     25  C   LIG    1      -37.652  76.720  25.196  0.00  0.00    +0.009 A 
ATOM     26  C   LIG    1      -38.765  76.094  24.565  0.00  0.00    +0.050 A 
BRANCH  22  27
ATOM     27  O   LIG    1      -40.591  75.539  27.695  0.00  0.00    -0.491 OA
ATOM     28  C   LIG    1      -39.862  74.925  28.729  0.00  0.00    +0.277 C 
ENDBRANCH  22  27
BRANCH  21  29
ATOM     29  O   LIG    1      -40.766  74.864  24.643  0.00  0.00    -0.484 OA
BRANCH  29  30
ATOM     30  C   LIG    1      -40.544  73.646  23.892  0.00  0.00    +0.266 C 
BRANCH  30  34
ATOM     31  C   LIG    1      -37.793  70.429  24.024  0.00  0.00    +0.214 A 
ATOM     32  N   LIG    1      -39.036  70.130  23.660  0.00  0.00    -0.221 NA
ATOM     33  C   LIG    1      -39.890  71.166  23.656  0.00  0.00    +0.121 A 
ATOM     34  C   LIG    1      -39.656  72.438  24.168  0.00  0.00    +0.008 A 
ATOM     35  C   LIG    1      -38.422  72.604  24.814  0.00  0.00    +0.013 A 
ATOM     36  C   LIG    1      -37.452  71.611  24.667  0.00  0.00    +0.067 A 
BRANCH  31  38
ATOM     37  C   LIG    1      -37.117  68.773  22.468  0.00  0.00    +0.279 C 
ATOM     38  O   LIG    1      -36.757  69.702  23.490  0.00  0.00    -0.480 OA
ENDBRANCH  31  38
ENDBRANCH  30  34
ENDBRANCH  29  30
ENDBRANCH  21  29
ENDBRANCH   1  24
TORSDOF 9
ENDMDL
MODEL 6
REMARK VINA RESULT:      -5.6     17.469     21.520
REMARK  Name = pdb/CHEMBL3678292.pdb
REMARK                            x       y       z     vdW  Elec       q    Type
REMARK                         _______ _______ _______ _____ _____    ______ ____
ROOT
ATOM      1  C   LIG    1      -20.571  76.762  31.575  0.00  0.00    +0.117 C 
ATOM      2  C   LIG    1      -20.362  77.585  30.261  0.00  0.00    +0.036 C 
ENDROOT
BRANCH   1   3
ATOM      3  N   LIG    1      -20.457  77.559  32.796  0.00  0.00    -0.305 N 
ATOM      4  C   LIG    1      -21.445  78.345  33.370  0.00  0.00    +0.071 A 
ATOM      5  C   LIG    1      -22.814  78.523  33.177  0.00  0.00    +0.028 A 
ATOM      6  C   LIG    1      -23.472  79.470  33.976  0.00  0.00    +0.011 A 
ATOM      7  C   LIG    1      -22.801  80.194  34.972  0.00  0.00    -0.013 A 
ATOM      8  C   LIG    1      -21.429  79.978  35.154  0.00  0.00    +0.038 A 
ATOM      9  C   LIG    1      -20.753  79.051  34.358  0.00  0.00    +0.091 A 
ATOM     10  N   LIG    1      -19.452  78.693  34.441  0.00  0.00    -0.215 NA
ATOM     11  C   LIG    1      -19.282  77.743  33.496  0.00  0.00    +0.195 A 
BRANCH   7  12
ATOM     12  C   LIG    1      -23.530  81.105  35.840  0.00  0.00    +0.020 A 
ATOM     13  C   LIG    1      -24.778  80.861  36.376  0.00  0.00    +0.116 A 
ATOM     14  N   LIG    1      -25.121  81.975  37.083  0.00  0.00    -0.274 N 
ATOM     15  C   LIG    1      -26.361  82.186  37.788  0.00  0.00    +0.172 C 
ATOM     16  N   LIG    1      -24.186  82.940  37.053  0.00  0.00    -0.179 NA
ATOM     17  C   LIG    1      -23.219  82.407  36.301  0.00  0.00    +0.142 A 
ENDBRANCH   7  12
BRANCH  11  18
ATOM     18  N   LIG    1      -18.148  77.133  33.342  0.00  0.00    -0.329 N 
ATOM     19  H   LIG    1      -18.165  76.120  33.310  0.00  0.00    +0.145 HD
ATOM     20  H   LIG    1      -17.332  77.531  32.848  0.00  0.00    +0.145 HD
ENDBRANCH  11  18
ENDBRANCH   1   3
BRANCH   1  24
ATOM     21  C   LIG    1      -24.555  75.005  31.289  0.00  0.00    +0.162 A 
ATOM     22  C   LIG    1      -24.018  75.986  30.471  0.00  0.00    +0.162 A 
ATOM     23  C   LIG    1      -22.641  76.195  30.411  0.00  0.00    +0.055 A 
ATOM     24  C   LIG    1      -21.824  75.890  31.493  0.00  0.00    -0.021 A 
ATOM     25  C   LIG    1      -22.333  74.968  32.408  0.00  0.00    +0.009 A 
ATOM     26  C   LIG    1      -23.662  74.477  32.255  0.00  0.00    +0.050 A 
BRANCH  22  27
ATOM     27  O   LIG    1      -24.609  76.994  29.764  0.00  0.00    -0.491 OA
ATOM     28  C   LIG    1      -24.979  78.177  30.430  0.00  0.00    +0.277 C 
ENDBRANCH  22  27
BRANCH  21  29
ATOM     29  O   LIG    1      -25.862  74.677  31.456  0.00  0.00    -0.484 OA
BRANCH  29  30
ATOM     30  C   LIG    1      -26.995  75.395  32.003  0.00  0.00    +0.266 C 
BRANCH  30  34
ATOM     31  C   LIG    1      -27.092  76.797  35.998  0.00  0.00    +0.214 A 
ATOM     32  N   LIG    1      -28.033  75.923  35.655  0.00  0.00    -0.221 NA
ATOM     33  C   LIG    1      -27.993  75.520  34.375  0.00  0.00    +0.121 A 
ATOM     34  C   LIG    1      -27.211  76.058  33.358  0.00  0.00    +0.008 A 
ATOM     35  C   LIG    1      -26.454  77.184  33.719  0.00  0.00    +0.013 A 
ATOM     36  C   LIG    1      -26.336  77.502  35.073  0.00  0.00    +0.067 A 
BRANCH  31  38
ATOM     37  C   LIG    1      -25.338  76.218  37.484  0.00  0.00    +0.279 C 
ATOM     38  O   LIG    1      -26.630  76.794  37.292  0.00  0.00    -0.480 OA
ENDBRANCH  31  38
ENDBRANCH  30  34
ENDBRANCH  29  30
ENDBRANCH  21  29
ENDBRANCH   1  24
TORSDOF 9
ENDMDL
MODEL 7
REMARK VINA RESULT:      -5.5      3.600      5.850
REMARK  Name = pdb/CHEMBL3678292.pdb
REMARK                            x       y       z     vdW  Elec       q    Type
REMARK                         _______ _______ _______ _____ _____    ______ ____
ROOT
ATOM      1  C   LIG    1      -40.274  69.907  23.877  0.00  0.00    +0.117 C 
ATOM      2  C   LIG    1      -40.787  69.464  25.287  0.00  0.00    +0.036 C 
ENDROOT
BRANCH   1   3
ATOM      3  N   LIG    1      -40.770  71.216  23.453  0.00  0.00    -0.305 N 
ATOM      4  C   LIG    1      -40.281  72.455  23.840  0.00  0.00    +0.071 A 
ATOM      5  C   LIG    1      -39.156  72.912  24.526  0.00  0.00    +0.028 A 
ATOM      6  C   LIG    1      -39.037  74.293  24.745  0.00  0.00    +0.011 A 
ATOM      7  C   LIG    1      -39.985  75.204  24.261  0.00  0.00    -0.013 A 
ATOM      8  C   LIG    1      -41.094  74.715  23.558  0.00  0.00    +0.038 A 
ATOM      9  C   LIG    1      -41.239  73.343  23.344  0.00  0.00    +0.091 A 
ATOM     10  N   LIG    1      -42.217  72.720  22.647  0.00  0.00    -0.215 NA
ATOM     11  C   LIG    1      -41.902  71.407  22.687  0.00  0.00    +0.195 A 
BRANCH   7  12
ATOM     12  C   LIG    1      -39.787  76.636  24.430  0.00  0.00    +0.020 A 
ATOM     13  C   LIG    1      -39.934  77.579  23.433  0.00  0.00    +0.116 A 
ATOM     14  N   LIG    1      -39.612  78.782  23.989  0.00  0.00    -0.274 N 
ATOM     15  C   LIG    1      -39.589  80.053  23.308  0.00  0.00    +0.172 C 
ATOM     16  N   LIG    1      -39.263  78.700  25.284  0.00  0.00    -0.179 NA
ATOM     17  C   LIG    1      -39.375  77.396  25.550  0.00  0.00    +0.142 A 
ENDBRANCH   7  12
BRANCH  11  18
ATOM     18  N   LIG    1      -42.610  70.519  22.060  0.00  0.00    -0.329 N 
ATOM     19  H   LIG    1      -43.100  69.834  22.623  0.00  0.00    +0.145 HD
ATOM     20  H   LIG    1      -43.058  70.670  21.141  0.00  0.00    +0.145 HD
ENDBRANCH  11  18
ENDBRANCH   1   3
BRANCH   1  24
ATOM     21  C   LIG    1      -36.160  68.651  23.151  0.00  0.00    +0.162 A 
ATOM     22  C   LIG    1      -37.203  68.647  22.239  0.00  0.00    +0.162 A 
ATOM     23  C   LIG    1      -38.350  69.409  22.460  0.00  0.00    +0.055 A 
ATOM     24  C   LIG    1      -38.762  69.722  23.750  0.00  0.00    -0.021 A 
ATOM     25  C   LIG    1      -37.782  69.667  24.740  0.00  0.00    +0.009 A 
ATOM     26  C   LIG    1      -36.473  69.206  24.417  0.00  0.00    +0.050 A 
BRANCH  22  27
ATOM     27  O   LIG    1      -37.444  67.865  21.146  0.00  0.00    -0.491 OA
ATOM     28  C   LIG    1      -37.364  68.433  19.862  0.00  0.00    +0.277 C 
ENDBRANCH  22  27
BRANCH  21  29
ATOM     29  O   LIG    1      -34.985  67.972  23.081  0.00  0.00    -0.484 OA
BRANCH  29  30
ATOM     30  C   LIG    1      -34.640  66.647  22.609  0.00  0.00    +0.266 C 
BRANCH  30  34
ATOM     31  C   LIG    1      -34.233  65.732  18.494  0.00  0.00    +0.214 A 
ATOM     32  N   LIG    1      -35.175  65.068  19.157  0.00  0.00    -0.221 NA
ATOM     33  C   LIG    1      -35.259  65.360  20.465  0.00  0.00    +0.121 A 
ATOM     34  C   LIG    1      -34.359  66.116  21.207  0.00  0.00    +0.008 A 
ATOM     35  C   LIG    1      -33.218  66.542  20.510  0.00  0.00    +0.013 A 
ATOM     36  C   LIG    1      -33.200  66.414  19.120  0.00  0.00    +0.067 A 
BRANCH  31  38
ATOM     37  C   LIG    1      -35.548  66.869  16.883  0.00  0.00    +0.279 C 
ATOM     38  O   LIG    1      -34.439  66.017  17.166  0.00  0.00    -0.480 OA
ENDBRANCH  31  38
ENDBRANCH  30  34
ENDBRANCH  29  30
ENDBRANCH  21  29
ENDBRANCH   1  24
TORSDOF 9
ENDMDL
MODEL 8
REMARK VINA RESULT:      -5.5     14.915     21.108
REMARK  Name = pdb/CHEMBL3678292.pdb
REMARK                            x       y       z     vdW  Elec       q    Type
REMARK                         _______ _______ _______ _____ _____    ______ ____
ROOT
ATOM      1  C   LIG    1      -20.576  76.702  30.898  0.00  0.00    +0.117 C 
ATOM      2  C   LIG    1      -20.920  77.516  29.607  0.00  0.00    +0.036 C 
ENDROOT
BRANCH   1   3
ATOM      3  N   LIG    1      -20.173  77.533  32.031  0.00  0.00    -0.305 N 
ATOM      4  C   LIG    1      -21.010  78.156  32.945  0.00  0.00    +0.071 A 
ATOM      5  C   LIG    1      -22.370  78.097  33.251  0.00  0.00    +0.028 A 
ATOM      6  C   LIG    1      -22.851  78.938  34.265  0.00  0.00    +0.011 A 
ATOM      7  C   LIG    1      -22.002  79.786  34.990  0.00  0.00    -0.013 A 
ATOM      8  C   LIG    1      -20.638  79.807  34.671  0.00  0.00    +0.038 A 
ATOM      9  C   LIG    1      -20.142  78.990  33.654  0.00  0.00    +0.091 A 
ATOM     10  N   LIG    1      -18.855  78.857  33.262  0.00  0.00    -0.215 NA
ATOM     11  C   LIG    1      -18.874  77.927  32.282  0.00  0.00    +0.195 A 
BRANCH   7  12
ATOM     12  C   LIG    1      -22.518  80.581  36.093  0.00  0.00    +0.020 A 
ATOM     13  C   LIG    1      -23.555  81.487  35.999  0.00  0.00    +0.116 A 
ATOM     14  N   LIG    1      -23.690  82.050  37.234  0.00  0.00    -0.274 N 
ATOM     15  C   LIG    1      -24.631  83.080  37.600  0.00  0.00    +0.172 C 
ATOM     16  N   LIG    1      -22.816  81.578  38.138  0.00  0.00    -0.179 NA
ATOM     17  C   LIG    1      -22.108  80.684  37.444  0.00  0.00    +0.142 A 
ENDBRANCH   7  12
BRANCH  11  18
ATOM     18  N   LIG    1      -17.782  77.513  31.716  0.00  0.00    -0.329 N 
ATOM     19  H   LIG    1      -17.100  77.053  32.307  0.00  0.00    +0.145 HD
ATOM     20  H   LIG    1      -17.709  77.226  30.726  0.00  0.00    +0.145 HD
ENDBRANCH  11  18
ENDBRANCH   1   3
BRANCH   1  24
ATOM     21  C   LIG    1      -24.176  74.428  31.851  0.00  0.00    +0.162 A 
ATOM     22  C   LIG    1      -24.047  75.416  30.887  0.00  0.00    +0.162 A 
ATOM     23  C   LIG    1      -22.792  75.798  30.415  0.00  0.00    +0.055 A 
ATOM     24  C   LIG    1      -21.661  75.671  31.213  0.00  0.00    -0.021 A 
ATOM     25  C   LIG    1      -21.744  74.752  32.259  0.00  0.00    +0.009 A 
ATOM     26  C   LIG    1      -22.975  74.085  32.520  0.00  0.00    +0.050 A 
BRANCH  22  27
ATOM     27  O   LIG    1      -24.956  76.291  30.364  0.00  0.00    -0.491 OA
ATOM     28  C   LIG    1      -24.704  77.673  30.440  0.00  0.00    +0.277 C 
ENDBRANCH  22  27
BRANCH  21  29
ATOM     29  O   LIG    1      -25.318  73.946  32.406  0.00  0.00    -0.484 OA
BRANCH  29  30
ATOM     30  C   LIG    1      -26.413  74.578  33.113  0.00  0.00    +0.266 C 
BRANCH  30  34
ATOM     31  C   LIG    1      -29.778  76.151  31.079  0.00  0.00    +0.214 A 
ATOM     32  N   LIG    1      -28.878  77.033  31.504  0.00  0.00    -0.221 NA
ATOM     33  C   LIG    1      -27.838  76.505  32.170  0.00  0.00    +0.121 A 
ATOM     34  C   LIG    1      -27.716  75.193  32.614  0.00  0.00    +0.008 A 
ATOM     35  C   LIG    1      -28.839  74.380  32.395  0.00  0.00    +0.013 A 
ATOM     36  C   LIG    1      -29.845  74.847  31.548  0.00  0.00    +0.067 A 
BRANCH  31  38
ATOM     37  C   LIG    1      -31.516  75.503  29.603  0.00  0.00    +0.279 C 
ATOM     38  O   LIG    1      -30.475  76.425  29.927  0.00  0.00    -0.480 OA
ENDBRANCH  31  38
ENDBRANCH  30  34
ENDBRANCH  29  30
ENDBRANCH  21  29
ENDBRANCH   1  24
TORSDOF 9
ENDMDL
MODEL 9
REMARK VINA RESULT:      -5.4      1.937      3.008
REMARK  Name = pdb/CHEMBL3678292.pdb
REMARK                            x       y       z     vdW  Elec       q    Type
REMARK                         _______ _______ _______ _____ _____    ______ ____
ROOT
ATOM      1  C   LIG    1      -43.074  73.449  22.841  0.00  0.00    +0.117 C 
ATOM      2  C   LIG    1      -44.145  73.417  23.980  0.00  0.00    +0.036 C 
ENDROOT
BRANCH   1   3
ATOM      3  N   LIG    1      -41.750  73.879  23.287  0.00  0.00    -0.305 N 
ATOM      4  C   LIG    1      -40.729  73.068  23.761  0.00  0.00    +0.071 A 
ATOM      5  C   LIG    1      -40.490  71.696  23.812  0.00  0.00    +0.028 A 
ATOM      6  C   LIG    1      -39.303  71.259  24.420  0.00  0.00    +0.011 A 
ATOM      7  C   LIG    1      -38.355  72.159  24.926  0.00  0.00    -0.013 A 
ATOM      8  C   LIG    1      -38.616  73.532  24.841  0.00  0.00    +0.038 A 
ATOM      9  C   LIG    1      -39.799  73.987  24.255  0.00  0.00    +0.091 A 
ATOM     10  N   LIG    1      -40.174  75.270  24.052  0.00  0.00    -0.215 NA
ATOM     11  C   LIG    1      -41.365  75.198  23.419  0.00  0.00    +0.195 A 
BRANCH   7  12
ATOM     12  C   LIG    1      -37.096  71.676  25.472  0.00  0.00    +0.020 A 
ATOM     13  C   LIG    1      -36.556  72.063  26.682  0.00  0.00    +0.116 A 
ATOM     14  N   LIG    1      -35.358  71.423  26.794  0.00  0.00    -0.274 N 
ATOM     15  C   LIG    1      -34.424  71.554  27.885  0.00  0.00    +0.172 C 
ATOM     16  N   LIG    1      -35.067  70.639  25.743  0.00  0.00    -0.179 NA
ATOM     17  C   LIG    1      -36.126  70.790  24.944  0.00  0.00    +0.142 A 
ENDBRANCH   7  12
BRANCH  11  18
ATOM     18  N   LIG    1      -41.988  76.263  23.019  0.00  0.00    -0.329 N 
ATOM     19  H   LIG    1      -42.850  76.503  23.494  0.00  0.00    +0.145 HD
ATOM     20  H   LIG    1      -41.528  77.085  22.594  0.00  0.00    +0.145 HD
ENDBRANCH  11  18
ENDBRANCH   1   3
BRANCH   1  24
ATOM     21  C   LIG    1      -42.785  69.414  21.205  0.00  0.00    +0.162 A 
ATOM     22  C   LIG    1      -43.326  69.779  22.428  0.00  0.00    +0.162 A 
ATOM     23  C   LIG    1      -43.707  71.096  22.679  0.00  0.00    +0.055 A 
ATOM     24  C   LIG    1      -43.088  72.156  22.025  0.00  0.00    -0.021 A 
ATOM     25  C   LIG    1      -42.448  71.850  20.824  0.00  0.00    +0.009 A 
ATOM     26  C   LIG    1      -42.369  70.495  20.388  0.00  0.00    +0.050 A 
BRANCH  22  27
ATOM     27  O   LIG    1      -43.430  69.099  23.607  0.00  0.00    -0.491 OA
ATOM     28  C   LIG    1      -42.260  68.745  24.304  0.00  0.00    +0.277 C 
ENDBRANCH  22  27
BRANCH  21  29
ATOM     29  O   LIG    1      -42.370  68.183  20.807  0.00  0.00    -0.484 OA
BRANCH  29  30
ATOM     30  C   LIG    1      -41.157  67.428  21.045  0.00  0.00    +0.266 C 
BRANCH  30  34
ATOM     31  C   LIG    1      -37.216  68.152  22.412  0.00  0.00    +0.214 A 
ATOM     32  N   LIG    1      -37.853  67.125  22.964  0.00  0.00    -0.221 NA
ATOM     33  C   LIG    1      -39.110  66.939  22.530  0.00  0.00    +0.121 A 
ATOM     34  C   LIG    1      -39.851  67.806  21.734  0.00  0.00    +0.008 A 
ATOM     35  C   LIG    1      -39.222  69.023  21.429  0.00  0.00    +0.013 A 
ATOM     36  C   LIG    1      -37.860  69.158  21.707  0.00  0.00    +0.067 A 
BRANCH  31  38
ATOM     37  C   LIG    1      -35.138  67.543  23.377  0.00  0.00    +0.279 C 
ATOM     38  O   LIG    1      -35.851  68.078  22.263  0.00  0.00    -0.480 OA
ENDBRANCH  31  38
ENDBRANCH  30  34
ENDBRANCH  29  30
ENDBRANCH  21  29
ENDBRANCH   1  24
TORSDOF 9
ENDMDL
