MODEL 1
REMARK VINA RESULT:      -6.7      0.000      0.000
REMARK  Name = pdb/CHEMBL3954631.pdb
REMARK                            x       y       z     vdW  Elec       q    Type
REMARK                         _______ _______ _______ _____ _____    ______ ____
ROOT
ATOM      1  C   LIG    1      -31.949  93.755  22.944  0.00  0.00    +0.098 A 
ATOM      2  C   LIG    1      -32.191  93.380  21.639  0.00  0.00    +0.179 A 
ATOM      3  N   LIG    1      -33.186  92.612  21.081  0.00  0.00    -0.211 NA
ATOM      4  C   LIG    1      -33.181  92.462  19.775  0.00  0.00    +0.126 A 
ATOM      5  C   LIG    1      -32.104  93.058  18.899  0.00  0.00    +0.063 A 
ATOM      6  C   LIG    1      -31.153  93.783  19.501  0.00  0.00    +0.118 A 
ATOM      7  N   LIG    1      -31.182  93.963  20.876  0.00  0.00    -0.220 N 
ATOM      8  N   LIG    1      -30.310  94.671  21.637  0.00  0.00    -0.171 NA
ATOM      9  C   LIG    1      -30.780  94.542  22.881  0.00  0.00    +0.160 A 
ENDROOT
BRANCH   4  10
ATOM     10  N   LIG    1      -34.182  91.729  19.144  0.00  0.00    -0.308 N 
ATOM     11  C   LIG    1      -33.983  90.298  18.823  0.00  0.00    +0.108 C 
ATOM     12  C   LIG    1      -35.226  89.574  19.377  0.00  0.00    +0.029 C 
ATOM     13  C   LIG    1      -35.957  90.615  20.210  0.00  0.00    +0.021 C 
ATOM     14  C   LIG    1      -35.578  91.927  19.548  0.00  0.00    +0.107 C 
BRANCH  11  15
ATOM     15  C   LIG    1      -33.864  90.089  17.323  0.00  0.00    +0.011 A 
ATOM     16  C   LIG    1      -33.447  88.845  16.834  0.00  0.00    +0.129 A 
ATOM     17  F   LIG    1      -33.129  87.865  17.691  0.00  0.00    -0.205 F 
ATOM     18  C   LIG    1      -33.369  88.583  15.464  0.00  0.00    +0.041 A 
ATOM     19  C   LIG    1      -33.724  89.572  14.549  0.00  0.00    +0.041 A 
ATOM     20  C   LIG    1      -34.147  90.809  15.019  0.00  0.00    +0.124 A 
ATOM     21  F   LIG    1      -34.504  91.759  14.145  0.00  0.00    -0.205 F 
ATOM     22  C   LIG    1      -34.216  91.074  16.384  0.00  0.00    +0.046 A 
ENDBRANCH  11  15
ENDBRANCH   4  10
BRANCH   1  24
ATOM     23  C   LIG    1      -32.433  92.398  24.926  0.00  0.00    +0.303 C 
ATOM     24  N   LIG    1      -32.747  93.374  24.004  0.00  0.00    -0.273 N 
ATOM     25  H   LIG    1      -33.629  93.872  24.096  0.00  0.00    +0.155 HD
ATOM     26  O   LIG    1      -31.430  91.699  24.975  0.00  0.00    -0.265 OA
BRANCH  23  30
ATOM     27  C   LIG    1      -34.946  90.447  27.039  0.00  0.00    +0.128 C 
ATOM     28  N   LIG    1      -33.904  90.850  26.131  0.00  0.00    -0.311 N 
ATOM     29  H   LIG    1      -33.293  90.148  25.726  0.00  0.00    +0.149 HD
ATOM     30  C   LIG    1      -33.570  92.176  25.944  0.00  0.00    +0.299 C 
ATOM     31  O   LIG    1      -34.135  93.133  26.454  0.00  0.00    -0.265 OA
ENDBRANCH  23  30
ENDBRANCH   1  24
TORSDOF 4
ENDMDL
MODEL 2
REMARK VINA RESULT:      -6.5     20.255     22.742
REMARK  Name = pdb/CHEMBL3954631.pdb
REMARK                            x       y       z     vdW  Elec       q    Type
REMARK                         _______ _______ _______ _____ _____    ______ ____
ROOT
ATOM      1  C   LIG    1      -22.648  76.856  30.974  0.00  0.00    +0.098 A 
ATOM      2  C   LIG    1      -21.480  77.339  31.526  0.00  0.00    +0.179 A 
ATOM      3  N   LIG    1      -21.221  77.929  32.741  0.00  0.00    -0.211 NA
ATOM      4  C   LIG    1      -19.976  78.252  33.011  0.00  0.00    +0.126 A 
ATOM      5  C   LIG    1      -18.856  78.042  32.019  0.00  0.00    +0.063 A 
ATOM      6  C   LIG    1      -19.170  77.477  30.847  0.00  0.00    +0.118 A 
ATOM      7  N   LIG    1      -20.481  77.110  30.582  0.00  0.00    -0.220 N 
ATOM      8  N   LIG    1      -20.966  76.522  29.459  0.00  0.00    -0.171 NA
ATOM      9  C   LIG    1      -22.271  76.371  29.704  0.00  0.00    +0.160 A 
ENDROOT
BRANCH   4  10
ATOM     10  N   LIG    1      -19.643  78.818  34.238  0.00  0.00    -0.308 N 
ATOM     11  C   LIG    1      -20.574  78.737  35.386  0.00  0.00    +0.108 C 
ATOM     12  C   LIG    1      -19.732  78.206  36.563  0.00  0.00    +0.029 C 
ATOM     13  C   LIG    1      -18.410  77.776  35.947  0.00  0.00    +0.021 C 
ATOM     14  C   LIG    1      -18.271  78.683  34.740  0.00  0.00    +0.107 C 
BRANCH  11  15
ATOM     15  C   LIG    1      -21.153  80.103  35.713  0.00  0.00    +0.011 A 
ATOM     16  C   LIG    1      -22.485  80.381  35.380  0.00  0.00    +0.129 A 
ATOM     17  F   LIG    1      -23.221  79.455  34.752  0.00  0.00    -0.205 F 
ATOM     18  C   LIG    1      -23.083  81.601  35.703  0.00  0.00    +0.041 A 
ATOM     19  C   LIG    1      -22.351  82.571  36.385  0.00  0.00    +0.041 A 
ATOM     20  C   LIG    1      -21.031  82.307  36.729  0.00  0.00    +0.124 A 
ATOM     21  F   LIG    1      -20.327  83.229  37.397  0.00  0.00    -0.205 F 
ATOM     22  C   LIG    1      -20.432  81.095  36.399  0.00  0.00    +0.046 A 
ENDBRANCH  11  15
ENDBRANCH   4  10
BRANCH   1  24
ATOM     23  C   LIG    1      -25.083  77.122  31.009  0.00  0.00    +0.303 C 
ATOM     24  N   LIG    1      -23.867  76.898  31.620  0.00  0.00    -0.273 N 
ATOM     25  H   LIG    1      -23.842  76.741  32.625  0.00  0.00    +0.155 HD
ATOM     26  O   LIG    1      -25.308  77.331  29.826  0.00  0.00    -0.265 OA
BRANCH  23  30
ATOM     27  C   LIG    1      -28.628  76.631  32.344  0.00  0.00    +0.128 C 
ATOM     28  N   LIG    1      -27.432  76.666  31.542  0.00  0.00    -0.311 N 
ATOM     29  H   LIG    1      -27.411  76.179  30.652  0.00  0.00    +0.149 HD
ATOM     30  C   LIG    1      -26.241  77.168  32.027  0.00  0.00    +0.299 C 
ATOM     31  O   LIG    1      -26.077  77.680  33.124  0.00  0.00    -0.265 OA
ENDBRANCH  23  30
ENDBRANCH   1  24
TORSDOF 4
ENDMDL
MODEL 3
REMARK VINA RESULT:      -6.3     15.459     18.170
REMARK  Name = pdb/CHEMBL3954631.pdb
REMARK                            x       y       z     vdW  Elec       q    Type
REMARK                         _______ _______ _______ _____ _____    ______ ____
ROOT
ATOM      1  C   LIG    1      -38.674  77.184  26.862  0.00  0.00    +0.098 A 
ATOM      2  C   LIG    1      -37.576  77.892  27.305  0.00  0.00    +0.179 A 
ATOM      3  N   LIG    1      -36.253  77.537  27.429  0.00  0.00    -0.211 NA
ATOM      4  C   LIG    1      -35.411  78.457  27.847  0.00  0.00    +0.126 A 
ATOM      5  C   LIG    1      -35.862  79.846  28.234  0.00  0.00    +0.063 A 
ATOM      6  C   LIG    1      -37.164  80.129  28.106  0.00  0.00    +0.118 A 
ATOM      7  N   LIG    1      -38.042  79.163  27.634  0.00  0.00    -0.220 N 
ATOM      8  N   LIG    1      -39.379  79.284  27.435  0.00  0.00    -0.171 NA
ATOM      9  C   LIG    1      -39.751  78.089  26.969  0.00  0.00    +0.160 A 
ENDROOT
BRANCH   4  10
ATOM     10  N   LIG    1      -34.053  78.174  27.958  0.00  0.00    -0.308 N 
ATOM     11  C   LIG    1      -33.462  77.017  27.249  0.00  0.00    +0.108 C 
ATOM     12  C   LIG    1      -32.234  77.575  26.501  0.00  0.00    +0.029 C 
ATOM     13  C   LIG    1      -32.341  79.086  26.632  0.00  0.00    +0.021 C 
ATOM     14  C   LIG    1      -33.087  79.277  27.938  0.00  0.00    +0.107 C 
BRANCH  11  15
ATOM     15  C   LIG    1      -33.046  75.933  28.229  0.00  0.00    +0.011 A 
ATOM     16  C   LIG    1      -33.813  74.765  28.327  0.00  0.00    +0.129 A 
ATOM     17  F   LIG    1      -34.917  74.629  27.580  0.00  0.00    -0.205 F 
ATOM     18  C   LIG    1      -33.449  73.716  29.174  0.00  0.00    +0.041 A 
ATOM     19  C   LIG    1      -32.288  73.816  29.938  0.00  0.00    +0.041 A 
ATOM     20  C   LIG    1      -31.513  74.965  29.847  0.00  0.00    +0.124 A 
ATOM     21  F   LIG    1      -30.388  75.060  30.567  0.00  0.00    -0.205 F 
ATOM     22  C   LIG    1      -31.880  76.014  29.010  0.00  0.00    +0.046 A 
ENDBRANCH  11  15
ENDBRANCH   4  10
BRANCH   1  24
ATOM     23  C   LIG    1      -38.036  75.448  25.257  0.00  0.00    +0.303 C 
ATOM     24  N   LIG    1      -38.611  75.873  26.435  0.00  0.00    -0.273 N 
ATOM     25  H   LIG    1      -39.022  75.183  27.060  0.00  0.00    +0.155 HD
ATOM     26  O   LIG    1      -37.500  76.123  24.389  0.00  0.00    -0.265 OA
BRANCH  23  30
ATOM     27  C   LIG    1      -37.241  71.734  25.667  0.00  0.00    +0.128 C 
ATOM     28  N   LIG    1      -37.259  73.173  25.738  0.00  0.00    -0.311 N 
ATOM     29  H   LIG    1      -36.676  73.648  26.419  0.00  0.00    +0.149 HD
ATOM     30  C   LIG    1      -38.191  73.926  25.054  0.00  0.00    +0.299 C 
ATOM     31  O   LIG    1      -39.037  73.491  24.287  0.00  0.00    -0.265 OA
ENDBRANCH  23  30
ENDBRANCH   1  24
TORSDOF 4
ENDMDL
MODEL 4
REMARK VINA RESULT:      -6.2     17.863     20.164
REMARK  Name = pdb/CHEMBL3954631.pdb
REMARK                            x       y       z     vdW  Elec       q    Type
REMARK                         _______ _______ _______ _____ _____    ______ ____
ROOT
ATOM      1  C   LIG    1      -37.691  76.252  25.258  0.00  0.00    +0.098 A 
ATOM      2  C   LIG    1      -38.381  75.124  24.865  0.00  0.00    +0.179 A 
ATOM      3  N   LIG    1      -38.036  73.793  24.876  0.00  0.00    -0.211 NA
ATOM      4  C   LIG    1      -38.937  72.925  24.472  0.00  0.00    +0.126 A 
ATOM      5  C   LIG    1      -40.293  73.351  23.959  0.00  0.00    +0.063 A 
ATOM      6  C   LIG    1      -40.567  74.661  23.957  0.00  0.00    +0.118 A 
ATOM      7  N   LIG    1      -39.623  75.569  24.415  0.00  0.00    -0.220 N 
ATOM      8  N   LIG    1      -39.740  76.919  24.491  0.00  0.00    -0.171 NA
ATOM      9  C   LIG    1      -38.573  77.322  25.001  0.00  0.00    +0.160 A 
ENDROOT
BRANCH   4  10
ATOM     10  N   LIG    1      -38.664  71.561  24.495  0.00  0.00    -0.308 N 
ATOM     11  C   LIG    1      -38.302  70.883  25.761  0.00  0.00    +0.108 C 
ATOM     12  C   LIG    1      -39.229  69.654  25.850  0.00  0.00    +0.029 C 
ATOM     13  C   LIG    1      -40.247  69.841  24.737  0.00  0.00    +0.021 C 
ATOM     14  C   LIG    1      -39.494  70.650  23.699  0.00  0.00    +0.107 C 
BRANCH  11  15
ATOM     15  C   LIG    1      -36.844  70.457  25.751  0.00  0.00    +0.011 A 
ATOM     16  C   LIG    1      -35.903  71.212  26.462  0.00  0.00    +0.129 A 
ATOM     17  F   LIG    1      -36.292  72.315  27.116  0.00  0.00    -0.205 F 
ATOM     18  C   LIG    1      -34.560  70.837  26.530  0.00  0.00    +0.041 A 
ATOM     19  C   LIG    1      -34.132  69.677  25.886  0.00  0.00    +0.041 A 
ATOM     20  C   LIG    1      -35.055  68.913  25.183  0.00  0.00    +0.124 A 
ATOM     21  F   LIG    1      -34.654  67.789  24.575  0.00  0.00    -0.205 F 
ATOM     22  C   LIG    1      -36.393  69.291  25.108  0.00  0.00    +0.046 A 
ENDBRANCH  11  15
ENDBRANCH   4  10
BRANCH   1  24
ATOM     23  C   LIG    1      -36.083  76.384  27.102  0.00  0.00    +0.303 C 
ATOM     24  N   LIG    1      -36.410  76.216  25.773  0.00  0.00    -0.273 N 
ATOM     25  H   LIG    1      -35.666  76.044  25.101  0.00  0.00    +0.155 HD
ATOM     26  O   LIG    1      -36.833  76.599  28.044  0.00  0.00    -0.265 OA
BRANCH  23  30
ATOM     27  C   LIG    1      -32.475  77.635  27.027  0.00  0.00    +0.128 C 
ATOM     28  N   LIG    1      -33.902  77.486  26.903  0.00  0.00    -0.311 N 
ATOM     29  H   LIG    1      -34.468  78.284  26.634  0.00  0.00    +0.149 HD
ATOM     30  C   LIG    1      -34.558  76.350  27.331  0.00  0.00    +0.299 C 
ATOM     31  O   LIG    1      -34.027  75.349  27.789  0.00  0.00    -0.265 OA
ENDBRANCH  23  30
ENDBRANCH   1  24
TORSDOF 4
ENDMDL
MODEL 5
REMARK VINA RESULT:      -6.2     20.853     23.078
REMARK  Name = pdb/CHEMBL3954631.pdb
REMARK                            x       y       z     vdW  Elec       q    Type
REMARK                         _______ _______ _______ _____ _____    ______ ____
ROOT
ATOM      1  C   LIG    1      -24.562  77.433  32.182  0.00  0.00    +0.098 A 
ATOM      2  C   LIG    1      -24.502  78.052  33.413  0.00  0.00    +0.179 A 
ATOM      3  N   LIG    1      -23.464  78.665  34.076  0.00  0.00    -0.211 NA
ATOM      4  C   LIG    1      -23.725  79.215  35.241  0.00  0.00    +0.126 A 
ATOM      5  C   LIG    1      -25.093  79.146  35.878  0.00  0.00    +0.063 A 
ATOM      6  C   LIG    1      -26.060  78.523  35.192  0.00  0.00    +0.118 A 
ATOM      7  N   LIG    1      -25.786  77.972  33.949  0.00  0.00    -0.220 N 
ATOM      8  N   LIG    1      -26.644  77.321  33.124  0.00  0.00    -0.171 NA
ATOM      9  C   LIG    1      -25.900  77.001  32.062  0.00  0.00    +0.160 A 
ENDROOT
BRANCH   4  10
ATOM     10  N   LIG    1      -22.727  79.885  35.945  0.00  0.00    -0.308 N 
ATOM     11  C   LIG    1      -21.668  80.631  35.229  0.00  0.00    +0.108 C 
ATOM     12  C   LIG    1      -21.636  82.028  35.881  0.00  0.00    +0.029 C 
ATOM     13  C   LIG    1      -22.862  82.078  36.778  0.00  0.00    +0.021 C 
ATOM     14  C   LIG    1      -23.082  80.627  37.159  0.00  0.00    +0.107 C 
BRANCH  11  15
ATOM     15  C   LIG    1      -20.323  79.939  35.375  0.00  0.00    +0.011 A 
ATOM     16  C   LIG    1      -19.808  79.207  34.297  0.00  0.00    +0.129 A 
ATOM     17  F   LIG    1      -20.516  79.101  33.165  0.00  0.00    -0.205 F 
ATOM     18  C   LIG    1      -18.554  78.595  34.359  0.00  0.00    +0.041 A 
ATOM     19  C   LIG    1      -17.781  78.716  35.512  0.00  0.00    +0.041 A 
ATOM     20  C   LIG    1      -18.275  79.444  36.586  0.00  0.00    +0.124 A 
ATOM     21  F   LIG    1      -17.531  79.578  37.691  0.00  0.00    -0.205 F 
ATOM     22  C   LIG    1      -19.528  80.048  36.529  0.00  0.00    +0.046 A 
ENDBRANCH  11  15
ENDBRANCH   4  10
BRANCH   1  24
ATOM     23  C   LIG    1      -22.985  76.130  30.834  0.00  0.00    +0.303 C 
ATOM     24  N   LIG    1      -23.477  77.316  31.337  0.00  0.00    -0.273 N 
ATOM     25  H   LIG    1      -23.024  78.188  31.074  0.00  0.00    +0.155 HD
ATOM     26  O   LIG    1      -23.392  74.995  31.038  0.00  0.00    -0.265 OA
BRANCH  23  30
ATOM     27  C   LIG    1      -19.295  76.756  30.072  0.00  0.00    +0.128 C 
ATOM     28  N   LIG    1      -20.570  76.533  30.703  0.00  0.00    -0.311 N 
ATOM     29  H   LIG    1      -20.611  76.357  31.702  0.00  0.00    +0.149 HD
ATOM     30  C   LIG    1      -21.725  76.347  29.970  0.00  0.00    +0.299 C 
ATOM     31  O   LIG    1      -21.816  76.409  28.754  0.00  0.00    -0.265 OA
ENDBRANCH  23  30
ENDBRANCH   1  24
TORSDOF 4
ENDMDL
MODEL 6
REMARK VINA RESULT:      -6.2     20.436     23.407
REMARK  Name = pdb/CHEMBL3954631.pdb
REMARK                            x       y       z     vdW  Elec       q    Type
REMARK                         _______ _______ _______ _____ _____    ______ ____
ROOT
ATOM      1  C   LIG    1      -22.914  76.504  31.036  0.00  0.00    +0.098 A 
ATOM      2  C   LIG    1      -22.075  77.314  31.773  0.00  0.00    +0.179 A 
ATOM      3  N   LIG    1      -22.238  77.923  32.995  0.00  0.00    -0.211 NA
ATOM      4  C   LIG    1      -21.226  78.612  33.474  0.00  0.00    +0.126 A 
ATOM      5  C   LIG    1      -19.936  78.787  32.708  0.00  0.00    +0.063 A 
ATOM      6  C   LIG    1      -19.841  78.183  31.517  0.00  0.00    +0.118 A 
ATOM      7  N   LIG    1      -20.901  77.432  31.032  0.00  0.00    -0.220 N 
ATOM      8  N   LIG    1      -20.967  76.751  29.860  0.00  0.00    -0.171 NA
ATOM      9  C   LIG    1      -22.181  76.194  29.871  0.00  0.00    +0.160 A 
ENDROOT
BRANCH   4  10
ATOM     10  N   LIG    1      -21.313  79.221  34.723  0.00  0.00    -0.308 N 
ATOM     11  C   LIG    1      -20.290  80.196  35.161  0.00  0.00    +0.108 C 
ATOM     12  C   LIG    1      -21.077  81.430  35.647  0.00  0.00    +0.029 C 
ATOM     13  C   LIG    1      -22.515  81.178  35.222  0.00  0.00    +0.021 C 
ATOM     14  C   LIG    1      -22.622  79.665  35.213  0.00  0.00    +0.107 C 
BRANCH  11  15
ATOM     15  C   LIG    1      -19.441  79.625  36.284  0.00  0.00    +0.011 A 
ATOM     16  C   LIG    1      -18.172  79.110  35.992  0.00  0.00    +0.129 A 
ATOM     17  F   LIG    1      -17.734  79.099  34.726  0.00  0.00    -0.205 F 
ATOM     18  C   LIG    1      -17.330  78.620  36.992  0.00  0.00    +0.041 A 
ATOM     19  C   LIG    1      -17.746  78.649  38.322  0.00  0.00    +0.041 A 
ATOM     20  C   LIG    1      -18.999  79.163  38.629  0.00  0.00    +0.124 A 
ATOM     21  F   LIG    1      -19.398  79.207  39.906  0.00  0.00    -0.205 F 
ATOM     22  C   LIG    1      -19.842  79.643  37.631  0.00  0.00    +0.046 A 
ENDBRANCH  11  15
ENDBRANCH   4  10
BRANCH   1  24
ATOM     23  C   LIG    1      -25.356  76.695  30.979  0.00  0.00    +0.303 C 
ATOM     24  N   LIG    1      -24.181  76.147  31.450  0.00  0.00    -0.273 N 
ATOM     25  H   LIG    1      -24.228  75.413  32.153  0.00  0.00    +0.155 HD
ATOM     26  O   LIG    1      -25.497  77.578  30.145  0.00  0.00    -0.265 OA
BRANCH  23  30
ATOM     27  C   LIG    1      -29.029  76.378  31.977  0.00  0.00    +0.128 C 
ATOM     28  N   LIG    1      -27.770  76.772  31.399  0.00  0.00    -0.311 N 
ATOM     29  H   LIG    1      -27.756  77.448  30.642  0.00  0.00    +0.149 HD
ATOM     30  C   LIG    1      -26.593  76.115  31.696  0.00  0.00    +0.299 C 
ATOM     31  O   LIG    1      -26.468  75.202  32.498  0.00  0.00    -0.265 OA
ENDBRANCH  23  30
ENDBRANCH   1  24
TORSDOF 4
ENDMDL
MODEL 7
REMARK VINA RESULT:      -6.1     16.911     19.489
REMARK  Name = pdb/CHEMBL3954631.pdb
REMARK                            x       y       z     vdW  Elec       q    Type
REMARK                         _______ _______ _______ _____ _____    ______ ____
ROOT
ATOM      1  C   LIG    1      -23.922  80.259  14.592  0.00  0.00    +0.098 A 
ATOM      2  C   LIG    1      -22.650  79.905  14.992  0.00  0.00    +0.179 A 
ATOM      3  N   LIG    1      -22.019  78.684  15.048  0.00  0.00    -0.211 NA
ATOM      4  C   LIG    1      -20.764  78.663  15.437  0.00  0.00    +0.126 A 
ATOM      5  C   LIG    1      -20.031  79.914  15.865  0.00  0.00    +0.063 A 
ATOM      6  C   LIG    1      -20.702  81.071  15.804  0.00  0.00    +0.118 A 
ATOM      7  N   LIG    1      -22.016  81.090  15.361  0.00  0.00    -0.220 N 
ATOM      8  N   LIG    1      -22.831  82.167  15.228  0.00  0.00    -0.171 NA
ATOM      9  C   LIG    1      -23.975  81.659  14.763  0.00  0.00    +0.160 A 
ENDROOT
BRANCH   4  10
ATOM     10  N   LIG    1      -20.057  77.465  15.479  0.00  0.00    -0.308 N 
ATOM     11  C   LIG    1      -20.595  76.247  14.833  0.00  0.00    +0.108 C 
ATOM     12  C   LIG    1      -19.448  75.703  13.958  0.00  0.00    +0.029 C 
ATOM     13  C   LIG    1      -18.389  76.794  13.965  0.00  0.00    +0.021 C 
ATOM     14  C   LIG    1      -18.601  77.485  15.298  0.00  0.00    +0.107 C 
BRANCH  11  15
ATOM     15  C   LIG    1      -21.011  75.219  15.872  0.00  0.00    +0.011 A 
ATOM     16  C   LIG    1      -22.373  74.992  16.105  0.00  0.00    +0.129 A 
ATOM     17  F   LIG    1      -23.291  75.701  15.434  0.00  0.00    -0.205 F 
ATOM     18  C   LIG    1      -22.811  74.024  17.011  0.00  0.00    +0.041 A 
ATOM     19  C   LIG    1      -21.880  73.248  17.699  0.00  0.00    +0.041 A 
ATOM     20  C   LIG    1      -20.526  73.457  17.473  0.00  0.00    +0.124 A 
ATOM     21  F   LIG    1      -19.626  72.705  18.120  0.00  0.00    -0.205 F 
ATOM     22  C   LIG    1      -20.088  74.428  16.577  0.00  0.00    +0.046 A 
ENDBRANCH  11  15
ENDBRANCH   4  10
BRANCH   1  24
ATOM     23  C   LIG    1      -25.698  78.610  14.950  0.00  0.00    +0.303 C 
ATOM     24  N   LIG    1      -24.858  79.350  14.144  0.00  0.00    -0.273 N 
ATOM     25  H   LIG    1      -24.920  79.238  13.135  0.00  0.00    +0.155 HD
ATOM     26  O   LIG    1      -25.767  78.609  16.171  0.00  0.00    -0.265 OA
BRANCH  23  30
ATOM     27  C   LIG    1      -28.431  77.534  12.508  0.00  0.00    +0.128 C 
ATOM     28  N   LIG    1      -27.514  78.273  13.338  0.00  0.00    -0.311 N 
ATOM     29  H   LIG    1      -27.442  79.279  13.232  0.00  0.00    +0.149 HD
ATOM     30  C   LIG    1      -26.579  77.642  14.134  0.00  0.00    +0.299 C 
ATOM     31  O   LIG    1      -26.461  76.434  14.276  0.00  0.00    -0.265 OA
ENDBRANCH  23  30
ENDBRANCH   1  24
TORSDOF 4
ENDMDL
MODEL 8
REMARK VINA RESULT:      -6.1     17.723     19.855
REMARK  Name = pdb/CHEMBL3954631.pdb
REMARK                            x       y       z     vdW  Elec       q    Type
REMARK                         _______ _______ _______ _____ _____    ______ ____
ROOT
ATOM      1  C   LIG    1      -38.337  76.746  24.622  0.00  0.00    +0.098 A 
ATOM      2  C   LIG    1      -39.256  75.751  24.360  0.00  0.00    +0.179 A 
ATOM      3  N   LIG    1      -39.244  74.404  24.636  0.00  0.00    -0.211 NA
ATOM      4  C   LIG    1      -40.303  73.702  24.298  0.00  0.00    +0.126 A 
ATOM      5  C   LIG    1      -41.483  74.318  23.583  0.00  0.00    +0.063 A 
ATOM      6  C   LIG    1      -41.431  75.631  23.328  0.00  0.00    +0.118 A 
ATOM      7  N   LIG    1      -40.324  76.371  23.716  0.00  0.00    -0.220 N 
ATOM      8  N   LIG    1      -40.116  77.701  23.546  0.00  0.00    -0.171 NA
ATOM      9  C   LIG    1      -38.918  77.919  24.096  0.00  0.00    +0.160 A 
ENDROOT
BRANCH   4  10
ATOM     10  N   LIG    1      -40.370  72.342  24.584  0.00  0.00    -0.308 N 
ATOM     11  C   LIG    1      -39.136  71.551  24.792  0.00  0.00    +0.108 C 
ATOM     12  C   LIG    1      -39.351  70.792  26.117  0.00  0.00    +0.029 C 
ATOM     13  C   LIG    1      -40.612  71.391  26.720  0.00  0.00    +0.021 C 
ATOM     14  C   LIG    1      -41.399  71.854  25.508  0.00  0.00    +0.107 C 
BRANCH  11  15
ATOM     15  C   LIG    1      -38.913  70.579  23.646  0.00  0.00    +0.011 A 
ATOM     16  C   LIG    1      -37.665  69.959  23.505  0.00  0.00    +0.129 A 
ATOM     17  F   LIG    1      -36.676  70.251  24.360  0.00  0.00    -0.205 F 
ATOM     18  C   LIG    1      -37.422  69.019  22.501  0.00  0.00    +0.041 A 
ATOM     19  C   LIG    1      -38.442  68.671  21.617  0.00  0.00    +0.041 A 
ATOM     20  C   LIG    1      -39.687  69.272  21.749  0.00  0.00    +0.124 A 
ATOM     21  F   LIG    1      -40.676  68.932  20.913  0.00  0.00    -0.205 F 
ATOM     22  C   LIG    1      -39.928  70.216  22.744  0.00  0.00    +0.046 A 
ENDBRANCH  11  15
ENDBRANCH   4  10
BRANCH   1  24
ATOM     23  C   LIG    1      -36.947  76.548  26.630  0.00  0.00    +0.303 C 
ATOM     24  N   LIG    1      -37.136  76.521  25.264  0.00  0.00    -0.273 N 
ATOM     25  H   LIG    1      -36.343  76.314  24.661  0.00  0.00    +0.155 HD
ATOM     26  O   LIG    1      -37.772  76.778  27.503  0.00  0.00    -0.265 OA
BRANCH  23  30
ATOM     27  C   LIG    1      -33.899  74.662  27.950  0.00  0.00    +0.128 C 
ATOM     28  N   LIG    1      -35.218  75.061  27.529  0.00  0.00    -0.311 N 
ATOM     29  H   LIG    1      -35.955  74.366  27.464  0.00  0.00    +0.149 HD
ATOM     30  C   LIG    1      -35.471  76.316  27.014  0.00  0.00    +0.299 C 
ATOM     31  O   LIG    1      -34.660  77.224  26.916  0.00  0.00    -0.265 OA
ENDBRANCH  23  30
ENDBRANCH   1  24
TORSDOF 4
ENDMDL
MODEL 9
REMARK VINA RESULT:      -5.9     10.383     12.697
REMARK  Name = pdb/CHEMBL3954631.pdb
REMARK                            x       y       z     vdW  Elec       q    Type
REMARK                         _______ _______ _______ _____ _____    ______ ____
ROOT
ATOM      1  C   LIG    1      -36.053  83.897  25.869  0.00  0.00    +0.098 A 
ATOM      2  C   LIG    1      -37.120  83.874  24.996  0.00  0.00    +0.179 A 
ATOM      3  N   LIG    1      -37.932  82.846  24.575  0.00  0.00    -0.211 NA
ATOM      4  C   LIG    1      -38.915  83.142  23.755  0.00  0.00    +0.126 A 
ATOM      5  C   LIG    1      -39.138  84.544  23.235  0.00  0.00    +0.063 A 
ATOM      6  C   LIG    1      -38.307  85.500  23.668  0.00  0.00    +0.118 A 
ATOM      7  N   LIG    1      -37.290  85.186  24.558  0.00  0.00    -0.220 N 
ATOM      8  N   LIG    1      -36.375  86.028  25.101  0.00  0.00    -0.171 NA
ATOM      9  C   LIG    1      -35.634  85.244  25.890  0.00  0.00    +0.160 A 
ENDROOT
BRANCH   4  10
ATOM     10  N   LIG    1      -39.796  82.155  23.322  0.00  0.00    -0.308 N 
ATOM     11  C   LIG    1      -40.646  81.424  24.288  0.00  0.00    +0.108 C 
ATOM     12  C   LIG    1      -42.078  81.504  23.722  0.00  0.00    +0.029 C 
ATOM     13  C   LIG    1      -41.998  82.500  22.576  0.00  0.00    +0.021 C 
ATOM     14  C   LIG    1      -40.567  82.371  22.093  0.00  0.00    +0.107 C 
BRANCH  11  15
ATOM     15  C   LIG    1      -40.200  79.977  24.417  0.00  0.00    +0.011 A 
ATOM     16  C   LIG    1      -39.394  79.601  25.499  0.00  0.00    +0.129 A 
ATOM     17  F   LIG    1      -39.002  80.523  26.389  0.00  0.00    -0.205 F 
ATOM     18  C   LIG    1      -38.999  78.276  25.695  0.00  0.00    +0.041 A 
ATOM     19  C   LIG    1      -39.419  77.290  24.804  0.00  0.00    +0.041 A 
ATOM     20  C   LIG    1      -40.224  77.646  23.730  0.00  0.00    +0.124 A 
ATOM     21  F   LIG    1      -40.644  76.701  22.879  0.00  0.00    -0.205 F 
ATOM     22  C   LIG    1      -40.612  78.968  23.530  0.00  0.00    +0.046 A 
ENDBRANCH  11  15
ENDBRANCH   4  10
BRANCH   1  24
ATOM     23  C   LIG    1      -36.121  82.236  27.669  0.00  0.00    +0.303 C 
ATOM     24  N   LIG    1      -35.580  82.775  26.520  0.00  0.00    -0.273 N 
ATOM     25  H   LIG    1      -34.773  82.323  26.098  0.00  0.00    +0.155 HD
ATOM     26  O   LIG    1      -37.080  82.636  28.314  0.00  0.00    -0.265 OA
BRANCH  23  30
ATOM     27  C   LIG    1      -33.483  79.475  27.591  0.00  0.00    +0.128 C 
ATOM     28  N   LIG    1      -34.333  80.600  27.298  0.00  0.00    -0.311 N 
ATOM     29  H   LIG    1      -34.119  81.197  26.506  0.00  0.00    +0.149 HD
ATOM     30  C   LIG    1      -35.316  81.020  28.171  0.00  0.00    +0.299 C 
ATOM     31  O   LIG    1      -35.616  80.475  29.223  0.00  0.00    -0.265 OA
ENDBRANCH  23  30
ENDBRANCH   1  24
TORSDOF 4
ENDMDL
