MODEL 1
REMARK VINA RESULT:      -7.1      0.000      0.000
REMARK  Name = pdb/CHEMBL3962074.pdb
REMARK                            x       y       z     vdW  Elec       q    Type
REMARK                         _______ _______ _______ _____ _____    ______ ____
ROOT
ATOM      1  N   LIG    1      -24.980  78.175  33.118  0.00  0.00    -0.196 NA
ATOM      2  C   LIG    1      -23.931  77.743  33.756  0.00  0.00    +0.285 C 
ENDROOT
BRANCH   1   6
ATOM      3  C   LIG    1      -28.038  75.483  32.349  0.00  0.00    +0.323 A 
ATOM      4  N   LIG    1      -28.078  76.097  33.538  0.00  0.00    -0.201 NA
ATOM      5  C   LIG    1      -27.082  76.985  33.761  0.00  0.00    +0.145 A 
ATOM      6  C   LIG    1      -26.072  77.318  32.865  0.00  0.00    +0.105 A 
ATOM      7  C   LIG    1      -26.167  76.627  31.674  0.00  0.00    +0.145 A 
ATOM      8  N   LIG    1      -27.138  75.733  31.377  0.00  0.00    -0.201 NA
BRANCH   3   9
ATOM      9  O   LIG    1      -28.948  74.447  32.184  0.00  0.00    -0.424 OA
BRANCH   9  13
ATOM     10  C   LIG    1      -32.202  74.996  29.586  0.00  0.00    -0.010 A 
ATOM     11  C   LIG    1      -31.587  76.106  30.177  0.00  0.00    +0.012 A 
ATOM     12  C   LIG    1      -30.477  75.949  31.006  0.00  0.00    +0.047 A 
ATOM     13  C   LIG    1      -29.992  74.676  31.314  0.00  0.00    +0.132 A 
ATOM     14  C   LIG    1      -30.559  73.564  30.695  0.00  0.00    +0.047 A 
ATOM     15  C   LIG    1      -31.656  73.726  29.843  0.00  0.00    +0.012 A 
BRANCH  10  18
ATOM     16  C   LIG    1      -35.223  76.071  27.234  0.00  0.00    +0.156 A 
ATOM     17  S   LIG    1      -33.843  76.755  28.142  0.00  0.00    -0.053 S 
ATOM     18  C   LIG    1      -33.383  75.172  28.737  0.00  0.00    +0.038 A 
ATOM     19  C   LIG    1      -34.235  74.237  28.283  0.00  0.00    +0.100 A 
ATOM     20  N   LIG    1      -35.242  74.716  27.484  0.00  0.00    -0.342 N 
ATOM     21  H   LIG    1      -35.910  74.081  27.063  0.00  0.00    +0.167 HD
BRANCH  16  22
ATOM     22  N   LIG    1      -36.036  76.720  26.484  0.00  0.00    -0.229 NA
BRANCH  22  24
ATOM     23  C   LIG    1      -37.523  76.239  24.646  0.00  0.00    +0.026 C 
ATOM     24  C   LIG    1      -37.352  76.195  26.154  0.00  0.00    +0.126 C 
ENDBRANCH  22  24
ENDBRANCH  16  22
ENDBRANCH  10  18
ENDBRANCH   9  13
ENDBRANCH   3   9
ENDBRANCH   1   6
BRANCH   2  25
ATOM     25  N   LIG    1      -22.759  78.386  34.009  0.00  0.00    -0.267 N 
ATOM     26  H   LIG    1      -22.843  79.310  34.414  0.00  0.00    +0.157 HD
BRANCH  25  27
ATOM     27  C   LIG    1      -21.499  78.269  33.359  0.00  0.00    +0.061 A 
ATOM     28  C   LIG    1      -20.372  79.037  33.761  0.00  0.00    +0.092 A 
ATOM     29  N   LIG    1      -19.210  79.043  33.038  0.00  0.00    -0.253 NA
ATOM     30  C   LIG    1      -19.121  78.261  31.936  0.00  0.00    +0.124 A 
ATOM     31  C   LIG    1      -20.126  77.410  31.524  0.00  0.00    +0.075 A 
ATOM     32  C   LIG    1      -21.308  77.399  32.277  0.00  0.00    +0.039 A 
BRANCH  28  33
ATOM     33  C   LIG    1      -20.320  79.912  34.973  0.00  0.00    +0.002 A 
ATOM     34  C   LIG    1      -19.527  79.567  36.086  0.00  0.00    +0.010 A 
ATOM     35  C   LIG    1      -19.488  80.357  37.247  0.00  0.00    +0.004 A 
ATOM     36  C   LIG    1      -20.225  81.539  37.326  0.00  0.00    -0.050 A 
ATOM     37  C   LIG    1      -20.209  82.381  38.569  0.00  0.00    +0.044 C 
ATOM     38  C   LIG    1      -21.033  81.891  36.244  0.00  0.00    +0.004 A 
ATOM     39  C   LIG    1      -21.090  81.083  35.098  0.00  0.00    +0.010 A 
ENDBRANCH  28  33
BRANCH  31  40
ATOM     40  C   LIG    1      -19.999  76.607  30.264  0.00  0.00    +0.419 C 
ATOM     41  F   LIG    1      -20.855  77.000  29.281  0.00  0.00    -0.166 F 
ATOM     42  F   LIG    1      -20.248  75.284  30.470  0.00  0.00    -0.166 F 
ATOM     43  F   LIG    1      -18.753  76.665  29.715  0.00  0.00    -0.166 F 
ENDBRANCH  31  40
ENDBRANCH  25  27
ENDBRANCH   2  25
BRANCH   2  44
ATOM     44  O   LIG    1      -23.936  76.484  34.236  0.00  0.00    -0.481 OA
ATOM     45  H   LIG    1      -23.613  76.405  35.144  0.00  0.00    +0.295 HD
ENDBRANCH   2  44
TORSDOF 11
ENDMDL
MODEL 2
REMARK VINA RESULT:      -6.7     10.459     17.279
REMARK  Name = pdb/CHEMBL3962074.pdb
REMARK                            x       y       z     vdW  Elec       q    Type
REMARK                         _______ _______ _______ _____ _____    ______ ____
ROOT
ATOM      1  N   LIG    1      -35.469  68.209  23.974  0.00  0.00    -0.196 NA
ATOM      2  C   LIG    1      -35.242  66.962  23.680  0.00  0.00    +0.285 C 
ENDROOT
BRANCH   1   6
ATOM      3  C   LIG    1      -34.747  69.847  27.714  0.00  0.00    +0.323 A 
ATOM      4  N   LIG    1      -35.965  69.327  27.523  0.00  0.00    -0.201 NA
ATOM      5  C   LIG    1      -36.174  68.780  26.303  0.00  0.00    +0.145 A 
ATOM      6  C   LIG    1      -35.238  68.695  25.277  0.00  0.00    +0.105 A 
ATOM      7  C   LIG    1      -34.021  69.251  25.619  0.00  0.00    +0.145 A 
ATOM      8  N   LIG    1      -33.737  69.805  26.821  0.00  0.00    -0.201 NA
BRANCH   3   9
ATOM      9  O   LIG    1      -34.583  70.563  28.892  0.00  0.00    -0.424 OA
BRANCH   9  13
ATOM     10  C   LIG    1      -33.698  74.647  28.464  0.00  0.00    -0.010 A 
ATOM     11  C   LIG    1      -34.962  74.166  28.102  0.00  0.00    +0.012 A 
ATOM     12  C   LIG    1      -35.291  72.823  28.278  0.00  0.00    +0.047 A 
ATOM     13  C   LIG    1      -34.347  71.915  28.764  0.00  0.00    +0.132 A 
ATOM     14  C   LIG    1      -33.103  72.385  29.177  0.00  0.00    +0.047 A 
ATOM     15  C   LIG    1      -32.782  73.738  29.023  0.00  0.00    +0.012 A 
BRANCH  10  18
ATOM     16  C   LIG    1      -33.363  78.535  27.698  0.00  0.00    +0.156 A 
ATOM     17  S   LIG    1      -34.501  77.166  27.527  0.00  0.00    -0.053 S 
ATOM     18  C   LIG    1      -33.355  76.055  28.250  0.00  0.00    +0.038 A 
ATOM     19  C   LIG    1      -32.216  76.697  28.561  0.00  0.00    +0.100 A 
ATOM     20  N   LIG    1      -32.205  78.033  28.250  0.00  0.00    -0.342 N 
ATOM     21  H   LIG    1      -31.404  78.608  28.483  0.00  0.00    +0.167 HD
BRANCH  16  22
ATOM     22  N   LIG    1      -33.587  79.755  27.374  0.00  0.00    -0.229 NA
BRANCH  22  24
ATOM     23  C   LIG    1      -34.607  81.059  29.129  0.00  0.00    +0.026 C 
ATOM     24  C   LIG    1      -34.815  80.434  27.762  0.00  0.00    +0.126 C 
ENDBRANCH  22  24
ENDBRANCH  16  22
ENDBRANCH  10  18
ENDBRANCH   9  13
ENDBRANCH   3   9
ENDBRANCH   1   6
BRANCH   2  25
ATOM     25  N   LIG    1      -35.489  66.298  22.518  0.00  0.00    -0.267 N 
ATOM     26  H   LIG    1      -35.660  65.304  22.608  0.00  0.00    +0.157 HD
BRANCH  25  27
ATOM     27  C   LIG    1      -35.049  66.584  21.196  0.00  0.00    +0.061 A 
ATOM     28  C   LIG    1      -35.936  67.064  20.195  0.00  0.00    +0.092 A 
ATOM     29  N   LIG    1      -35.550  67.185  18.888  0.00  0.00    -0.253 NA
ATOM     30  C   LIG    1      -34.274  66.881  18.552  0.00  0.00    +0.124 A 
ATOM     31  C   LIG    1      -33.316  66.501  19.469  0.00  0.00    +0.075 A 
ATOM     32  C   LIG    1      -33.716  66.392  20.808  0.00  0.00    +0.039 A 
BRANCH  28  33
ATOM     33  C   LIG    1      -37.356  67.471  20.433  0.00  0.00    +0.002 A 
ATOM     34  C   LIG    1      -37.670  68.726  20.991  0.00  0.00    +0.010 A 
ATOM     35  C   LIG    1      -38.994  69.116  21.253  0.00  0.00    +0.004 A 
ATOM     36  C   LIG    1      -40.058  68.269  20.942  0.00  0.00    -0.050 A 
ATOM     37  C   LIG    1      -41.475  68.664  21.236  0.00  0.00    +0.044 C 
ATOM     38  C   LIG    1      -39.771  67.012  20.406  0.00  0.00    +0.004 A 
ATOM     39  C   LIG    1      -38.445  66.617  20.174  0.00  0.00    +0.010 A 
ENDBRANCH  28  33
BRANCH  31  40
ATOM     40  C   LIG    1      -31.932  66.120  19.037  0.00  0.00    +0.419 C 
ATOM     41  F   LIG    1      -30.951  66.773  19.717  0.00  0.00    -0.166 F 
ATOM     42  F   LIG    1      -31.714  66.386  17.719  0.00  0.00    -0.166 F 
ATOM     43  F   LIG    1      -31.669  64.792  19.191  0.00  0.00    -0.166 F 
ENDBRANCH  31  40
ENDBRANCH  25  27
ENDBRANCH   2  25
BRANCH   2  44
ATOM     44  O   LIG    1      -34.714  66.158  24.624  0.00  0.00    -0.481 OA
ATOM     45  H   LIG    1      -35.205  65.338  24.767  0.00  0.00    +0.295 HD
ENDBRANCH   2  44
TORSDOF 11
ENDMDL
MODEL 3
REMARK VINA RESULT:      -6.7      8.753     12.914
REMARK  Name = pdb/CHEMBL3962074.pdb
REMARK                            x       y       z     vdW  Elec       q    Type
REMARK                         _______ _______ _______ _____ _____    ______ ____
ROOT
ATOM      1  N   LIG    1      -29.791  84.995  35.633  0.00  0.00    -0.196 NA
ATOM      2  C   LIG    1      -30.291  84.774  34.452  0.00  0.00    +0.285 C 
ENDROOT
BRANCH   1   6
ATOM      3  C   LIG    1      -26.319  83.200  37.017  0.00  0.00    +0.323 A 
ATOM      4  N   LIG    1      -27.462  82.557  37.284  0.00  0.00    -0.201 NA
ATOM      5  C   LIG    1      -28.582  83.149  36.807  0.00  0.00    +0.145 A 
ATOM      6  C   LIG    1      -28.627  84.321  36.059  0.00  0.00    +0.105 A 
ATOM      7  C   LIG    1      -27.376  84.864  35.842  0.00  0.00    +0.145 A 
ATOM      8  N   LIG    1      -26.215  84.323  36.278  0.00  0.00    -0.201 NA
BRANCH   3   9
ATOM      9  O   LIG    1      -25.191  82.696  37.651  0.00  0.00    -0.424 OA
BRANCH   9  13
ATOM     10  C   LIG    1      -22.732  80.288  35.242  0.00  0.00    -0.010 A 
ATOM     11  C   LIG    1      -22.384  81.623  35.479  0.00  0.00    +0.012 A 
ATOM     12  C   LIG    1      -23.162  82.427  36.312  0.00  0.00    +0.047 A 
ATOM     13  C   LIG    1      -24.339  81.935  36.880  0.00  0.00    +0.132 A 
ATOM     14  C   LIG    1      -24.674  80.595  36.698  0.00  0.00    +0.047 A 
ATOM     15  C   LIG    1      -23.878  79.783  35.883  0.00  0.00    +0.012 A 
BRANCH  10  18
ATOM     16  C   LIG    1      -21.081  77.848  32.572  0.00  0.00    +0.156 A 
ATOM     17  S   LIG    1      -22.668  78.312  33.254  0.00  0.00    -0.053 S 
ATOM     18  C   LIG    1      -21.922  79.462  34.345  0.00  0.00    +0.038 A 
ATOM     19  C   LIG    1      -20.587  79.452  34.191  0.00  0.00    +0.100 A 
ATOM     20  N   LIG    1      -20.122  78.571  33.248  0.00  0.00    -0.342 N 
ATOM     21  H   LIG    1      -19.133  78.521  33.034  0.00  0.00    +0.167 HD
BRANCH  16  22
ATOM     22  N   LIG    1      -20.877  77.007  31.627  0.00  0.00    -0.229 NA
BRANCH  22  24
ATOM     23  C   LIG    1      -21.881  76.599  29.471  0.00  0.00    +0.026 C 
ATOM     24  C   LIG    1      -20.854  77.419  30.231  0.00  0.00    +0.126 C 
ENDBRANCH  22  24
ENDBRANCH  16  22
ENDBRANCH  10  18
ENDBRANCH   9  13
ENDBRANCH   3   9
ENDBRANCH   1   6
BRANCH   2  25
ATOM     25  N   LIG    1      -31.442  85.254  33.907  0.00  0.00    -0.267 N 
ATOM     26  H   LIG    1      -32.290  84.771  34.178  0.00  0.00    +0.157 HD
BRANCH  25  27
ATOM     27  C   LIG    1      -31.654  85.921  32.669  0.00  0.00    +0.061 A 
ATOM     28  C   LIG    1      -31.161  87.232  32.428  0.00  0.00    +0.092 A 
ATOM     29  N   LIG    1      -31.500  87.934  31.303  0.00  0.00    -0.253 NA
ATOM     30  C   LIG    1      -32.290  87.342  30.376  0.00  0.00    +0.124 A 
ATOM     31  C   LIG    1      -32.736  86.040  30.477  0.00  0.00    +0.075 A 
ATOM     32  C   LIG    1      -32.374  85.323  31.626  0.00  0.00    +0.039 A 
BRANCH  28  33
ATOM     33  C   LIG    1      -30.253  87.988  33.346  0.00  0.00    +0.002 A 
ATOM     34  C   LIG    1      -28.875  87.700  33.407  0.00  0.00    +0.010 A 
ATOM     35  C   LIG    1      -28.010  88.374  34.284  0.00  0.00    +0.004 A 
ATOM     36  C   LIG    1      -28.491  89.384  35.118  0.00  0.00    -0.050 A 
ATOM     37  C   LIG    1      -27.582  90.099  36.075  0.00  0.00    +0.044 C 
ATOM     38  C   LIG    1      -29.856  89.675  35.089  0.00  0.00    +0.004 A 
ATOM     39  C   LIG    1      -30.720  88.978  34.231  0.00  0.00    +0.010 A 
ENDBRANCH  28  33
BRANCH  31  40
ATOM     40  C   LIG    1      -33.656  85.450  29.450  0.00  0.00    +0.419 C 
ATOM     41  F   LIG    1      -34.970  85.711  29.685  0.00  0.00    -0.166 F 
ATOM     42  F   LIG    1      -33.550  84.094  29.383  0.00  0.00    -0.166 F 
ATOM     43  F   LIG    1      -33.408  85.900  28.188  0.00  0.00    -0.166 F 
ENDBRANCH  31  40
ENDBRANCH  25  27
ENDBRANCH   2  25
BRANCH   2  44
ATOM     44  O   LIG    1      -29.637  83.945  33.614  0.00  0.00    -0.481 OA
ATOM     45  H   LIG    1      -28.804  83.604  33.965  0.00  0.00    +0.295 HD
ENDBRANCH   2  44
TORSDOF 11
ENDMDL
MODEL 4
REMARK VINA RESULT:      -6.6      7.447      8.546
REMARK  Name = pdb/CHEMBL3962074.pdb
REMARK                            x       y       z     vdW  Elec       q    Type
REMARK                         _______ _______ _______ _____ _____    ______ ____
ROOT
ATOM      1  N   LIG    1      -23.953  80.152  36.625  0.00  0.00    -0.196 NA
ATOM      2  C   LIG    1      -23.793  79.491  35.515  0.00  0.00    +0.285 C 
ENDROOT
BRANCH   1   6
ATOM      3  C   LIG    1      -26.626  83.293  37.047  0.00  0.00    +0.323 A 
ATOM      4  N   LIG    1      -25.377  83.624  36.698  0.00  0.00    -0.201 NA
ATOM      5  C   LIG    1      -24.525  82.584  36.547  0.00  0.00    +0.145 A 
ATOM      6  C   LIG    1      -24.849  81.239  36.693  0.00  0.00    +0.105 A 
ATOM      7  C   LIG    1      -26.173  81.043  37.032  0.00  0.00    +0.145 A 
ATOM      8  N   LIG    1      -27.083  82.032  37.190  0.00  0.00    -0.201 NA
BRANCH   3   9
ATOM      9  O   LIG    1      -27.454  84.357  37.376  0.00  0.00    -0.424 OA
BRANCH   9  13
ATOM     10  C   LIG    1      -29.115  86.587  34.228  0.00  0.00    -0.010 A 
ATOM     11  C   LIG    1      -27.929  87.015  34.835  0.00  0.00    +0.012 A 
ATOM     12  C   LIG    1      -27.337  86.266  35.851  0.00  0.00    +0.047 A 
ATOM     13  C   LIG    1      -27.947  85.103  36.327  0.00  0.00    +0.132 A 
ATOM     14  C   LIG    1      -29.099  84.634  35.700  0.00  0.00    +0.047 A 
ATOM     15  C   LIG    1      -29.678  85.374  34.663  0.00  0.00    +0.012 A 
BRANCH  10  18
ATOM     16  C   LIG    1      -31.250  88.329  31.360  0.00  0.00    +0.156 A 
ATOM     17  S   LIG    1      -31.138  86.810  32.297  0.00  0.00    -0.053 S 
ATOM     18  C   LIG    1      -29.741  87.396  33.179  0.00  0.00    +0.038 A 
ATOM     19  C   LIG    1      -29.408  88.628  32.759  0.00  0.00    +0.100 A 
ATOM     20  N   LIG    1      -30.206  89.133  31.764  0.00  0.00    -0.342 N 
ATOM     21  H   LIG    1      -30.055  90.070  31.410  0.00  0.00    +0.167 HD
BRANCH  16  22
ATOM     22  N   LIG    1      -32.139  88.617  30.483  0.00  0.00    -0.229 NA
BRANCH  22  24
ATOM     23  C   LIG    1      -33.080  89.930  28.690  0.00  0.00    +0.026 C 
ATOM     24  C   LIG    1      -32.328  89.980  30.008  0.00  0.00    +0.126 C 
ENDBRANCH  22  24
ENDBRANCH  16  22
ENDBRANCH  10  18
ENDBRANCH   9  13
ENDBRANCH   3   9
ENDBRANCH   1   6
BRANCH   2  25
ATOM     25  N   LIG    1      -22.919  78.486  35.236  0.00  0.00    -0.267 N 
ATOM     26  H   LIG    1      -22.717  77.854  36.001  0.00  0.00    +0.157 HD
BRANCH  25  27
ATOM     27  C   LIG    1      -21.852  78.444  34.295  0.00  0.00    +0.061 A 
ATOM     28  C   LIG    1      -20.735  79.318  34.385  0.00  0.00    +0.092 A 
ATOM     29  N   LIG    1      -19.793  79.386  33.395  0.00  0.00    -0.253 NA
ATOM     30  C   LIG    1      -19.908  78.566  32.324  0.00  0.00    +0.124 A 
ATOM     31  C   LIG    1      -20.903  77.619  32.196  0.00  0.00    +0.075 A 
ATOM     32  C   LIG    1      -21.857  77.545  33.220  0.00  0.00    +0.039 A 
BRANCH  28  33
ATOM     33  C   LIG    1      -20.464  80.247  35.526  0.00  0.00    +0.002 A 
ATOM     34  C   LIG    1      -19.702  79.833  36.637  0.00  0.00    +0.010 A 
ATOM     35  C   LIG    1      -19.462  80.678  37.733  0.00  0.00    +0.004 A 
ATOM     36  C   LIG    1      -19.959  81.982  37.746  0.00  0.00    -0.050 A 
ATOM     37  C   LIG    1      -19.728  82.888  38.921  0.00  0.00    +0.044 C 
ATOM     38  C   LIG    1      -20.733  82.408  36.666  0.00  0.00    +0.004 A 
ATOM     39  C   LIG    1      -20.993  81.550  35.586  0.00  0.00    +0.010 A 
ENDBRANCH  28  33
BRANCH  31  40
ATOM     40  C   LIG    1      -21.019  76.774  30.962  0.00  0.00    +0.419 C 
ATOM     41  F   LIG    1      -22.254  76.812  30.392  0.00  0.00    -0.166 F 
ATOM     42  F   LIG    1      -20.763  75.460  31.213  0.00  0.00    -0.166 F 
ATOM     43  F   LIG    1      -20.146  77.137  29.980  0.00  0.00    -0.166 F 
ENDBRANCH  31  40
ENDBRANCH  25  27
ENDBRANCH   2  25
BRANCH   2  44
ATOM     44  O   LIG    1      -24.553  79.815  34.451  0.00  0.00    -0.481 OA
ATOM     45  H   LIG    1      -24.716  80.763  34.354  0.00  0.00    +0.295 HD
ENDBRANCH   2  44
TORSDOF 11
ENDMDL
MODEL 5
REMARK VINA RESULT:      -6.5      2.181      2.544
REMARK  Name = pdb/CHEMBL3962074.pdb
REMARK                            x       y       z     vdW  Elec       q    Type
REMARK                         _______ _______ _______ _____ _____    ______ ____
ROOT
ATOM      1  N   LIG    1      -24.272  76.829  33.251  0.00  0.00    -0.196 NA
ATOM      2  C   LIG    1      -23.770  77.917  33.758  0.00  0.00    +0.285 C 
ENDROOT
BRANCH   1   6
ATOM      3  C   LIG    1      -28.338  76.774  32.442  0.00  0.00    +0.323 A 
ATOM      4  N   LIG    1      -27.536  77.068  31.412  0.00  0.00    -0.201 NA
ATOM      5  C   LIG    1      -26.212  77.062  31.692  0.00  0.00    +0.145 A 
ATOM      6  C   LIG    1      -25.642  76.753  32.923  0.00  0.00    +0.105 A 
ATOM      7  C   LIG    1      -26.584  76.449  33.886  0.00  0.00    +0.145 A 
ATOM      8  N   LIG    1      -27.920  76.426  33.676  0.00  0.00    -0.201 NA
BRANCH   3   9
ATOM      9  O   LIG    1      -29.696  76.952  32.209  0.00  0.00    -0.424 OA
BRANCH   9  13
ATOM     10  C   LIG    1      -31.707  73.839  30.232  0.00  0.00    -0.010 A 
ATOM     11  C   LIG    1      -31.608  75.098  29.629  0.00  0.00    +0.012 A 
ATOM     12  C   LIG    1      -30.906  76.132  30.248  0.00  0.00    +0.047 A 
ATOM     13  C   LIG    1      -30.337  75.951  31.511  0.00  0.00    +0.132 A 
ATOM     14  C   LIG    1      -30.381  74.691  32.103  0.00  0.00    +0.047 A 
ATOM     15  C   LIG    1      -31.064  73.647  31.468  0.00  0.00    +0.012 A 
BRANCH  10  18
ATOM     16  C   LIG    1      -34.060  71.395  28.157  0.00  0.00    +0.156 A 
ATOM     17  S   LIG    1      -33.777  73.132  28.477  0.00  0.00    -0.053 S 
ATOM     18  C   LIG    1      -32.469  72.768  29.584  0.00  0.00    +0.038 A 
ATOM     19  C   LIG    1      -32.304  71.439  29.692  0.00  0.00    +0.100 A 
ATOM     20  N   LIG    1      -33.171  70.689  28.938  0.00  0.00    -0.342 N 
ATOM     21  H   LIG    1      -33.097  69.679  28.924  0.00  0.00    +0.167 HD
BRANCH  16  22
ATOM     22  N   LIG    1      -34.923  70.901  27.348  0.00  0.00    -0.229 NA
BRANCH  22  24
ATOM     23  C   LIG    1      -34.145  69.214  25.809  0.00  0.00    +0.026 C 
ATOM     24  C   LIG    1      -34.602  70.654  25.949  0.00  0.00    +0.126 C 
ENDBRANCH  22  24
ENDBRANCH  16  22
ENDBRANCH  10  18
ENDBRANCH   9  13
ENDBRANCH   3   9
ENDBRANCH   1   6
BRANCH   2  25
ATOM     25  N   LIG    1      -22.509  78.145  34.217  0.00  0.00    -0.267 N 
ATOM     26  H   LIG    1      -22.439  78.744  35.029  0.00  0.00    +0.157 HD
BRANCH  25  27
ATOM     27  C   LIG    1      -21.273  78.158  33.513  0.00  0.00    +0.061 A 
ATOM     28  C   LIG    1      -20.223  79.054  33.853  0.00  0.00    +0.092 A 
ATOM     29  N   LIG    1      -19.102  79.176  33.078  0.00  0.00    -0.253 NA
ATOM     30  C   LIG    1      -18.973  78.389  31.984  0.00  0.00    +0.124 A 
ATOM     31  C   LIG    1      -19.893  77.423  31.630  0.00  0.00    +0.075 A 
ATOM     32  C   LIG    1      -21.032  77.294  32.435  0.00  0.00    +0.039 A 
BRANCH  28  33
ATOM     33  C   LIG    1      -20.218  79.951  35.050  0.00  0.00    +0.002 A 
ATOM     34  C   LIG    1      -19.436  79.650  36.183  0.00  0.00    +0.010 A 
ATOM     35  C   LIG    1      -19.440  80.461  37.329  0.00  0.00    +0.004 A 
ATOM     36  C   LIG    1      -20.212  81.622  37.374  0.00  0.00    -0.050 A 
ATOM     37  C   LIG    1      -20.242  82.486  38.601  0.00  0.00    +0.044 C 
ATOM     38  C   LIG    1      -21.010  81.932  36.271  0.00  0.00    +0.004 A 
ATOM     39  C   LIG    1      -21.024  81.102  35.140  0.00  0.00    +0.010 A 
ENDBRANCH  28  33
BRANCH  31  40
ATOM     40  C   LIG    1      -19.730  76.617  30.376  0.00  0.00    +0.419 C 
ATOM     41  F   LIG    1      -20.121  77.276  29.252  0.00  0.00    -0.166 F 
ATOM     42  F   LIG    1      -20.459  75.467  30.407  0.00  0.00    -0.166 F 
ATOM     43  F   LIG    1      -18.443  76.229  30.151  0.00  0.00    -0.166 F 
ENDBRANCH  31  40
ENDBRANCH  25  27
ENDBRANCH   2  25
BRANCH   2  44
ATOM     44  O   LIG    1      -24.565  78.997  33.896  0.00  0.00    -0.481 OA
ATOM     45  H   LIG    1      -24.692  79.281  34.811  0.00  0.00    +0.295 HD
ENDBRANCH   2  44
TORSDOF 11
ENDMDL
MODEL 6
REMARK VINA RESULT:      -6.4     10.005     16.130
REMARK  Name = pdb/CHEMBL3962074.pdb
REMARK                            x       y       z     vdW  Elec       q    Type
REMARK                         _______ _______ _______ _____ _____    ______ ____
ROOT
ATOM      1  N   LIG    1      -37.602  80.834  28.090  0.00  0.00    -0.196 NA
ATOM      2  C   LIG    1      -36.869  79.786  27.849  0.00  0.00    +0.285 C 
ENDROOT
BRANCH   1   6
ATOM      3  C   LIG    1      -36.074  84.685  28.243  0.00  0.00    +0.323 A 
ATOM      4  N   LIG    1      -36.271  84.082  29.421  0.00  0.00    -0.201 NA
ATOM      5  C   LIG    1      -36.752  82.820  29.349  0.00  0.00    +0.145 A 
ATOM      6  C   LIG    1      -37.018  82.115  28.179  0.00  0.00    +0.105 A 
ATOM      7  C   LIG    1      -36.749  82.850  27.042  0.00  0.00    +0.145 A 
ATOM      8  N   LIG    1      -36.259  84.112  27.037  0.00  0.00    -0.201 NA
BRANCH   3   9
ATOM      9  O   LIG    1      -35.751  86.034  28.311  0.00  0.00    -0.424 OA
BRANCH   9  13
ATOM     10  C   LIG    1      -32.209  87.082  30.311  0.00  0.00    -0.010 A 
ATOM     11  C   LIG    1      -32.272  85.888  29.584  0.00  0.00    +0.012 A 
ATOM     12  C   LIG    1      -33.423  85.543  28.876  0.00  0.00    +0.047 A 
ATOM     13  C   LIG    1      -34.560  86.353  28.926  0.00  0.00    +0.132 A 
ATOM     14  C   LIG    1      -34.498  87.570  29.601  0.00  0.00    +0.047 A 
ATOM     15  C   LIG    1      -33.334  87.926  30.290  0.00  0.00    +0.012 A 
BRANCH  10  18
ATOM     16  C   LIG    1      -29.287  87.884  32.886  0.00  0.00    +0.156 A 
ATOM     17  S   LIG    1      -31.035  87.512  32.821  0.00  0.00    -0.053 S 
ATOM     18  C   LIG    1      -31.004  87.421  31.071  0.00  0.00    +0.038 A 
ATOM     19  C   LIG    1      -29.767  87.675  30.613  0.00  0.00    +0.100 A 
ATOM     20  N   LIG    1      -28.836  87.944  31.585  0.00  0.00    -0.342 N 
ATOM     21  H   LIG    1      -27.868  88.110  31.337  0.00  0.00    +0.167 HD
BRANCH  16  22
ATOM     22  N   LIG    1      -28.584  88.056  33.944  0.00  0.00    -0.229 NA
BRANCH  22  24
ATOM     23  C   LIG    1      -28.129  85.872  34.864  0.00  0.00    +0.026 C 
ATOM     24  C   LIG    1      -27.511  87.140  34.303  0.00  0.00    +0.126 C 
ENDBRANCH  22  24
ENDBRANCH  16  22
ENDBRANCH  10  18
ENDBRANCH   9  13
ENDBRANCH   3   9
ENDBRANCH   1   6
BRANCH   2  25
ATOM     25  N   LIG    1      -37.234  78.476  27.819  0.00  0.00    -0.267 N 
ATOM     26  H   LIG    1      -36.815  77.887  28.528  0.00  0.00    +0.157 HD
BRANCH  25  27
ATOM     27  C   LIG    1      -37.647  77.672  26.721  0.00  0.00    +0.061 A 
ATOM     28  C   LIG    1      -36.941  76.498  26.340  0.00  0.00    +0.092 A 
ATOM     29  N   LIG    1      -37.242  75.817  25.193  0.00  0.00    -0.253 NA
ATOM     30  C   LIG    1      -38.270  76.250  24.425  0.00  0.00    +0.124 A 
ATOM     31  C   LIG    1      -39.073  77.320  24.763  0.00  0.00    +0.075 A 
ATOM     32  C   LIG    1      -38.767  78.005  25.947  0.00  0.00    +0.039 A 
BRANCH  28  33
ATOM     33  C   LIG    1      -35.814  75.889  27.113  0.00  0.00    +0.002 A 
ATOM     34  C   LIG    1      -36.005  74.727  27.886  0.00  0.00    +0.010 A 
ATOM     35  C   LIG    1      -34.969  74.157  28.644  0.00  0.00    +0.004 A 
ATOM     36  C   LIG    1      -33.692  74.718  28.635  0.00  0.00    -0.050 A 
ATOM     37  C   LIG    1      -32.581  74.131  29.457  0.00  0.00    +0.044 C 
ATOM     38  C   LIG    1      -33.483  75.881  27.892  0.00  0.00    +0.004 A 
ATOM     39  C   LIG    1      -34.529  76.462  27.160  0.00  0.00    +0.010 A 
ENDBRANCH  28  33
BRANCH  31  40
ATOM     40  C   LIG    1      -40.163  77.794  23.849  0.00  0.00    +0.419 C 
ATOM     41  F   LIG    1      -41.335  78.055  24.490  0.00  0.00    -0.166 F 
ATOM     42  F   LIG    1      -40.461  76.879  22.885  0.00  0.00    -0.166 F 
ATOM     43  F   LIG    1      -39.843  78.938  23.181  0.00  0.00    -0.166 F 
ENDBRANCH  31  40
ENDBRANCH  25  27
ENDBRANCH   2  25
BRANCH   2  44
ATOM     44  O   LIG    1      -35.553  79.954  27.613  0.00  0.00    -0.481 OA
ATOM     45  H   LIG    1      -35.265  79.657  26.739  0.00  0.00    +0.295 HD
ENDBRANCH   2  44
TORSDOF 11
ENDMDL
MODEL 7
REMARK VINA RESULT:      -6.4      8.534     11.872
REMARK  Name = pdb/CHEMBL3962074.pdb
REMARK                            x       y       z     vdW  Elec       q    Type
REMARK                         _______ _______ _______ _____ _____    ______ ____
ROOT
ATOM      1  N   LIG    1      -29.462  85.041  36.026  0.00  0.00    -0.196 NA
ATOM      2  C   LIG    1      -29.948  84.800  34.843  0.00  0.00    +0.285 C 
ENDROOT
BRANCH   1   6
ATOM      3  C   LIG    1      -26.175  82.843  37.273  0.00  0.00    +0.323 A 
ATOM      4  N   LIG    1      -25.914  83.914  36.513  0.00  0.00    -0.201 NA
ATOM      5  C   LIG    1      -26.999  84.628  36.132  0.00  0.00    +0.145 A 
ATOM      6  C   LIG    1      -28.317  84.358  36.486  0.00  0.00    +0.105 A 
ATOM      7  C   LIG    1      -28.435  83.240  37.288  0.00  0.00    +0.145 A 
ATOM      8  N   LIG    1      -27.397  82.485  37.715  0.00  0.00    -0.201 NA
BRANCH   3   9
ATOM      9  O   LIG    1      -25.091  82.009  37.517  0.00  0.00    -0.424 OA
BRANCH   9  13
ATOM     10  C   LIG    1      -24.456  79.054  34.601  0.00  0.00    -0.010 A 
ATOM     11  C   LIG    1      -23.572  80.134  34.702  0.00  0.00    +0.012 A 
ATOM     12  C   LIG    1      -23.740  81.102  35.692  0.00  0.00    +0.047 A 
ATOM     13  C   LIG    1      -24.827  81.047  36.566  0.00  0.00    +0.132 A 
ATOM     14  C   LIG    1      -25.687  79.953  36.514  0.00  0.00    +0.047 A 
ATOM     15  C   LIG    1      -25.503  78.969  35.536  0.00  0.00    +0.012 A 
BRANCH  10  18
ATOM     16  C   LIG    1      -24.612  76.251  31.785  0.00  0.00    +0.156 A 
ATOM     17  S   LIG    1      -25.615  77.027  33.045  0.00  0.00    -0.053 S 
ATOM     18  C   LIG    1      -24.286  78.058  33.540  0.00  0.00    +0.038 A 
ATOM     19  C   LIG    1      -23.192  77.793  32.806  0.00  0.00    +0.100 A 
ATOM     20  N   LIG    1      -23.354  76.806  31.867  0.00  0.00    -0.342 N 
ATOM     21  H   LIG    1      -22.596  76.565  31.240  0.00  0.00    +0.167 HD
BRANCH  16  22
ATOM     22  N   LIG    1      -24.996  75.351  30.955  0.00  0.00    -0.229 NA
BRANCH  22  24
ATOM     23  C   LIG    1      -24.336  73.040  30.745  0.00  0.00    +0.026 C 
ATOM     24  C   LIG    1      -25.318  74.000  31.391  0.00  0.00    +0.126 C 
ENDBRANCH  22  24
ENDBRANCH  16  22
ENDBRANCH  10  18
ENDBRANCH   9  13
ENDBRANCH   3   9
ENDBRANCH   1   6
BRANCH   2  25
ATOM     25  N   LIG    1      -31.082  85.285  34.269  0.00  0.00    -0.267 N 
ATOM     26  H   LIG    1      -31.935  84.788  34.494  0.00  0.00    +0.157 HD
BRANCH  25  27
ATOM     27  C   LIG    1      -31.254  85.986  33.044  0.00  0.00    +0.061 A 
ATOM     28  C   LIG    1      -30.667  87.261  32.818  0.00  0.00    +0.092 A 
ATOM     29  N   LIG    1      -30.962  88.004  31.707  0.00  0.00    -0.253 NA
ATOM     30  C   LIG    1      -31.801  87.487  30.779  0.00  0.00    +0.124 A 
ATOM     31  C   LIG    1      -32.342  86.220  30.864  0.00  0.00    +0.075 A 
ATOM     32  C   LIG    1      -32.025  85.460  31.998  0.00  0.00    +0.039 A 
BRANCH  28  33
ATOM     33  C   LIG    1      -29.697  87.932  33.739  0.00  0.00    +0.002 A 
ATOM     34  C   LIG    1      -28.352  87.519  33.807  0.00  0.00    +0.010 A 
ATOM     35  C   LIG    1      -27.432  88.113  34.686  0.00  0.00    +0.004 A 
ATOM     36  C   LIG    1      -27.823  89.165  35.517  0.00  0.00    -0.050 A 
ATOM     37  C   LIG    1      -26.856  89.794  36.477  0.00  0.00    +0.044 C 
ATOM     38  C   LIG    1      -29.155  89.579  35.482  0.00  0.00    +0.004 A 
ATOM     39  C   LIG    1      -30.076  88.962  34.621  0.00  0.00    +0.010 A 
ENDBRANCH  28  33
BRANCH  31  40
ATOM     40  C   LIG    1      -33.312  85.718  29.836  0.00  0.00    +0.419 C 
ATOM     41  F   LIG    1      -33.230  86.372  28.646  0.00  0.00    -0.166 F 
ATOM     42  F   LIG    1      -34.604  85.844  30.245  0.00  0.00    -0.166 F 
ATOM     43  F   LIG    1      -33.146  84.396  29.545  0.00  0.00    -0.166 F 
ENDBRANCH  31  40
ENDBRANCH  25  27
ENDBRANCH   2  25
BRANCH   2  44
ATOM     44  O   LIG    1      -29.296  83.940  34.036  0.00  0.00    -0.481 OA
ATOM     45  H   LIG    1      -28.681  83.352  34.496  0.00  0.00    +0.295 HD
ENDBRANCH   2  44
TORSDOF 11
ENDMDL
MODEL 8
REMARK VINA RESULT:      -6.3     18.096     20.271
REMARK  Name = pdb/CHEMBL3962074.pdb
REMARK                            x       y       z     vdW  Elec       q    Type
REMARK                         _______ _______ _______ _____ _____    ______ ____
ROOT
ATOM      1  N   LIG    1      -24.814  79.973  11.710  0.00  0.00    -0.196 NA
ATOM      2  C   LIG    1      -24.590  81.179  12.145  0.00  0.00    +0.285 C 
ENDROOT
BRANCH   1   6
ATOM      3  C   LIG    1      -28.616  78.444  11.081  0.00  0.00    +0.323 A 
ATOM      4  N   LIG    1      -28.075  78.202  12.281  0.00  0.00    -0.201 NA
ATOM      5  C   LIG    1      -26.842  78.726  12.473  0.00  0.00    +0.145 A 
ATOM      6  C   LIG    1      -26.133  79.496  11.557  0.00  0.00    +0.105 A 
ATOM      7  C   LIG    1      -26.819  79.684  10.374  0.00  0.00    +0.145 A 
ATOM      8  N   LIG    1      -28.056  79.199  10.115  0.00  0.00    -0.201 NA
BRANCH   3   9
ATOM      9  O   LIG    1      -29.797  77.764  10.814  0.00  0.00    -0.424 OA
BRANCH   9  13
ATOM     10  C   LIG    1      -33.114  80.245  10.114  0.00  0.00    -0.010 A 
ATOM     11  C   LIG    1      -32.662  79.385   9.106  0.00  0.00    +0.012 A 
ATOM     12  C   LIG    1      -31.591  78.522   9.333  0.00  0.00    +0.047 A 
ATOM     13  C   LIG    1      -30.907  78.537  10.551  0.00  0.00    +0.132 A 
ATOM     14  C   LIG    1      -31.376  79.348  11.582  0.00  0.00    +0.047 A 
ATOM     15  C   LIG    1      -32.467  80.196  11.361  0.00  0.00    +0.012 A 
BRANCH  10  18
ATOM     16  C   LIG    1      -35.887  83.086   9.885  0.00  0.00    +0.156 A 
ATOM     17  S   LIG    1      -34.512  82.548  10.894  0.00  0.00    -0.053 S 
ATOM     18  C   LIG    1      -34.223  81.166   9.855  0.00  0.00    +0.038 A 
ATOM     19  C   LIG    1      -35.121  81.138   8.856  0.00  0.00    +0.100 A 
ATOM     20  N   LIG    1      -36.035  82.161   8.874  0.00  0.00    -0.342 N 
ATOM     21  H   LIG    1      -36.726  82.245   8.139  0.00  0.00    +0.167 HD
BRANCH  16  22
ATOM     22  N   LIG    1      -36.596  84.139  10.066  0.00  0.00    -0.229 NA
BRANCH  22  24
ATOM     23  C   LIG    1      -37.250  85.012  12.218  0.00  0.00    +0.026 C 
ATOM     24  C   LIG    1      -37.684  84.169  11.033  0.00  0.00    +0.126 C 
ENDBRANCH  22  24
ENDBRANCH  16  22
ENDBRANCH  10  18
ENDBRANCH   9  13
ENDBRANCH   3   9
ENDBRANCH   1   6
BRANCH   2  25
ATOM     25  N   LIG    1      -23.403  81.775  12.440  0.00  0.00    -0.267 N 
ATOM     26  H   LIG    1      -22.596  81.415  11.946  0.00  0.00    +0.157 HD
BRANCH  25  27
ATOM     27  C   LIG    1      -22.977  82.409  13.640  0.00  0.00    +0.061 A 
ATOM     28  C   LIG    1      -22.816  81.688  14.855  0.00  0.00    +0.092 A 
ATOM     29  N   LIG    1      -22.563  82.323  16.041  0.00  0.00    -0.253 NA
ATOM     30  C   LIG    1      -22.420  83.669  16.045  0.00  0.00    +0.124 A 
ATOM     31  C   LIG    1      -22.463  84.442  14.903  0.00  0.00    +0.075 A 
ATOM     32  C   LIG    1      -22.709  83.784  13.690  0.00  0.00    +0.039 A 
BRANCH  28  33
ATOM     33  C   LIG    1      -22.910  80.201  14.987  0.00  0.00    +0.002 A 
ATOM     34  C   LIG    1      -21.801  79.374  14.715  0.00  0.00    +0.010 A 
ATOM     35  C   LIG    1      -21.876  77.975  14.802  0.00  0.00    +0.004 A 
ATOM     36  C   LIG    1      -23.062  77.350  15.190  0.00  0.00    -0.050 A 
ATOM     37  C   LIG    1      -23.161  75.854  15.266  0.00  0.00    +0.044 C 
ATOM     38  C   LIG    1      -24.179  78.147  15.446  0.00  0.00    +0.004 A 
ATOM     39  C   LIG    1      -24.106  79.543  15.330  0.00  0.00    +0.010 A 
ENDBRANCH  28  33
BRANCH  31  40
ATOM     40  C   LIG    1      -22.355  85.936  14.969  0.00  0.00    +0.419 C 
ATOM     41  F   LIG    1      -21.154  86.413  14.545  0.00  0.00    -0.166 F 
ATOM     42  F   LIG    1      -22.519  86.407  16.236  0.00  0.00    -0.166 F 
ATOM     43  F   LIG    1      -23.295  86.575  14.216  0.00  0.00    -0.166 F 
ENDBRANCH  31  40
ENDBRANCH  25  27
ENDBRANCH   2  25
BRANCH   2  44
ATOM     44  O   LIG    1      -25.640  81.991  12.377  0.00  0.00    -0.481 OA
ATOM     45  H   LIG    1      -26.464  81.527  12.575  0.00  0.00    +0.295 HD
ENDBRANCH   2  44
TORSDOF 11
ENDMDL
MODEL 9
REMARK VINA RESULT:      -6.2     14.612     18.277
REMARK  Name = pdb/CHEMBL3962074.pdb
REMARK                            x       y       z     vdW  Elec       q    Type
REMARK                         _______ _______ _______ _____ _____    ______ ____
ROOT
ATOM      1  N   LIG    1      -37.438  69.686  22.722  0.00  0.00    -0.196 NA
ATOM      2  C   LIG    1      -38.437  69.448  23.521  0.00  0.00    +0.285 C 
ENDROOT
BRANCH   1   6
ATOM      3  C   LIG    1      -36.043  66.975  19.913  0.00  0.00    +0.323 A 
ATOM      4  N   LIG    1      -35.635  66.781  21.172  0.00  0.00    -0.201 NA
ATOM      5  C   LIG    1      -36.117  67.665  22.077  0.00  0.00    +0.145 A 
ATOM      6  C   LIG    1      -36.998  68.706  21.808  0.00  0.00    +0.105 A 
ATOM      7  C   LIG    1      -37.351  68.775  20.475  0.00  0.00    +0.145 A 
ATOM      8  N   LIG    1      -36.918  67.922  19.518  0.00  0.00    -0.201 NA
BRANCH   3   9
ATOM      9  O   LIG    1      -35.417  66.187  18.956  0.00  0.00    -0.424 OA
BRANCH   9  13
ATOM     10  C   LIG    1      -31.271  66.769  18.610  0.00  0.00    -0.010 A 
ATOM     11  C   LIG    1      -31.764  65.705  19.374  0.00  0.00    +0.012 A 
ATOM     12  C   LIG    1      -33.135  65.467  19.465  0.00  0.00    +0.047 A 
ATOM     13  C   LIG    1      -34.050  66.322  18.845  0.00  0.00    +0.132 A 
ATOM     14  C   LIG    1      -33.576  67.355  18.040  0.00  0.00    +0.047 A 
ATOM     15  C   LIG    1      -32.199  67.577  17.929  0.00  0.00    +0.012 A 
BRANCH  10  18
ATOM     16  C   LIG    1      -27.522  68.058  18.300  0.00  0.00    +0.156 A 
ATOM     17  S   LIG    1      -29.211  68.590  18.053  0.00  0.00    -0.053 S 
ATOM     18  C   LIG    1      -29.830  67.025  18.544  0.00  0.00    +0.038 A 
ATOM     19  C   LIG    1      -28.817  66.195  18.841  0.00  0.00    +0.100 A 
ATOM     20  N   LIG    1      -27.565  66.739  18.696  0.00  0.00    -0.342 N 
ATOM     21  H   LIG    1      -26.741  66.201  18.935  0.00  0.00    +0.167 HD
BRANCH  16  22
ATOM     22  N   LIG    1      -26.469  68.773  18.146  0.00  0.00    -0.229 NA
BRANCH  22  24
ATOM     23  C   LIG    1      -25.371  70.849  17.591  0.00  0.00    +0.026 C 
ATOM     24  C   LIG    1      -26.474  70.204  18.411  0.00  0.00    +0.126 C 
ENDBRANCH  22  24
ENDBRANCH  16  22
ENDBRANCH  10  18
ENDBRANCH   9  13
ENDBRANCH   3   9
ENDBRANCH   1   6
BRANCH   2  25
ATOM     25  N   LIG    1      -38.937  70.225  24.520  0.00  0.00    -0.267 N 
ATOM     26  H   LIG    1      -39.858  69.971  24.855  0.00  0.00    +0.157 HD
BRANCH  25  27
ATOM     27  C   LIG    1      -38.686  71.593  24.821  0.00  0.00    +0.061 A 
ATOM     28  C   LIG    1      -37.653  71.989  25.713  0.00  0.00    +0.092 A 
ATOM     29  N   LIG    1      -37.516  73.287  26.125  0.00  0.00    -0.253 NA
ATOM     30  C   LIG    1      -38.362  74.223  25.634  0.00  0.00    +0.124 A 
ATOM     31  C   LIG    1      -39.332  73.950  24.692  0.00  0.00    +0.075 A 
ATOM     32  C   LIG    1      -39.458  72.621  24.264  0.00  0.00    +0.039 A 
BRANCH  28  33
ATOM     33  C   LIG    1      -36.629  71.069  26.300  0.00  0.00    +0.002 A 
ATOM     34  C   LIG    1      -36.817  70.486  27.569  0.00  0.00    +0.010 A 
ATOM     35  C   LIG    1      -35.856  69.645  28.153  0.00  0.00    +0.004 A 
ATOM     36  C   LIG    1      -34.676  69.338  27.474  0.00  0.00    -0.050 A 
ATOM     37  C   LIG    1      -33.630  68.458  28.096  0.00  0.00    +0.044 C 
ATOM     38  C   LIG    1      -34.458  69.919  26.224  0.00  0.00    +0.004 A 
ATOM     39  C   LIG    1      -35.410  70.781  25.658  0.00  0.00    +0.010 A 
ENDBRANCH  28  33
BRANCH  31  40
ATOM     40  C   LIG    1      -40.281  75.012  24.222  0.00  0.00    +0.419 C 
ATOM     41  F   LIG    1      -39.660  76.139  23.781  0.00  0.00    -0.166 F 
ATOM     42  F   LIG    1      -41.130  75.415  25.208  0.00  0.00    -0.166 F 
ATOM     43  F   LIG    1      -41.079  74.602  23.196  0.00  0.00    -0.166 F 
ENDBRANCH  31  40
ENDBRANCH  25  27
ENDBRANCH   2  25
BRANCH   2  44
ATOM     44  O   LIG    1      -39.093  68.276  23.411  0.00  0.00    -0.481 OA
ATOM     45  H   LIG    1      -38.552  67.499  23.607  0.00  0.00    +0.295 HD
ENDBRANCH   2  44
TORSDOF 11
ENDMDL
