MODEL 1
REMARK VINA RESULT:      -6.6      0.000      0.000
REMARK  Name = pdb/CHEMBL3945591.pdb
REMARK                            x       y       z     vdW  Elec       q    Type
REMARK                         _______ _______ _______ _____ _____    ______ ____
ROOT
ATOM      1  C   LIG    1      -31.310  87.195  30.837  0.00  0.00    +0.149 A 
ATOM      2  N   LIG    1      -32.471  87.871  30.803  0.00  0.00    -0.160 NA
ATOM      3  N   LIG    1      -33.297  87.105  30.051  0.00  0.00    -0.218 N 
ATOM      4  C   LIG    1      -32.749  85.838  29.809  0.00  0.00    +0.129 A 
ATOM      5  C   LIG    1      -31.442  85.934  30.212  0.00  0.00    +0.078 A 
ENDROOT
BRANCH   3   6
ATOM      6  C   LIG    1      -34.530  87.638  29.587  0.00  0.00    +0.067 A 
ATOM      7  C   LIG    1      -34.579  88.353  28.382  0.00  0.00    +0.028 A 
ATOM      8  C   LIG    1      -35.802  88.843  27.911  0.00  0.00    +0.002 A 
ATOM      9  C   LIG    1      -36.976  88.592  28.620  0.00  0.00    +0.000 A 
ATOM     10  C   LIG    1      -36.933  87.857  29.803  0.00  0.00    +0.002 A 
ATOM     11  C   LIG    1      -35.714  87.379  30.288  0.00  0.00    +0.028 A 
ENDBRANCH   3   6
BRANCH   4  12
ATOM     12  N   LIG    1      -33.411  84.701  29.323  0.00  0.00    -0.266 N 
ATOM     13  H   LIG    1      -33.315  84.487  28.341  0.00  0.00    +0.157 HD
ATOM     14  C   LIG    1      -34.286  83.890  30.140  0.00  0.00    +0.251 C 
ATOM     15  O   LIG    1      -34.475  84.147  31.312  0.00  0.00    -0.270 OA
BRANCH  14  16
ATOM     16  C   LIG    1      -34.997  82.751  29.505  0.00  0.00    +0.056 A 
ATOM     17  C   LIG    1      -36.359  82.725  29.259  0.00  0.00    +0.054 A 
ATOM     18 CL   LIG    1      -37.407  84.060  29.548  0.00  0.00    -0.083 Cl
ATOM     19  C   LIG    1      -36.937  81.590  28.693  0.00  0.00    +0.041 A 
ATOM     20  C   LIG    1      -36.159  80.480  28.328  0.00  0.00    +0.052 A 
ATOM     21 CL   LIG    1      -37.074  79.131  27.747  0.00  0.00    -0.083 Cl
ATOM     22  C   LIG    1      -34.759  80.494  28.472  0.00  0.00    +0.019 A 
ATOM     23  C   LIG    1      -34.210  81.647  29.099  0.00  0.00    +0.026 A 
BRANCH  22  24
ATOM     24  C   LIG    1      -33.824  79.432  28.000  0.00  0.00    +0.072 A 
ATOM     25  N   LIG    1      -33.235  79.679  26.799  0.00  0.00    -0.255 NA
ATOM     26  C   LIG    1      -32.450  78.716  26.256  0.00  0.00    +0.111 A 
ATOM     27  C   LIG    1      -32.208  77.492  26.849  0.00  0.00    +0.020 A 
ATOM     28  C   LIG    1      -32.800  77.242  28.074  0.00  0.00    +0.004 A 
ATOM     29  C   LIG    1      -33.618  78.214  28.650  0.00  0.00    +0.028 A 
ENDBRANCH  22  24
ENDBRANCH  14  16
ENDBRANCH   4  12
BRANCH   1  30
ATOM     30  C   LIG    1      -30.111  87.704  31.495  0.00  0.00    +0.236 C 
ATOM     31  N   LIG    1      -30.098  87.817  32.772  0.00  0.00    -0.241 NA
BRANCH  30  32
ATOM     32  O   LIG    1      -29.091  88.001  30.665  0.00  0.00    -0.491 OA
ATOM     33  H   LIG    1      -29.294  88.739  30.075  0.00  0.00    +0.294 HD
ENDBRANCH  30  32
BRANCH  31  34
ATOM     34  C   LIG    1      -28.925  88.317  33.473  0.00  0.00    +0.221 C 
BRANCH  34  35
ATOM     35  C   LIG    1      -28.309  87.244  34.281  0.00  0.00    +0.146 A 
ATOM     36  C   LIG    1      -27.138  87.112  34.992  0.00  0.00    +0.157 A 
ATOM     37  N   LIG    1      -27.077  85.867  35.568  0.00  0.00    -0.224 NA
ATOM     38  C   LIG    1      -28.194  85.296  35.181  0.00  0.00    +0.308 A 
ATOM     39  O   LIG    1      -29.001  86.067  34.399  0.00  0.00    -0.446 OA
ENDBRANCH  34  35
ENDBRANCH  31  34
ENDBRANCH   1  30
TORSDOF 8
ENDMDL
MODEL 2
REMARK VINA RESULT:      -6.5      9.555     14.271
REMARK  Name = pdb/CHEMBL3945591.pdb
REMARK                            x       y       z     vdW  Elec       q    Type
REMARK                         _______ _______ _______ _____ _____    ______ ____
ROOT
ATOM      1  C   LIG    1      -24.306  82.871  37.126  0.00  0.00    +0.149 A 
ATOM      2  N   LIG    1      -23.300  83.452  37.801  0.00  0.00    -0.160 NA
ATOM      3  N   LIG    1      -22.195  82.749  37.452  0.00  0.00    -0.218 N 
ATOM      4  C   LIG    1      -22.453  81.884  36.379  0.00  0.00    +0.129 A 
ATOM      5  C   LIG    1      -23.817  81.879  36.246  0.00  0.00    +0.078 A 
ENDROOT
BRANCH   3   6
ATOM      6  C   LIG    1      -20.987  82.921  38.178  0.00  0.00    +0.067 A 
ATOM      7  C   LIG    1      -20.512  81.895  39.009  0.00  0.00    +0.028 A 
ATOM      8  C   LIG    1      -19.302  82.055  39.691  0.00  0.00    +0.002 A 
ATOM      9  C   LIG    1      -18.551  83.218  39.523  0.00  0.00    +0.000 A 
ATOM     10  C   LIG    1      -19.007  84.226  38.676  0.00  0.00    +0.002 A 
ATOM     11  C   LIG    1      -20.222  84.081  38.004  0.00  0.00    +0.028 A 
ENDBRANCH   3   6
BRANCH   4  12
ATOM     12  N   LIG    1      -21.514  81.220  35.576  0.00  0.00    -0.266 N 
ATOM     13  H   LIG    1      -21.211  81.680  34.730  0.00  0.00    +0.157 HD
ATOM     14  C   LIG    1      -21.040  79.884  35.860  0.00  0.00    +0.251 C 
ATOM     15  O   LIG    1      -21.424  79.271  36.836  0.00  0.00    -0.270 OA
BRANCH  14  16
ATOM     16  C   LIG    1      -20.103  79.244  34.902  0.00  0.00    +0.056 A 
ATOM     17  C   LIG    1      -18.755  79.045  35.149  0.00  0.00    +0.054 A 
ATOM     18 CL   LIG    1      -17.997  79.403  36.652  0.00  0.00    -0.083 Cl
ATOM     19  C   LIG    1      -17.951  78.470  34.167  0.00  0.00    +0.041 A 
ATOM     20  C   LIG    1      -18.486  78.050  32.939  0.00  0.00    +0.052 A 
ATOM     21 CL   LIG    1      -17.310  77.467  31.812  0.00  0.00    -0.083 Cl
ATOM     22  C   LIG    1      -19.866  78.146  32.675  0.00  0.00    +0.019 A 
ATOM     23  C   LIG    1      -20.647  78.784  33.680  0.00  0.00    +0.026 A 
BRANCH  22  24
ATOM     24  C   LIG    1      -20.562  77.616  31.468  0.00  0.00    +0.072 A 
ATOM     25  N   LIG    1      -21.865  77.277  31.659  0.00  0.00    -0.255 NA
ATOM     26  C   LIG    1      -22.537  76.694  30.636  0.00  0.00    +0.111 A 
ATOM     27  C   LIG    1      -21.979  76.420  29.403  0.00  0.00    +0.020 A 
ATOM     28  C   LIG    1      -20.655  76.771  29.204  0.00  0.00    +0.004 A 
ATOM     29  C   LIG    1      -19.940  77.365  30.243  0.00  0.00    +0.028 A 
ENDBRANCH  22  24
ENDBRANCH  14  16
ENDBRANCH   4  12
BRANCH   1  30
ATOM     30  C   LIG    1      -25.700  83.282  37.266  0.00  0.00    +0.236 C 
ATOM     31  N   LIG    1      -26.213  84.064  36.390  0.00  0.00    -0.241 NA
BRANCH  30  32
ATOM     32  O   LIG    1      -26.339  82.764  38.335  0.00  0.00    -0.491 OA
ATOM     33  H   LIG    1      -26.958  82.062  38.094  0.00  0.00    +0.294 HD
ENDBRANCH  30  32
BRANCH  31  34
ATOM     34  C   LIG    1      -27.599  84.498  36.487  0.00  0.00    +0.221 C 
BRANCH  34  35
ATOM     35  C   LIG    1      -27.866  85.593  35.530  0.00  0.00    +0.146 A 
ATOM     36  C   LIG    1      -28.920  85.937  34.715  0.00  0.00    +0.157 A 
ATOM     37  N   LIG    1      -28.622  87.084  34.023  0.00  0.00    -0.224 NA
ATOM     38  C   LIG    1      -27.410  87.382  34.430  0.00  0.00    +0.308 A 
ATOM     39  O   LIG    1      -26.879  86.527  35.350  0.00  0.00    -0.446 OA
ENDBRANCH  34  35
ENDBRANCH  31  34
ENDBRANCH   1  30
TORSDOF 8
ENDMDL
MODEL 3
REMARK VINA RESULT:      -6.5      9.222     16.134
REMARK  Name = pdb/CHEMBL3945591.pdb
REMARK                            x       y       z     vdW  Elec       q    Type
REMARK                         _______ _______ _______ _____ _____    ______ ____
ROOT
ATOM      1  C   LIG    1      -36.167  69.127  25.002  0.00  0.00    +0.149 A 
ATOM      2  N   LIG    1      -37.073  70.096  24.792  0.00  0.00    -0.160 NA
ATOM      3  N   LIG    1      -36.651  71.137  25.551  0.00  0.00    -0.218 N 
ATOM      4  C   LIG    1      -35.358  70.921  26.049  0.00  0.00    +0.129 A 
ATOM      5  C   LIG    1      -35.096  69.600  25.794  0.00  0.00    +0.078 A 
ENDROOT
BRANCH   3   6
ATOM      6  C   LIG    1      -37.511  72.244  25.776  0.00  0.00    +0.067 A 
ATOM      7  C   LIG    1      -37.926  73.044  24.701  0.00  0.00    +0.028 A 
ATOM      8  C   LIG    1      -38.804  74.110  24.923  0.00  0.00    +0.002 A 
ATOM      9  C   LIG    1      -39.293  74.359  26.205  0.00  0.00    +0.000 A 
ATOM     10  C   LIG    1      -38.905  73.548  27.269  0.00  0.00    +0.002 A 
ATOM     11  C   LIG    1      -38.016  72.492  27.058  0.00  0.00    +0.028 A 
ENDBRANCH   3   6
BRANCH   4  12
ATOM     12  N   LIG    1      -34.497  71.867  26.623  0.00  0.00    -0.266 N 
ATOM     13  H   LIG    1      -33.839  72.333  26.015  0.00  0.00    +0.157 HD
ATOM     14  C   LIG    1      -34.453  72.131  28.044  0.00  0.00    +0.251 C 
ATOM     15  O   LIG    1      -35.186  71.549  28.818  0.00  0.00    -0.270 OA
BRANCH  14  16
ATOM     16  C   LIG    1      -33.450  73.099  28.556  0.00  0.00    +0.056 A 
ATOM     17  C   LIG    1      -32.330  72.744  29.288  0.00  0.00    +0.054 A 
ATOM     18 CL   LIG    1      -31.875  71.115  29.609  0.00  0.00    -0.083 Cl
ATOM     19  C   LIG    1      -31.469  73.735  29.757  0.00  0.00    +0.041 A 
ATOM     20  C   LIG    1      -31.692  75.091  29.470  0.00  0.00    +0.052 A 
ATOM     21 CL   LIG    1      -30.578  76.173  30.234  0.00  0.00    -0.083 Cl
ATOM     22  C   LIG    1      -32.765  75.495  28.652  0.00  0.00    +0.019 A 
ATOM     23  C   LIG    1      -33.650  74.462  28.235  0.00  0.00    +0.026 A 
BRANCH  22  24
ATOM     24  C   LIG    1      -33.022  76.885  28.175  0.00  0.00    +0.072 A 
ATOM     25  N   LIG    1      -32.332  77.245  27.060  0.00  0.00    -0.255 NA
ATOM     26  C   LIG    1      -32.435  78.524  26.623  0.00  0.00    +0.111 A 
ATOM     27  C   LIG    1      -33.202  79.492  27.242  0.00  0.00    +0.020 A 
ATOM     28  C   LIG    1      -33.911  79.125  28.372  0.00  0.00    +0.004 A 
ATOM     29  C   LIG    1      -33.815  77.817  28.847  0.00  0.00    +0.028 A 
ENDBRANCH  22  24
ENDBRANCH  14  16
ENDBRANCH   4  12
BRANCH   1  30
ATOM     30  C   LIG    1      -36.278  67.793  24.419  0.00  0.00    +0.236 C 
ATOM     31  N   LIG    1      -35.294  67.317  23.750  0.00  0.00    -0.241 NA
BRANCH  30  32
ATOM     32  O   LIG    1      -37.444  67.162  24.666  0.00  0.00    -0.491 OA
ATOM     33  H   LIG    1      -37.400  66.590  25.444  0.00  0.00    +0.294 HD
ENDBRANCH  30  32
BRANCH  31  34
ATOM     34  C   LIG    1      -35.358  65.992  23.153  0.00  0.00    +0.221 C 
BRANCH  34  35
ATOM     35  C   LIG    1      -34.598  65.958  21.885  0.00  0.00    +0.146 A 
ATOM     36  C   LIG    1      -34.579  65.132  20.785  0.00  0.00    +0.157 A 
ATOM     37  N   LIG    1      -33.655  65.584  19.876  0.00  0.00    -0.224 NA
ATOM     38  C   LIG    1      -33.149  66.647  20.456  0.00  0.00    +0.308 A 
ATOM     39  O   LIG    1      -33.671  66.946  21.680  0.00  0.00    -0.446 OA
ENDBRANCH  34  35
ENDBRANCH  31  34
ENDBRANCH   1  30
TORSDOF 8
ENDMDL
MODEL 4
REMARK VINA RESULT:      -6.4      6.688     10.959
REMARK  Name = pdb/CHEMBL3945591.pdb
REMARK                            x       y       z     vdW  Elec       q    Type
REMARK                         _______ _______ _______ _____ _____    ______ ____
ROOT
ATOM      1  C   LIG    1      -37.074  79.923  27.589  0.00  0.00    +0.149 A 
ATOM      2  N   LIG    1      -35.964  79.175  27.710  0.00  0.00    -0.160 NA
ATOM      3  N   LIG    1      -36.385  77.898  27.542  0.00  0.00    -0.218 N 
ATOM      4  C   LIG    1      -37.706  77.848  27.078  0.00  0.00    +0.129 A 
ATOM      5  C   LIG    1      -38.180  79.127  27.215  0.00  0.00    +0.078 A 
ENDROOT
BRANCH   3   6
ATOM      6  C   LIG    1      -35.519  76.819  27.864  0.00  0.00    +0.067 A 
ATOM      7  C   LIG    1      -35.953  75.802  28.728  0.00  0.00    +0.028 A 
ATOM      8  C   LIG    1      -35.111  74.722  29.011  0.00  0.00    +0.002 A 
ATOM      9  C   LIG    1      -33.854  74.638  28.412  0.00  0.00    +0.000 A 
ATOM     10  C   LIG    1      -33.433  75.632  27.532  0.00  0.00    +0.002 A 
ATOM     11  C   LIG    1      -34.262  76.722  27.256  0.00  0.00    +0.028 A 
ENDBRANCH   3   6
BRANCH   4  12
ATOM     12  N   LIG    1      -38.376  76.743  26.531  0.00  0.00    -0.266 N 
ATOM     13  H   LIG    1      -39.005  76.232  27.132  0.00  0.00    +0.157 HD
ATOM     14  C   LIG    1      -38.135  76.262  25.189  0.00  0.00    +0.251 C 
ATOM     15  O   LIG    1      -37.342  76.813  24.453  0.00  0.00    -0.270 OA
BRANCH  14  16
ATOM     16  C   LIG    1      -38.843  75.038  24.736  0.00  0.00    +0.056 A 
ATOM     17  C   LIG    1      -40.065  75.043  24.086  0.00  0.00    +0.054 A 
ATOM     18 CL   LIG    1      -40.884  76.478  23.603  0.00  0.00    -0.083 Cl
ATOM     19  C   LIG    1      -40.667  73.835  23.737  0.00  0.00    +0.041 A 
ATOM     20  C   LIG    1      -40.040  72.606  23.996  0.00  0.00    +0.052 A 
ATOM     21 CL   LIG    1      -40.994  71.221  23.590  0.00  0.00    -0.083 Cl
ATOM     22  C   LIG    1      -38.756  72.551  24.571  0.00  0.00    +0.019 A 
ATOM     23  C   LIG    1      -38.196  73.800  24.961  0.00  0.00    +0.026 A 
BRANCH  22  24
ATOM     24  C   LIG    1      -37.942  71.317  24.771  0.00  0.00    +0.072 A 
ATOM     25  N   LIG    1      -37.270  71.258  25.951  0.00  0.00    -0.255 NA
ATOM     26  C   LIG    1      -36.430  70.215  26.164  0.00  0.00    +0.111 A 
ATOM     27  C   LIG    1      -36.212  69.201  25.251  0.00  0.00    +0.020 A 
ATOM     28  C   LIG    1      -36.901  69.256  24.052  0.00  0.00    +0.004 A 
ATOM     29  C   LIG    1      -37.765  70.323  23.807  0.00  0.00    +0.028 A 
ENDBRANCH  22  24
ENDBRANCH  14  16
ENDBRANCH   4  12
BRANCH   1  30
ATOM     30  C   LIG    1      -37.082  81.372  27.770  0.00  0.00    +0.236 C 
ATOM     31  N   LIG    1      -36.120  82.068  27.285  0.00  0.00    -0.241 NA
BRANCH  30  32
ATOM     32  O   LIG    1      -38.148  81.854  28.439  0.00  0.00    -0.491 OA
ATOM     33  H   LIG    1      -38.506  81.221  29.075  0.00  0.00    +0.294 HD
ENDBRANCH  30  32
BRANCH  31  34
ATOM     34  C   LIG    1      -36.087  83.514  27.437  0.00  0.00    +0.221 C 
BRANCH  34  35
ATOM     35  C   LIG    1      -36.588  84.175  26.213  0.00  0.00    +0.146 A 
ATOM     36  C   LIG    1      -37.218  83.749  25.066  0.00  0.00    +0.157 A 
ATOM     37  N   LIG    1      -37.464  84.818  24.242  0.00  0.00    -0.224 NA
ATOM     38  C   LIG    1      -36.972  85.838  24.907  0.00  0.00    +0.308 A 
ATOM     39  O   LIG    1      -36.424  85.532  26.117  0.00  0.00    -0.446 OA
ENDBRANCH  34  35
ENDBRANCH  31  34
ENDBRANCH   1  30
TORSDOF 8
ENDMDL
MODEL 5
REMARK VINA RESULT:      -6.4      6.091     10.306
REMARK  Name = pdb/CHEMBL3945591.pdb
REMARK                            x       y       z     vdW  Elec       q    Type
REMARK                         _______ _______ _______ _____ _____    ______ ____
ROOT
ATOM      1  C   LIG    1      -36.119  79.447  27.844  0.00  0.00    +0.149 A 
ATOM      2  N   LIG    1      -35.183  78.532  28.147  0.00  0.00    -0.160 NA
ATOM      3  N   LIG    1      -35.803  77.337  27.990  0.00  0.00    -0.218 N 
ATOM      4  C   LIG    1      -37.047  77.480  27.359  0.00  0.00    +0.129 A 
ATOM      5  C   LIG    1      -37.297  78.828  27.368  0.00  0.00    +0.078 A 
ENDROOT
BRANCH   3   6
ATOM      6  C   LIG    1      -35.190  76.151  28.476  0.00  0.00    +0.067 A 
ATOM      7  C   LIG    1      -34.298  75.436  27.664  0.00  0.00    +0.028 A 
ATOM      8  C   LIG    1      -33.668  74.291  28.161  0.00  0.00    +0.002 A 
ATOM      9  C   LIG    1      -33.899  73.878  29.473  0.00  0.00    +0.000 A 
ATOM     10  C   LIG    1      -34.762  74.604  30.291  0.00  0.00    +0.002 A 
ATOM     11  C   LIG    1      -35.408  75.739  29.796  0.00  0.00    +0.028 A 
ENDBRANCH   3   6
BRANCH   4  12
ATOM     12  N   LIG    1      -37.833  76.470  26.786  0.00  0.00    -0.266 N 
ATOM     13  H   LIG    1      -38.417  75.924  27.402  0.00  0.00    +0.157 HD
ATOM     14  C   LIG    1      -37.773  76.127  25.383  0.00  0.00    +0.251 C 
ATOM     15  O   LIG    1      -37.040  76.721  24.617  0.00  0.00    -0.270 OA
BRANCH  14  16
ATOM     16  C   LIG    1      -38.593  74.990  24.894  0.00  0.00    +0.056 A 
ATOM     17  C   LIG    1      -39.810  75.130  24.250  0.00  0.00    +0.054 A 
ATOM     18 CL   LIG    1      -40.492  76.650  23.817  0.00  0.00    -0.083 Cl
ATOM     19  C   LIG    1      -40.523  73.995  23.865  0.00  0.00    +0.041 A 
ATOM     20  C   LIG    1      -40.013  72.705  24.082  0.00  0.00    +0.052 A 
ATOM     21 CL   LIG    1      -41.094  71.429  23.637  0.00  0.00    -0.083 Cl
ATOM     22  C   LIG    1      -38.739  72.512  24.649  0.00  0.00    +0.019 A 
ATOM     23  C   LIG    1      -38.064  73.690  25.076  0.00  0.00    +0.026 A 
BRANCH  22  24
ATOM     24  C   LIG    1      -38.044  71.201  24.805  0.00  0.00    +0.072 A 
ATOM     25  N   LIG    1      -37.653  70.907  26.074  0.00  0.00    -0.255 NA
ATOM     26  C   LIG    1      -36.927  69.781  26.281  0.00  0.00    +0.111 A 
ATOM     27  C   LIG    1      -36.556  68.907  25.277  0.00  0.00    +0.020 A 
ATOM     28  C   LIG    1      -36.960  69.201  23.986  0.00  0.00    +0.004 A 
ATOM     29  C   LIG    1      -37.701  70.358  23.747  0.00  0.00    +0.028 A 
ENDBRANCH  22  24
ENDBRANCH  14  16
ENDBRANCH   4  12
BRANCH   1  30
ATOM     30  C   LIG    1      -35.888  80.886  27.949  0.00  0.00    +0.236 C 
ATOM     31  N   LIG    1      -36.616  81.580  28.744  0.00  0.00    -0.241 NA
BRANCH  30  32
ATOM     32  O   LIG    1      -34.884  81.356  27.182  0.00  0.00    -0.491 OA
ATOM     33  H   LIG    1      -34.562  82.218  27.478  0.00  0.00    +0.294 HD
ENDBRANCH  30  32
BRANCH  31  34
ATOM     34  C   LIG    1      -36.422  83.015  28.883  0.00  0.00    +0.221 C 
BRANCH  34  35
ATOM     35  C   LIG    1      -35.427  83.302  29.939  0.00  0.00    +0.146 A 
ATOM     36  C   LIG    1      -34.087  83.613  29.955  0.00  0.00    +0.157 A 
ATOM     37  N   LIG    1      -33.661  83.784  31.248  0.00  0.00    -0.224 NA
ATOM     38  C   LIG    1      -34.742  83.565  31.959  0.00  0.00    +0.308 A 
ATOM     39  O   LIG    1      -35.861  83.268  31.239  0.00  0.00    -0.446 OA
ENDBRANCH  34  35
ENDBRANCH  31  34
ENDBRANCH   1  30
TORSDOF 8
ENDMDL
MODEL 6
REMARK VINA RESULT:      -6.2      9.044     13.176
REMARK  Name = pdb/CHEMBL3945591.pdb
REMARK                            x       y       z     vdW  Elec       q    Type
REMARK                         _______ _______ _______ _____ _____    ______ ____
ROOT
ATOM      1  C   LIG    1      -37.874  76.784  26.284  0.00  0.00    +0.149 A 
ATOM      2  N   LIG    1      -39.164  77.147  26.379  0.00  0.00    -0.160 NA
ATOM      3  N   LIG    1      -39.801  76.417  25.432  0.00  0.00    -0.218 N 
ATOM      4  C   LIG    1      -38.970  75.420  24.903  0.00  0.00    +0.129 A 
ATOM      5  C   LIG    1      -37.714  75.724  25.362  0.00  0.00    +0.078 A 
ENDROOT
BRANCH   3   6
ATOM      6  C   LIG    1      -41.138  76.736  25.073  0.00  0.00    +0.067 A 
ATOM      7  C   LIG    1      -41.409  77.345  23.839  0.00  0.00    +0.028 A 
ATOM      8  C   LIG    1      -42.731  77.621  23.474  0.00  0.00    +0.002 A 
ATOM      9  C   LIG    1      -43.781  77.263  24.319  0.00  0.00    +0.000 A 
ATOM     10  C   LIG    1      -43.515  76.631  25.532  0.00  0.00    +0.002 A 
ATOM     11  C   LIG    1      -42.197  76.367  25.911  0.00  0.00    +0.028 A 
ENDBRANCH   3   6
BRANCH   4  12
ATOM     12  N   LIG    1      -39.351  74.315  24.127  0.00  0.00    -0.266 N 
ATOM     13  H   LIG    1      -39.223  74.378  23.128  0.00  0.00    +0.157 HD
ATOM     14  C   LIG    1      -39.993  73.146  24.685  0.00  0.00    +0.251 C 
ATOM     15  O   LIG    1      -40.217  73.055  25.875  0.00  0.00    -0.270 OA
BRANCH  14  16
ATOM     16  C   LIG    1      -40.423  72.065  23.762  0.00  0.00    +0.056 A 
ATOM     17  C   LIG    1      -41.595  72.092  23.027  0.00  0.00    +0.054 A 
ATOM     18 CL   LIG    1      -42.666  73.440  22.986  0.00  0.00    -0.083 Cl
ATOM     19  C   LIG    1      -41.929  71.007  22.218  0.00  0.00    +0.041 A 
ATOM     20  C   LIG    1      -41.079  69.896  22.102  0.00  0.00    +0.052 A 
ATOM     21 CL   LIG    1      -41.720  68.607  21.141  0.00  0.00    -0.083 Cl
ATOM     22  C   LIG    1      -39.833  69.860  22.757  0.00  0.00    +0.019 A 
ATOM     23  C   LIG    1      -39.550  70.962  23.612  0.00  0.00    +0.026 A 
BRANCH  22  24
ATOM     24  C   LIG    1      -38.797  68.799  22.603  0.00  0.00    +0.072 A 
ATOM     25  N   LIG    1      -39.094  67.616  23.204  0.00  0.00    -0.255 NA
ATOM     26  C   LIG    1      -38.159  66.634  23.195  0.00  0.00    +0.111 A 
ATOM     27  C   LIG    1      -36.914  66.760  22.609  0.00  0.00    +0.020 A 
ATOM     28  C   LIG    1      -36.613  67.960  21.990  0.00  0.00    +0.004 A 
ATOM     29  C   LIG    1      -37.555  68.988  21.993  0.00  0.00    +0.028 A 
ENDBRANCH  22  24
ENDBRANCH  14  16
ENDBRANCH   4  12
BRANCH   1  30
ATOM     30  C   LIG    1      -36.815  77.386  27.089  0.00  0.00    +0.236 C 
ATOM     31  N   LIG    1      -35.905  76.635  27.590  0.00  0.00    -0.241 NA
BRANCH  30  32
ATOM     32  O   LIG    1      -36.894  78.726  27.219  0.00  0.00    -0.491 OA
ATOM     33  H   LIG    1      -36.912  79.010  28.142  0.00  0.00    +0.294 HD
ENDBRANCH  30  32
BRANCH  31  34
ATOM     34  C   LIG    1      -34.829  77.190  28.396  0.00  0.00    +0.221 C 
BRANCH  34  35
ATOM     35  C   LIG    1      -33.711  77.631  27.535  0.00  0.00    +0.146 A 
ATOM     36  C   LIG    1      -32.672  76.999  26.891  0.00  0.00    +0.157 A 
ATOM     37  N   LIG    1      -31.914  77.919  26.210  0.00  0.00    -0.224 NA
ATOM     38  C   LIG    1      -32.508  79.060  26.473  0.00  0.00    +0.308 A 
ATOM     39  O   LIG    1      -33.612  78.972  27.269  0.00  0.00    -0.446 OA
ENDBRANCH  34  35
ENDBRANCH  31  34
ENDBRANCH   1  30
TORSDOF 8
ENDMDL
MODEL 7
REMARK VINA RESULT:      -6.1     18.459     20.261
REMARK  Name = pdb/CHEMBL3945591.pdb
REMARK                            x       y       z     vdW  Elec       q    Type
REMARK                         _______ _______ _______ _____ _____    ______ ____
ROOT
ATOM      1  C   LIG    1      -22.041  82.559  15.546  0.00  0.00    +0.149 A 
ATOM      2  N   LIG    1      -20.813  82.100  15.253  0.00  0.00    -0.160 NA
ATOM      3  N   LIG    1      -20.884  80.763  15.456  0.00  0.00    -0.218 N 
ATOM      4  C   LIG    1      -22.207  80.339  15.641  0.00  0.00    +0.129 A 
ATOM      5  C   LIG    1      -22.929  81.492  15.810  0.00  0.00    +0.078 A 
ENDROOT
BRANCH   3   6
ATOM      6  C   LIG    1      -19.694  79.987  15.494  0.00  0.00    +0.067 A 
ATOM      7  C   LIG    1      -19.472  79.088  16.547  0.00  0.00    +0.028 A 
ATOM      8  C   LIG    1      -18.318  78.300  16.559  0.00  0.00    +0.002 A 
ATOM      9  C   LIG    1      -17.402  78.382  15.510  0.00  0.00    +0.000 A 
ATOM     10  C   LIG    1      -17.635  79.254  14.449  0.00  0.00    +0.002 A 
ATOM     11  C   LIG    1      -18.778  80.056  14.438  0.00  0.00    +0.028 A 
ENDBRANCH   3   6
BRANCH   4  12
ATOM     12  N   LIG    1      -22.695  79.024  15.597  0.00  0.00    -0.266 N 
ATOM     13  H   LIG    1      -23.074  78.636  16.449  0.00  0.00    +0.157 HD
ATOM     14  C   LIG    1      -22.595  78.187  14.423  0.00  0.00    +0.251 C 
ATOM     15  O   LIG    1      -22.094  78.596  13.395  0.00  0.00    -0.270 OA
BRANCH  14  16
ATOM     16  C   LIG    1      -23.076  76.784  14.508  0.00  0.00    +0.056 A 
ATOM     17  C   LIG    1      -23.958  76.209  13.609  0.00  0.00    +0.054 A 
ATOM     18 CL   LIG    1      -24.531  77.003  12.193  0.00  0.00    -0.083 Cl
ATOM     19  C   LIG    1      -24.380  74.895  13.800  0.00  0.00    +0.041 A 
ATOM     20  C   LIG    1      -23.899  74.122  14.869  0.00  0.00    +0.052 A 
ATOM     21 CL   LIG    1      -24.625  72.557  15.000  0.00  0.00    -0.083 Cl
ATOM     22  C   LIG    1      -22.931  74.630  15.757  0.00  0.00    +0.019 A 
ATOM     23  C   LIG    1      -22.563  75.991  15.561  0.00  0.00    +0.026 A 
BRANCH  22  24
ATOM     24  C   LIG    1      -22.255  73.863  16.842  0.00  0.00    +0.072 A 
ATOM     25  N   LIG    1      -20.988  73.460  16.556  0.00  0.00    -0.255 NA
ATOM     26  C   LIG    1      -20.343  72.672  17.451  0.00  0.00    +0.111 A 
ATOM     27  C   LIG    1      -20.896  72.249  18.644  0.00  0.00    +0.020 A 
ATOM     28  C   LIG    1      -22.182  72.664  18.941  0.00  0.00    +0.004 A 
ATOM     29  C   LIG    1      -22.869  73.469  18.033  0.00  0.00    +0.028 A 
ENDBRANCH  22  24
ENDBRANCH  14  16
ENDBRANCH   4  12
BRANCH   1  30
ATOM     30  C   LIG    1      -22.388  83.978  15.523  0.00  0.00    +0.236 C 
ATOM     31  N   LIG    1      -22.304  84.625  14.419  0.00  0.00    -0.241 NA
BRANCH  30  32
ATOM     32  O   LIG    1      -22.793  84.481  16.706  0.00  0.00    -0.491 OA
ATOM     33  H   LIG    1      -23.624  84.094  17.010  0.00  0.00    +0.294 HD
ENDBRANCH  30  32
BRANCH  31  34
ATOM     34  C   LIG    1      -22.642  86.038  14.348  0.00  0.00    +0.221 C 
BRANCH  34  35
ATOM     35  C   LIG    1      -21.471  86.827  13.909  0.00  0.00    +0.146 A 
ATOM     36  C   LIG    1      -20.326  87.288  14.517  0.00  0.00    +0.157 A 
ATOM     37  N   LIG    1      -19.564  87.985  13.613  0.00  0.00    -0.224 NA
ATOM     38  C   LIG    1      -20.271  87.930  12.508  0.00  0.00    +0.308 A 
ATOM     39  O   LIG    1      -21.444  87.241  12.603  0.00  0.00    -0.446 OA
ENDBRANCH  34  35
ENDBRANCH  31  34
ENDBRANCH   1  30
TORSDOF 8
ENDMDL
MODEL 8
REMARK VINA RESULT:      -6.1      9.238     14.742
REMARK  Name = pdb/CHEMBL3945591.pdb
REMARK                            x       y       z     vdW  Elec       q    Type
REMARK                         _______ _______ _______ _____ _____    ______ ____
ROOT
ATOM      1  C   LIG    1      -26.788  75.709  32.040  0.00  0.00    +0.149 A 
ATOM      2  N   LIG    1      -25.619  75.243  31.570  0.00  0.00    -0.160 NA
ATOM      3  N   LIG    1      -24.738  76.255  31.765  0.00  0.00    -0.218 N 
ATOM      4  C   LIG    1      -25.282  77.264  32.572  0.00  0.00    +0.129 A 
ATOM      5  C   LIG    1      -26.618  76.971  32.653  0.00  0.00    +0.078 A 
ENDROOT
BRANCH   3   6
ATOM      6  C   LIG    1      -23.459  76.209  31.147  0.00  0.00    +0.067 A 
ATOM      7  C   LIG    1      -23.216  76.943  29.978  0.00  0.00    +0.028 A 
ATOM      8  C   LIG    1      -21.945  76.926  29.395  0.00  0.00    +0.002 A 
ATOM      9  C   LIG    1      -20.910  76.206  29.994  0.00  0.00    +0.000 A 
ATOM     10  C   LIG    1      -21.143  75.499  31.171  0.00  0.00    +0.002 A 
ATOM     11  C   LIG    1      -22.414  75.499  31.750  0.00  0.00    +0.028 A 
ENDBRANCH   3   6
BRANCH   4  12
ATOM     12  N   LIG    1      -24.595  78.308  33.209  0.00  0.00    -0.266 N 
ATOM     13  H   LIG    1      -24.674  79.232  32.812  0.00  0.00    +0.157 HD
ATOM     14  C   LIG    1      -23.721  78.098  34.341  0.00  0.00    +0.251 C 
ATOM     15  O   LIG    1      -23.552  76.992  34.814  0.00  0.00    -0.270 OA
BRANCH  14  16
ATOM     16  C   LIG    1      -22.983  79.263  34.894  0.00  0.00    +0.056 A 
ATOM     17  C   LIG    1      -21.675  79.579  34.570  0.00  0.00    +0.054 A 
ATOM     18 CL   LIG    1      -20.753  78.733  33.388  0.00  0.00    -0.083 Cl
ATOM     19  C   LIG    1      -21.059  80.673  35.175  0.00  0.00    +0.041 A 
ATOM     20  C   LIG    1      -21.751  81.491  36.083  0.00  0.00    +0.052 A 
ATOM     21 CL   LIG    1      -20.783  82.727  36.809  0.00  0.00    -0.083 Cl
ATOM     22  C   LIG    1      -23.110  81.266  36.374  0.00  0.00    +0.019 A 
ATOM     23  C   LIG    1      -23.691  80.111  35.778  0.00  0.00    +0.026 A 
BRANCH  22  24
ATOM     24  C   LIG    1      -23.978  82.141  37.214  0.00  0.00    +0.072 A 
ATOM     25  N   LIG    1      -23.706  82.108  38.547  0.00  0.00    -0.255 NA
ATOM     26  C   LIG    1      -24.516  82.798  39.387  0.00  0.00    +0.111 A 
ATOM     27  C   LIG    1      -25.607  83.538  38.973  0.00  0.00    +0.020 A 
ATOM     28  C   LIG    1      -25.880  83.579  37.617  0.00  0.00    +0.004 A 
ATOM     29  C   LIG    1      -25.066  82.871  36.733  0.00  0.00    +0.028 A 
ENDBRANCH  22  24
ENDBRANCH  14  16
ENDBRANCH   4  12
BRANCH   1  30
ATOM     30  C   LIG    1      -28.035  74.954  31.963  0.00  0.00    +0.236 C 
ATOM     31  N   LIG    1      -29.129  75.576  31.719  0.00  0.00    -0.241 NA
BRANCH  30  32
ATOM     32  O   LIG    1      -27.905  73.625  32.146  0.00  0.00    -0.491 OA
ATOM     33  H   LIG    1      -28.135  73.349  33.043  0.00  0.00    +0.294 HD
ENDBRANCH  30  32
BRANCH  31  34
ATOM     34  C   LIG    1      -30.396  74.865  31.630  0.00  0.00    +0.221 C 
BRANCH  34  35
ATOM     35  C   LIG    1      -31.238  75.442  30.561  0.00  0.00    +0.146 A 
ATOM     36  C   LIG    1      -32.568  75.353  30.216  0.00  0.00    +0.157 A 
ATOM     37  N   LIG    1      -32.815  76.119  29.104  0.00  0.00    -0.224 NA
ATOM     38  C   LIG    1      -31.640  76.628  28.814  0.00  0.00    +0.308 A 
ATOM     39  O   LIG    1      -30.627  76.268  29.654  0.00  0.00    -0.446 OA
ENDBRANCH  34  35
ENDBRANCH  31  34
ENDBRANCH   1  30
TORSDOF 8
ENDMDL
MODEL 9
REMARK VINA RESULT:      -6.1     18.132     19.828
REMARK  Name = pdb/CHEMBL3945591.pdb
REMARK                            x       y       z     vdW  Elec       q    Type
REMARK                         _______ _______ _______ _____ _____    ______ ____
ROOT
ATOM      1  C   LIG    1      -22.936  81.427  15.466  0.00  0.00    +0.149 A 
ATOM      2  N   LIG    1      -22.054  80.414  15.436  0.00  0.00    -0.160 NA
ATOM      3  N   LIG    1      -22.759  79.354  14.971  0.00  0.00    -0.218 N 
ATOM      4  C   LIG    1      -24.012  79.744  14.478  0.00  0.00    +0.129 A 
ATOM      5  C   LIG    1      -24.169  81.040  14.894  0.00  0.00    +0.078 A 
ENDROOT
BRANCH   3   6
ATOM      6  C   LIG    1      -22.211  78.046  15.057  0.00  0.00    +0.067 A 
ATOM      7  C   LIG    1      -20.825  77.856  14.959  0.00  0.00    +0.028 A 
ATOM      8  C   LIG    1      -20.287  76.571  15.082  0.00  0.00    +0.002 A 
ATOM      9  C   LIG    1      -21.122  75.483  15.335  0.00  0.00    +0.000 A 
ATOM     10  C   LIG    1      -22.496  75.674  15.461  0.00  0.00    +0.002 A 
ATOM     11  C   LIG    1      -23.043  76.952  15.323  0.00  0.00    +0.028 A 
ENDBRANCH   3   6
BRANCH   4  12
ATOM     12  N   LIG    1      -24.885  78.992  13.678  0.00  0.00    -0.266 N 
ATOM     13  H   LIG    1      -24.739  79.010  12.680  0.00  0.00    +0.157 HD
ATOM     14  C   LIG    1      -26.023  78.276  14.212  0.00  0.00    +0.251 C 
ATOM     15  O   LIG    1      -26.268  78.276  15.402  0.00  0.00    -0.270 OA
BRANCH  14  16
ATOM     16  C   LIG    1      -26.926  77.573  13.267  0.00  0.00    +0.056 A 
ATOM     17  C   LIG    1      -26.913  76.206  13.051  0.00  0.00    +0.054 A 
ATOM     18 CL   LIG    1      -25.926  75.109  13.937  0.00  0.00    -0.083 Cl
ATOM     19  C   LIG    1      -27.777  75.647  12.110  0.00  0.00    +0.041 A 
ATOM     20  C   LIG    1      -28.694  76.438  11.400  0.00  0.00    +0.052 A 
ATOM     21 CL   LIG    1      -29.598  75.578  10.201  0.00  0.00    -0.083 Cl
ATOM     22  C   LIG    1      -28.810  77.819  11.651  0.00  0.00    +0.019 A 
ATOM     23  C   LIG    1      -27.878  78.363  12.579  0.00  0.00    +0.026 A 
BRANCH  22  24
ATOM     24  C   LIG    1      -29.830  78.730  11.056  0.00  0.00    +0.072 A 
ATOM     25  N   LIG    1      -30.871  79.038  11.876  0.00  0.00    -0.255 NA
ATOM     26  C   LIG    1      -31.890  79.779  11.374  0.00  0.00    +0.111 A 
ATOM     27  C   LIG    1      -31.938  80.245  10.075  0.00  0.00    +0.020 A 
ATOM     28  C   LIG    1      -30.876  79.939   9.242  0.00  0.00    +0.004 A 
ATOM     29  C   LIG    1      -29.820  79.171   9.732  0.00  0.00    +0.028 A 
ENDBRANCH  22  24
ENDBRANCH  14  16
ENDBRANCH   4  12
BRANCH   1  30
ATOM     30  C   LIG    1      -22.605  82.756  15.973  0.00  0.00    +0.236 C 
ATOM     31  N   LIG    1      -22.787  83.777  15.219  0.00  0.00    -0.241 NA
BRANCH  30  32
ATOM     32  O   LIG    1      -22.137  82.780  17.237  0.00  0.00    -0.491 OA
ATOM     33  H   LIG    1      -22.309  83.621  17.681  0.00  0.00    +0.294 HD
ENDBRANCH  30  32
BRANCH  31  34
ATOM     34  C   LIG    1      -22.475  85.120  15.681  0.00  0.00    +0.221 C 
BRANCH  34  35
ATOM     35  C   LIG    1      -22.100  85.985  14.542  0.00  0.00    +0.146 A 
ATOM     36  C   LIG    1      -20.914  86.359  13.953  0.00  0.00    +0.157 A 
ATOM     37  N   LIG    1      -21.160  87.201  12.898  0.00  0.00    -0.224 NA
ATOM     38  C   LIG    1      -22.468  87.313  12.893  0.00  0.00    +0.308 A 
ATOM     39  O   LIG    1      -23.116  86.602  13.859  0.00  0.00    -0.446 OA
ENDBRANCH  34  35
ENDBRANCH  31  34
ENDBRANCH   1  30
TORSDOF 8
ENDMDL
