MODEL 1
REMARK VINA RESULT:      -6.6      0.000      0.000
REMARK  Name = pdb/CHEMBL3678299.pdb
REMARK                            x       y       z     vdW  Elec       q    Type
REMARK                         _______ _______ _______ _____ _____    ______ ____
ROOT
ATOM      1  C   LIG    1      -35.694  85.214  28.276  0.00  0.00    +0.162 A 
ATOM      2  C   LIG    1      -35.169  84.002  28.748  0.00  0.00    +0.162 A 
ATOM      3  C   LIG    1      -34.034  84.037  29.571  0.00  0.00    +0.050 A 
ATOM      4  C   LIG    1      -33.362  85.235  29.829  0.00  0.00    +0.009 A 
ATOM      5  C   LIG    1      -33.810  86.437  29.276  0.00  0.00    -0.021 A 
ATOM      6  C   LIG    1      -35.008  86.411  28.543  0.00  0.00    +0.055 A 
ENDROOT
BRANCH   1   8
ATOM      7  C   LIG    1      -37.079  86.711  27.020  0.00  0.00    +0.277 C 
ATOM      8  O   LIG    1      -36.856  85.429  27.584  0.00  0.00    -0.491 OA
ENDBRANCH   1   8
BRANCH   5   9
ATOM      9  C   LIG    1      -33.087  87.760  29.480  0.00  0.00    +0.117 C 
ATOM     10  C   LIG    1      -33.772  88.908  28.736  0.00  0.00    +0.036 C 
BRANCH   9  11
ATOM     11  N   LIG    1      -32.807  88.029  30.890  0.00  0.00    -0.308 N 
ATOM     12  C   LIG    1      -31.595  88.037  31.529  0.00  0.00    +0.161 A 
ATOM     13  N   LIG    1      -30.373  87.859  30.988  0.00  0.00    -0.235 NA
ATOM     14  C   LIG    1      -29.383  87.913  31.916  0.00  0.00    +0.121 A 
ATOM     15  C   LIG    1      -29.537  88.126  33.291  0.00  0.00    +0.005 A 
ATOM     16  C   LIG    1      -30.836  88.321  33.782  0.00  0.00    +0.041 A 
ATOM     17  C   LIG    1      -31.896  88.274  32.866  0.00  0.00    +0.108 A 
ATOM     18  N   LIG    1      -33.247  88.422  33.046  0.00  0.00    -0.234 NA
ATOM     19  C   LIG    1      -33.765  88.275  31.845  0.00  0.00    +0.202 A 
BRANCH  15  20
ATOM     20  C   LIG    1      -28.384  88.140  34.170  0.00  0.00    +0.021 A 
ATOM     21  C   LIG    1      -27.991  89.211  34.946  0.00  0.00    +0.116 A 
ATOM     22  N   LIG    1      -26.890  88.801  35.642  0.00  0.00    -0.274 N 
ATOM     23  C   LIG    1      -26.128  89.577  36.589  0.00  0.00    +0.172 C 
ATOM     24  N   LIG    1      -26.528  87.534  35.372  0.00  0.00    -0.179 NA
ATOM     25  C   LIG    1      -27.439  87.133  34.481  0.00  0.00    +0.143 A 
ENDBRANCH  15  20
ENDBRANCH   9  11
ENDBRANCH   5   9
BRANCH   2  26
ATOM     26  O   LIG    1      -35.797  82.824  28.436  0.00  0.00    -0.484 OA
BRANCH  26  27
ATOM     27  C   LIG    1      -35.731  81.801  29.435  0.00  0.00    +0.266 C 
BRANCH  27  28
ATOM     28  C   LIG    1      -34.951  80.630  28.903  0.00  0.00    +0.008 A 
ATOM     29  C   LIG    1      -34.465  80.642  27.603  0.00  0.00    +0.118 A 
ATOM     30  N   LIG    1      -33.730  79.648  27.053  0.00  0.00    -0.251 NA
ATOM     31  C   LIG    1      -33.439  78.568  27.832  0.00  0.00    +0.144 A 
ATOM     32  C   LIG    1      -33.878  78.484  29.155  0.00  0.00    +0.033 A 
ATOM     33  C   LIG    1      -34.639  79.524  29.691  0.00  0.00    +0.010 A 
BRANCH  31  34
ATOM     34  C   LIG    1      -32.624  77.430  27.228  0.00  0.00    +0.434 C 
ATOM     35  F   LIG    1      -31.749  76.866  28.110  0.00  0.00    -0.164 F 
ATOM     36  F   LIG    1      -31.881  77.820  26.153  0.00  0.00    -0.164 F 
ATOM     37  F   LIG    1      -33.397  76.395  26.777  0.00  0.00    -0.164 F 
ENDBRANCH  31  34
ENDBRANCH  27  28
ENDBRANCH  26  27
ENDBRANCH   2  26
TORSDOF 8
ENDMDL
MODEL 2
REMARK VINA RESULT:      -6.4     18.681     21.286
REMARK  Name = pdb/CHEMBL3678299.pdb
REMARK                            x       y       z     vdW  Elec       q    Type
REMARK                         _______ _______ _______ _____ _____    ______ ____
ROOT
ATOM      1  C   LIG    1      -24.805  89.611  11.000  0.00  0.00    +0.162 A 
ATOM      2  C   LIG    1      -24.425  90.943  10.790  0.00  0.00    +0.162 A 
ATOM      3  C   LIG    1      -23.060  91.266  10.827  0.00  0.00    +0.050 A 
ATOM      4  C   LIG    1      -22.099  90.314  11.179  0.00  0.00    +0.009 A 
ATOM      5  C   LIG    1      -22.474  89.008  11.498  0.00  0.00    -0.021 A 
ATOM      6  C   LIG    1      -23.828  88.664  11.354  0.00  0.00    +0.055 A 
ENDROOT
BRANCH   1   8
ATOM      7  C   LIG    1      -26.342  88.313   9.699  0.00  0.00    +0.277 C 
ATOM      8  O   LIG    1      -26.048  89.048  10.876  0.00  0.00    -0.491 OA
ENDBRANCH   1   8
BRANCH   5   9
ATOM      9  C   LIG    1      -21.477  87.946  11.940  0.00  0.00    +0.117 C 
ATOM     10  C   LIG    1      -20.030  88.407  11.754  0.00  0.00    +0.036 C 
BRANCH   9  11
ATOM     11  N   LIG    1      -21.782  87.416  13.269  0.00  0.00    -0.308 N 
ATOM     12  C   LIG    1      -21.952  86.109  13.643  0.00  0.00    +0.161 A 
ATOM     13  N   LIG    1      -21.817  85.005  12.880  0.00  0.00    -0.235 NA
ATOM     14  C   LIG    1      -22.077  83.865  13.570  0.00  0.00    +0.121 A 
ATOM     15  C   LIG    1      -22.446  83.768  14.917  0.00  0.00    +0.005 A 
ATOM     16  C   LIG    1      -22.552  84.957  15.654  0.00  0.00    +0.041 A 
ATOM     17  C   LIG    1      -22.295  86.164  14.989  0.00  0.00    +0.108 A 
ATOM     18  N   LIG    1      -22.321  87.459  15.437  0.00  0.00    -0.234 NA
ATOM     19  C   LIG    1      -22.004  88.186  14.386  0.00  0.00    +0.202 A 
BRANCH  15  20
ATOM     20  C   LIG    1      -22.713  82.476  15.518  0.00  0.00    +0.021 A 
ATOM     21  C   LIG    1      -23.595  81.538  15.022  0.00  0.00    +0.116 A 
ATOM     22  N   LIG    1      -23.523  80.460  15.857  0.00  0.00    -0.274 N 
ATOM     23  C   LIG    1      -24.262  79.227  15.741  0.00  0.00    +0.172 C 
ATOM     24  N   LIG    1      -22.658  80.627  16.873  0.00  0.00    -0.179 NA
ATOM     25  C   LIG    1      -22.163  81.851  16.663  0.00  0.00    +0.143 A 
ENDBRANCH  15  20
ENDBRANCH   9  11
ENDBRANCH   5   9
BRANCH   2  26
ATOM     26  O   LIG    1      -25.380  91.886  10.509  0.00  0.00    -0.484 OA
BRANCH  26  27
ATOM     27  C   LIG    1      -25.178  93.173  11.103  0.00  0.00    +0.266 C 
BRANCH  27  28
ATOM     28  C   LIG    1      -26.205  93.396  12.178  0.00  0.00    +0.008 A 
ATOM     29  C   LIG    1      -27.032  94.511  12.140  0.00  0.00    +0.118 A 
ATOM     30  N   LIG    1      -28.000  94.774  13.047  0.00  0.00    -0.251 NA
ATOM     31  C   LIG    1      -28.185  93.878  14.058  0.00  0.00    +0.144 A 
ATOM     32  C   LIG    1      -27.406  92.723  14.160  0.00  0.00    +0.033 A 
ATOM     33  C   LIG    1      -26.410  92.484  13.211  0.00  0.00    +0.010 A 
BRANCH  31  34
ATOM     34  C   LIG    1      -29.263  94.162  15.098  0.00  0.00    +0.434 C 
ATOM     35  F   LIG    1      -30.304  94.895  14.608  0.00  0.00    -0.164 F 
ATOM     36  F   LIG    1      -28.792  94.847  16.179  0.00  0.00    -0.164 F 
ATOM     37  F   LIG    1      -29.830  93.027  15.609  0.00  0.00    -0.164 F 
ENDBRANCH  31  34
ENDBRANCH  27  28
ENDBRANCH  26  27
ENDBRANCH   2  26
TORSDOF 8
ENDMDL
MODEL 3
REMARK VINA RESULT:      -6.3     19.037     20.838
REMARK  Name = pdb/CHEMBL3678299.pdb
REMARK                            x       y       z     vdW  Elec       q    Type
REMARK                         _______ _______ _______ _____ _____    ______ ____
ROOT
ATOM      1  C   LIG    1      -22.616  71.280  16.588  0.00  0.00    +0.162 A 
ATOM      2  C   LIG    1      -23.483  71.702  17.604  0.00  0.00    +0.162 A 
ATOM      3  C   LIG    1      -22.935  72.286  18.756  0.00  0.00    +0.050 A 
ATOM      4  C   LIG    1      -21.553  72.346  18.951  0.00  0.00    +0.009 A 
ATOM      5  C   LIG    1      -20.676  71.829  17.994  0.00  0.00    -0.021 A 
ATOM      6  C   LIG    1      -21.227  71.346  16.797  0.00  0.00    +0.055 A 
ENDROOT
BRANCH   1   8
ATOM      7  C   LIG    1      -22.792  71.700  14.236  0.00  0.00    +0.277 C 
ATOM      8  O   LIG    1      -22.927  70.817  15.337  0.00  0.00    -0.491 OA
ENDBRANCH   1   8
BRANCH   5   9
ATOM      9  C   LIG    1      -19.165  71.819  18.179  0.00  0.00    +0.117 C 
ATOM     10  C   LIG    1      -18.446  71.188  16.985  0.00  0.00    +0.036 C 
BRANCH   9  11
ATOM     11  N   LIG    1      -18.646  73.126  18.582  0.00  0.00    -0.308 N 
ATOM     12  C   LIG    1      -18.695  74.309  17.892  0.00  0.00    +0.161 A 
ATOM     13  N   LIG    1      -19.290  74.552  16.707  0.00  0.00    -0.235 NA
ATOM     14  C   LIG    1      -19.130  75.838  16.301  0.00  0.00    +0.121 A 
ATOM     15  C   LIG    1      -18.442  76.850  16.983  0.00  0.00    +0.005 A 
ATOM     16  C   LIG    1      -17.863  76.530  18.218  0.00  0.00    +0.041 A 
ATOM     17  C   LIG    1      -17.996  75.214  18.683  0.00  0.00    +0.108 A 
ATOM     18  N   LIG    1      -17.544  74.616  19.830  0.00  0.00    -0.234 NA
ATOM     19  C   LIG    1      -17.952  73.368  19.744  0.00  0.00    +0.202 A 
BRANCH  15  20
ATOM     20  C   LIG    1      -18.337  78.180  16.416  0.00  0.00    +0.021 A 
ATOM     21  C   LIG    1      -17.344  78.598  15.552  0.00  0.00    +0.116 A 
ATOM     22  N   LIG    1      -17.630  79.894  15.233  0.00  0.00    -0.274 N 
ATOM     23  C   LIG    1      -16.875  80.753  14.354  0.00  0.00    +0.172 C 
ATOM     24  N   LIG    1      -18.740  80.361  15.832  0.00  0.00    -0.179 NA
ATOM     25  C   LIG    1      -19.171  79.317  16.547  0.00  0.00    +0.143 A 
ENDBRANCH  15  20
ENDBRANCH   9  11
ENDBRANCH   5   9
BRANCH   2  26
ATOM     26  O   LIG    1      -24.839  71.581  17.434  0.00  0.00    -0.484 OA
BRANCH  26  27
ATOM     27  C   LIG    1      -25.470  70.544  18.193  0.00  0.00    +0.266 C 
BRANCH  27  28
ATOM     28  C   LIG    1      -26.964  70.681  18.082  0.00  0.00    +0.008 A 
ATOM     29  C   LIG    1      -27.530  71.364  17.014  0.00  0.00    +0.118 A 
ATOM     30  N   LIG    1      -28.861  71.510  16.820  0.00  0.00    -0.251 NA
ATOM     31  C   LIG    1      -29.702  70.938  17.728  0.00  0.00    +0.144 A 
ATOM     32  C   LIG    1      -29.214  70.221  18.823  0.00  0.00    +0.033 A 
ATOM     33  C   LIG    1      -27.834  70.093  18.998  0.00  0.00    +0.010 A 
BRANCH  31  34
ATOM     34  C   LIG    1      -31.205  71.101  17.535  0.00  0.00    +0.434 C 
ATOM     35  F   LIG    1      -31.746  72.076  18.321  0.00  0.00    -0.164 F 
ATOM     36  F   LIG    1      -31.904  69.962  17.808  0.00  0.00    -0.164 F 
ATOM     37  F   LIG    1      -31.549  71.439  16.255  0.00  0.00    -0.164 F 
ENDBRANCH  31  34
ENDBRANCH  27  28
ENDBRANCH  26  27
ENDBRANCH   2  26
TORSDOF 8
ENDMDL
MODEL 4
REMARK VINA RESULT:      -6.2     13.843     20.211
REMARK  Name = pdb/CHEMBL3678299.pdb
REMARK                            x       y       z     vdW  Elec       q    Type
REMARK                         _______ _______ _______ _____ _____    ______ ____
ROOT
ATOM      1  C   LIG    1      -36.623  68.328  23.710  0.00  0.00    +0.162 A 
ATOM      2  C   LIG    1      -37.384  69.430  23.298  0.00  0.00    +0.162 A 
ATOM      3  C   LIG    1      -38.013  69.381  22.044  0.00  0.00    +0.050 A 
ATOM      4  C   LIG    1      -37.800  68.314  21.167  0.00  0.00    +0.009 A 
ATOM      5  C   LIG    1      -36.955  67.260  21.520  0.00  0.00    -0.021 A 
ATOM      6  C   LIG    1      -36.416  67.262  22.817  0.00  0.00    +0.055 A 
ENDROOT
BRANCH   1   8
ATOM      7  C   LIG    1      -34.687  68.475  25.113  0.00  0.00    +0.277 C 
ATOM      8  O   LIG    1      -36.042  68.099  24.929  0.00  0.00    -0.491 OA
ENDBRANCH   1   8
BRANCH   5   9
ATOM      9  C   LIG    1      -36.645  66.101  20.584  0.00  0.00    +0.117 C 
ATOM     10  C   LIG    1      -37.884  65.253  20.290  0.00  0.00    +0.036 C 
BRANCH   9  11
ATOM     11  N   LIG    1      -35.904  66.529  19.397  0.00  0.00    -0.308 N 
ATOM     12  C   LIG    1      -34.555  66.733  19.266  0.00  0.00    +0.161 A 
ATOM     13  N   LIG    1      -33.593  66.527  20.188  0.00  0.00    -0.235 NA
ATOM     14  C   LIG    1      -32.357  66.851  19.727  0.00  0.00    +0.121 A 
ATOM     15  C   LIG    1      -32.042  67.345  18.455  0.00  0.00    +0.005 A 
ATOM     16  C   LIG    1      -33.092  67.519  17.542  0.00  0.00    +0.041 A 
ATOM     17  C   LIG    1      -34.389  67.201  17.967  0.00  0.00    +0.108 A 
ATOM     18  N   LIG    1      -35.591  67.269  17.312  0.00  0.00    -0.234 NA
ATOM     19  C   LIG    1      -36.479  66.855  18.192  0.00  0.00    +0.202 A 
BRANCH  15  20
ATOM     20  C   LIG    1      -30.672  67.666  18.107  0.00  0.00    +0.021 A 
ATOM     21  C   LIG    1      -29.556  67.210  18.780  0.00  0.00    +0.116 A 
ATOM     22  N   LIG    1      -28.473  67.713  18.116  0.00  0.00    -0.274 N 
ATOM     23  C   LIG    1      -27.085  67.503  18.446  0.00  0.00    +0.172 C 
ATOM     24  N   LIG    1      -28.800  68.472  17.056  0.00  0.00    -0.179 NA
ATOM     25  C   LIG    1      -30.137  68.440  17.050  0.00  0.00    +0.143 A 
ENDBRANCH  15  20
ENDBRANCH   9  11
ENDBRANCH   5   9
BRANCH   2  26
ATOM     26  O   LIG    1      -37.537  70.502  24.138  0.00  0.00    -0.484 OA
BRANCH  26  27
ATOM     27  C   LIG    1      -38.883  70.818  24.507  0.00  0.00    +0.266 C 
BRANCH  27  28
ATOM     28  C   LIG    1      -39.069  72.310  24.497  0.00  0.00    +0.008 A 
ATOM     29  C   LIG    1      -38.065  73.147  24.965  0.00  0.00    +0.118 A 
ATOM     30  N   LIG    1      -38.135  74.498  24.965  0.00  0.00    -0.251 NA
ATOM     31  C   LIG    1      -39.263  75.076  24.462  0.00  0.00    +0.144 A 
ATOM     32  C   LIG    1      -40.314  74.306  23.957  0.00  0.00    +0.033 A 
ATOM     33  C   LIG    1      -40.213  72.913  23.977  0.00  0.00    +0.010 A 
BRANCH  31  34
ATOM     34  C   LIG    1      -39.368  76.596  24.465  0.00  0.00    +0.434 C 
ATOM     35  F   LIG    1      -39.168  77.148  25.696  0.00  0.00    -0.164 F 
ATOM     36  F   LIG    1      -40.583  77.047  24.039  0.00  0.00    -0.164 F 
ATOM     37  F   LIG    1      -38.452  77.200  23.647  0.00  0.00    -0.164 F 
ENDBRANCH  31  34
ENDBRANCH  27  28
ENDBRANCH  26  27
ENDBRANCH   2  26
TORSDOF 8
ENDMDL
MODEL 5
REMARK VINA RESULT:      -6.2      9.369     15.169
REMARK  Name = pdb/CHEMBL3678299.pdb
REMARK                            x       y       z     vdW  Elec       q    Type
REMARK                         _______ _______ _______ _____ _____    ______ ____
ROOT
ATOM      1  C   LIG    1      -35.842  70.004  25.892  0.00  0.00    +0.162 A 
ATOM      2  C   LIG    1      -34.812  69.221  25.354  0.00  0.00    +0.162 A 
ATOM      3  C   LIG    1      -33.749  68.844  26.188  0.00  0.00    +0.050 A 
ATOM      4  C   LIG    1      -33.647  69.326  27.496  0.00  0.00    +0.009 A 
ATOM      5  C   LIG    1      -34.610  70.197  28.011  0.00  0.00    -0.021 A 
ATOM      6  C   LIG    1      -35.726  70.483  27.209  0.00  0.00    +0.055 A 
ENDROOT
BRANCH   1   8
ATOM      7  C   LIG    1      -37.572  71.640  25.631  0.00  0.00    +0.277 C 
ATOM      8  O   LIG    1      -37.028  70.370  25.313  0.00  0.00    -0.491 OA
ENDBRANCH   1   8
BRANCH   5   9
ATOM      9  C   LIG    1      -34.520  70.795  29.407  0.00  0.00    +0.117 C 
ATOM     10  C   LIG    1      -34.312  69.722  30.478  0.00  0.00    +0.036 C 
BRANCH   9  11
ATOM     11  N   LIG    1      -33.579  71.913  29.474  0.00  0.00    -0.308 N 
ATOM     12  C   LIG    1      -33.740  73.187  28.997  0.00  0.00    +0.161 A 
ATOM     13  N   LIG    1      -34.830  73.720  28.411  0.00  0.00    -0.235 NA
ATOM     14  C   LIG    1      -34.640  75.014  28.042  0.00  0.00    +0.121 A 
ATOM     15  C   LIG    1      -33.475  75.770  28.220  0.00  0.00    +0.005 A 
ATOM     16  C   LIG    1      -32.385  75.156  28.853  0.00  0.00    +0.041 A 
ATOM     17  C   LIG    1      -32.528  73.820  29.253  0.00  0.00    +0.108 A 
ATOM     18  N   LIG    1      -31.653  72.971  29.879  0.00  0.00    -0.234 NA
ATOM     19  C   LIG    1      -32.313  71.838  30.003  0.00  0.00    +0.202 A 
BRANCH  15  20
ATOM     20  C   LIG    1      -33.409  77.143  27.756  0.00  0.00    +0.021 A 
ATOM     21  C   LIG    1      -34.246  78.160  28.169  0.00  0.00    +0.116 A 
ATOM     22  N   LIG    1      -33.828  79.289  27.524  0.00  0.00    -0.274 N 
ATOM     23  C   LIG    1      -34.396  80.610  27.641  0.00  0.00    +0.172 C 
ATOM     24  N   LIG    1      -32.777  79.083  26.711  0.00  0.00    -0.179 NA
ATOM     25  C   LIG    1      -32.521  77.779  26.857  0.00  0.00    +0.143 A 
ENDBRANCH  15  20
ENDBRANCH   9  11
ENDBRANCH   5   9
BRANCH   2  26
ATOM     26  O   LIG    1      -34.886  68.804  24.050  0.00  0.00    -0.484 OA
BRANCH  26  27
ATOM     27  C   LIG    1      -34.940  67.387  23.852  0.00  0.00    +0.266 C 
BRANCH  27  28
ATOM     28  C   LIG    1      -35.135  67.093  22.390  0.00  0.00    +0.008 A 
ATOM     29  C   LIG    1      -36.299  67.487  21.742  0.00  0.00    +0.118 A 
ATOM     30  N   LIG    1      -36.544  67.290  20.427  0.00  0.00    -0.251 NA
ATOM     31  C   LIG    1      -35.580  66.675  19.685  0.00  0.00    +0.144 A 
ATOM     32  C   LIG    1      -34.374  66.261  20.256  0.00  0.00    +0.033 A 
ATOM     33  C   LIG    1      -34.154  66.473  21.619  0.00  0.00    +0.010 A 
BRANCH  31  34
ATOM     34  C   LIG    1      -35.841  66.432  18.204  0.00  0.00    +0.434 C 
ATOM     35  F   LIG    1      -37.167  66.436  17.882  0.00  0.00    -0.164 F 
ATOM     36  F   LIG    1      -35.348  65.239  17.764  0.00  0.00    -0.164 F 
ATOM     37  F   LIG    1      -35.273  67.378  17.395  0.00  0.00    -0.164 F 
ENDBRANCH  31  34
ENDBRANCH  27  28
ENDBRANCH  26  27
ENDBRANCH   2  26
TORSDOF 8
ENDMDL
MODEL 6
REMARK VINA RESULT:      -6.2      6.894     11.217
REMARK  Name = pdb/CHEMBL3678299.pdb
REMARK                            x       y       z     vdW  Elec       q    Type
REMARK                         _______ _______ _______ _____ _____    ______ ____
ROOT
ATOM      1  C   LIG    1      -31.111  73.320  30.340  0.00  0.00    +0.162 A 
ATOM      2  C   LIG    1      -30.295  74.282  30.952  0.00  0.00    +0.162 A 
ATOM      3  C   LIG    1      -30.576  75.638  30.732  0.00  0.00    +0.050 A 
ATOM      4  C   LIG    1      -31.571  76.037  29.835  0.00  0.00    +0.009 A 
ATOM      5  C   LIG    1      -32.320  75.089  29.135  0.00  0.00    -0.021 A 
ATOM      6  C   LIG    1      -32.108  73.735  29.440  0.00  0.00    +0.055 A 
ENDROOT
BRANCH   1   8
ATOM      7  C   LIG    1      -30.113  71.195  29.865  0.00  0.00    +0.277 C 
ATOM      8  O   LIG    1      -31.111  71.962  30.518  0.00  0.00    -0.491 OA
ENDBRANCH   1   8
BRANCH   5   9
ATOM      9  C   LIG    1      -33.377  75.466  28.107  0.00  0.00    +0.117 C 
ATOM     10  C   LIG    1      -34.788  75.109  28.578  0.00  0.00    +0.036 C 
BRANCH   9  11
ATOM     11  N   LIG    1      -33.223  76.841  27.631  0.00  0.00    -0.308 N 
ATOM     12  C   LIG    1      -33.730  77.991  28.178  0.00  0.00    +0.161 A 
ATOM     13  N   LIG    1      -34.437  78.123  29.318  0.00  0.00    -0.235 NA
ATOM     14  C   LIG    1      -34.798  79.411  29.556  0.00  0.00    +0.121 A 
ATOM     15  C   LIG    1      -34.506  80.522  28.757  0.00  0.00    +0.005 A 
ATOM     16  C   LIG    1      -33.752  80.312  27.594  0.00  0.00    +0.041 A 
ATOM     17  C   LIG    1      -33.354  79.001  27.300  0.00  0.00    +0.108 A 
ATOM     18  N   LIG    1      -32.627  78.496  26.253  0.00  0.00    -0.234 NA
ATOM     19  C   LIG    1      -32.561  77.201  26.482  0.00  0.00    +0.202 A 
BRANCH  15  20
ATOM     20  C   LIG    1      -34.976  81.842  29.129  0.00  0.00    +0.021 A 
ATOM     21  C   LIG    1      -35.995  82.528  28.498  0.00  0.00    +0.116 A 
ATOM     22  N   LIG    1      -36.144  83.705  29.173  0.00  0.00    -0.274 N 
ATOM     23  C   LIG    1      -37.093  84.752  28.883  0.00  0.00    +0.172 C 
ATOM     24  N   LIG    1      -35.291  83.844  30.203  0.00  0.00    -0.179 NA
ATOM     25  C   LIG    1      -34.585  82.709  30.177  0.00  0.00    +0.143 A 
ENDBRANCH  15  20
ENDBRANCH   9  11
ENDBRANCH   5   9
BRANCH   2  26
ATOM     26  O   LIG    1      -29.279  73.882  31.781  0.00  0.00    -0.484 OA
BRANCH  26  27
ATOM     27  C   LIG    1      -28.791  74.874  32.690  0.00  0.00    +0.266 C 
BRANCH  27  28
ATOM     28  C   LIG    1      -27.569  75.529  32.109  0.00  0.00    +0.008 A 
ATOM     29  C   LIG    1      -27.554  76.894  31.858  0.00  0.00    +0.118 A 
ATOM     30  N   LIG    1      -26.491  77.569  31.365  0.00  0.00    -0.251 NA
ATOM     31  C   LIG    1      -25.353  76.862  31.110  0.00  0.00    +0.144 A 
ATOM     32  C   LIG    1      -25.279  75.488  31.348  0.00  0.00    +0.033 A 
ATOM     33  C   LIG    1      -26.397  74.820  31.851  0.00  0.00    +0.010 A 
BRANCH  31  34
ATOM     34  C   LIG    1      -24.147  77.601  30.542  0.00  0.00    +0.434 C 
ATOM     35  F   LIG    1      -24.412  78.900  30.222  0.00  0.00    -0.164 F 
ATOM     36  F   LIG    1      -23.653  77.024  29.409  0.00  0.00    -0.164 F 
ATOM     37  F   LIG    1      -23.090  77.653  31.411  0.00  0.00    -0.164 F 
ENDBRANCH  31  34
ENDBRANCH  27  28
ENDBRANCH  26  27
ENDBRANCH   2  26
TORSDOF 8
ENDMDL
MODEL 7
REMARK VINA RESULT:      -6.2     11.602     13.875
REMARK  Name = pdb/CHEMBL3678299.pdb
REMARK                            x       y       z     vdW  Elec       q    Type
REMARK                         _______ _______ _______ _____ _____    ______ ____
ROOT
ATOM      1  C   LIG    1      -25.150  74.506  31.710  0.00  0.00    +0.162 A 
ATOM      2  C   LIG    1      -24.495  73.557  32.507  0.00  0.00    +0.162 A 
ATOM      3  C   LIG    1      -23.107  73.667  32.679  0.00  0.00    +0.050 A 
ATOM      4  C   LIG    1      -22.364  74.627  31.986  0.00  0.00    +0.009 A 
ATOM      5  C   LIG    1      -22.989  75.510  31.103  0.00  0.00    -0.021 A 
ATOM      6  C   LIG    1      -24.390  75.465  31.017  0.00  0.00    +0.055 A 
ENDROOT
BRANCH   1   8
ATOM      7  C   LIG    1      -27.058  75.953  31.760  0.00  0.00    +0.277 C 
ATOM      8  O   LIG    1      -26.495  74.675  31.515  0.00  0.00    -0.491 OA
ENDBRANCH   1   8
BRANCH   5   9
ATOM      9  C   LIG    1      -22.223  76.537  30.282  0.00  0.00    +0.117 C 
ATOM     10  C   LIG    1      -23.157  77.546  29.610  0.00  0.00    +0.036 C 
BRANCH   9  11
ATOM     11  N   LIG    1      -21.118  77.135  31.031  0.00  0.00    -0.308 N 
ATOM     12  C   LIG    1      -21.177  77.896  32.169  0.00  0.00    +0.161 A 
ATOM     13  N   LIG    1      -22.267  78.217  32.894  0.00  0.00    -0.235 NA
ATOM     14  C   LIG    1      -21.966  79.005  33.959  0.00  0.00    +0.121 A 
ATOM     15  C   LIG    1      -20.696  79.468  34.324  0.00  0.00    +0.005 A 
ATOM     16  C   LIG    1      -19.606  79.081  33.532  0.00  0.00    +0.041 A 
ATOM     17  C   LIG    1      -19.861  78.268  32.420  0.00  0.00    +0.108 A 
ATOM     18  N   LIG    1      -19.014  77.742  31.478  0.00  0.00    -0.234 NA
ATOM     19  C   LIG    1      -19.795  77.065  30.663  0.00  0.00    +0.202 A 
BRANCH  15  20
ATOM     20  C   LIG    1      -20.528  80.323  35.483  0.00  0.00    +0.021 A 
ATOM     21  C   LIG    1      -19.728  80.036  36.570  0.00  0.00    +0.116 A 
ATOM     22  N   LIG    1      -19.824  81.106  37.413  0.00  0.00    -0.274 N 
ATOM     23  C   LIG    1      -19.159  81.267  38.683  0.00  0.00    +0.172 C 
ATOM     24  N   LIG    1      -20.637  82.076  36.957  0.00  0.00    -0.179 NA
ATOM     25  C   LIG    1      -21.060  81.600  35.782  0.00  0.00    +0.143 A 
ENDBRANCH  15  20
ENDBRANCH   9  11
ENDBRANCH   5   9
BRANCH   2  26
ATOM     26  O   LIG    1      -25.223  72.578  33.133  0.00  0.00    -0.484 OA
BRANCH  26  27
ATOM     27  C   LIG    1      -24.682  71.255  33.055  0.00  0.00    +0.266 C 
BRANCH  27  28
ATOM     28  C   LIG    1      -24.593  70.834  31.614  0.00  0.00    +0.008 A 
ATOM     29  C   LIG    1      -25.714  70.883  30.796  0.00  0.00    +0.118 A 
ATOM     30  N   LIG    1      -25.717  70.553  29.485  0.00  0.00    -0.251 NA
ATOM     31  C   LIG    1      -24.537  70.156  28.926  0.00  0.00    +0.144 A 
ATOM     32  C   LIG    1      -23.361  70.094  29.676  0.00  0.00    +0.033 A 
ATOM     33  C   LIG    1      -23.392  70.435  31.029  0.00  0.00    +0.010 A 
BRANCH  31  34
ATOM     34  C   LIG    1      -24.522  69.767  27.453  0.00  0.00    +0.434 C 
ATOM     35  F   LIG    1      -23.783  70.613  26.680  0.00  0.00    -0.164 F 
ATOM     36  F   LIG    1      -25.767  69.735  26.897  0.00  0.00    -0.164 F 
ATOM     37  F   LIG    1      -23.995  68.524  27.231  0.00  0.00    -0.164 F 
ENDBRANCH  31  34
ENDBRANCH  27  28
ENDBRANCH  26  27
ENDBRANCH   2  26
TORSDOF 8
ENDMDL
MODEL 8
REMARK VINA RESULT:      -6.1     18.096     21.230
REMARK  Name = pdb/CHEMBL3678299.pdb
REMARK                            x       y       z     vdW  Elec       q    Type
REMARK                         _______ _______ _______ _____ _____    ______ ____
ROOT
ATOM      1  C   LIG    1      -27.082  78.123  12.276  0.00  0.00    +0.162 A 
ATOM      2  C   LIG    1      -27.121  77.315  13.421  0.00  0.00    +0.162 A 
ATOM      3  C   LIG    1      -27.957  76.189  13.419  0.00  0.00    +0.050 A 
ATOM      4  C   LIG    1      -28.823  75.930  12.354  0.00  0.00    +0.009 A 
ATOM      5  C   LIG    1      -28.875  76.788  11.253  0.00  0.00    -0.021 A 
ATOM      6  C   LIG    1      -27.959  77.852  11.212  0.00  0.00    +0.055 A 
ENDROOT
BRANCH   1   8
ATOM      7  C   LIG    1      -25.301  79.037  10.960  0.00  0.00    +0.277 C 
ATOM      8  O   LIG    1      -26.251  79.178  12.003  0.00  0.00    -0.491 OA
ENDBRANCH   1   8
BRANCH   5   9
ATOM      9  C   LIG    1      -29.837  76.585  10.092  0.00  0.00    +0.117 C 
ATOM     10  C   LIG    1      -29.905  75.121   9.654  0.00  0.00    +0.036 C 
BRANCH   9  11
ATOM     11  N   LIG    1      -31.137  77.211  10.331  0.00  0.00    -0.308 N 
ATOM     12  C   LIG    1      -31.442  78.546  10.375  0.00  0.00    +0.161 A 
ATOM     13  N   LIG    1      -30.621  79.590  10.145  0.00  0.00    -0.235 NA
ATOM     14  C   LIG    1      -31.250  80.785  10.290  0.00  0.00    +0.121 A 
ATOM     15  C   LIG    1      -32.592  80.987  10.634  0.00  0.00    +0.005 A 
ATOM     16  C   LIG    1      -33.392  79.854  10.842  0.00  0.00    +0.041 A 
ATOM     17  C   LIG    1      -32.792  78.595  10.706  0.00  0.00    +0.108 A 
ATOM     18  N   LIG    1      -33.308  77.333  10.848  0.00  0.00    -0.234 NA
ATOM     19  C   LIG    1      -32.295  76.525  10.612  0.00  0.00    +0.202 A 
BRANCH  15  20
ATOM     20  C   LIG    1      -33.125  82.328  10.772  0.00  0.00    +0.021 A 
ATOM     21  C   LIG    1      -34.428  82.633  11.111  0.00  0.00    +0.116 A 
ATOM     22  N   LIG    1      -34.504  83.995  11.166  0.00  0.00    -0.274 N 
ATOM     23  C   LIG    1      -35.670  84.782  11.487  0.00  0.00    +0.172 C 
ATOM     24  N   LIG    1      -33.342  84.608  10.882  0.00  0.00    -0.179 NA
ATOM     25  C   LIG    1      -32.504  83.594  10.646  0.00  0.00    +0.143 A 
ENDBRANCH  15  20
ENDBRANCH   9  11
ENDBRANCH   5   9
BRANCH   2  26
ATOM     26  O   LIG    1      -26.314  77.612  14.489  0.00  0.00    -0.484 OA
BRANCH  26  27
ATOM     27  C   LIG    1      -24.906  77.516  14.251  0.00  0.00    +0.266 C 
BRANCH  27  28
ATOM     28  C   LIG    1      -24.219  78.733  14.808  0.00  0.00    +0.008 A 
ATOM     29  C   LIG    1      -24.840  79.974  14.760  0.00  0.00    +0.118 A 
ATOM     30  N   LIG    1      -24.310  81.113  15.262  0.00  0.00    -0.251 NA
ATOM     31  C   LIG    1      -23.090  81.033  15.865  0.00  0.00    +0.144 A 
ATOM     32  C   LIG    1      -22.405  79.821  15.968  0.00  0.00    +0.033 A 
ATOM     33  C   LIG    1      -22.976  78.664  15.434  0.00  0.00    +0.010 A 
BRANCH  31  34
ATOM     34  C   LIG    1      -22.468  82.307  16.426  0.00  0.00    +0.434 C 
ATOM     35  F   LIG    1      -22.602  82.422  17.779  0.00  0.00    -0.164 F 
ATOM     36  F   LIG    1      -23.006  83.442  15.894  0.00  0.00    -0.164 F 
ATOM     37  F   LIG    1      -21.124  82.400  16.188  0.00  0.00    -0.164 F 
ENDBRANCH  31  34
ENDBRANCH  27  28
ENDBRANCH  26  27
ENDBRANCH   2  26
TORSDOF 8
ENDMDL
MODEL 9
REMARK VINA RESULT:      -6.0     18.469     20.499
REMARK  Name = pdb/CHEMBL3678299.pdb
REMARK                            x       y       z     vdW  Elec       q    Type
REMARK                         _______ _______ _______ _____ _____    ______ ____
ROOT
ATOM      1  C   LIG    1      -30.126  80.423   9.530  0.00  0.00    +0.162 A 
ATOM      2  C   LIG    1      -31.305  80.595  10.269  0.00  0.00    +0.162 A 
ATOM      3  C   LIG    1      -31.539  79.753  11.367  0.00  0.00    +0.050 A 
ATOM      4  C   LIG    1      -30.681  78.689  11.660  0.00  0.00    +0.009 A 
ATOM      5  C   LIG    1      -29.560  78.438  10.866  0.00  0.00    -0.021 A 
ATOM      6  C   LIG    1      -29.273  79.348   9.835  0.00  0.00    +0.055 A 
ENDROOT
BRANCH   1   8
ATOM      7  C   LIG    1      -28.230  81.419   8.457  0.00  0.00    +0.277 C 
ATOM      8  O   LIG    1      -29.631  81.204   8.520  0.00  0.00    -0.491 OA
ENDBRANCH   1   8
BRANCH   5   9
ATOM      9  C   LIG    1      -28.624  77.263  11.106  0.00  0.00    +0.117 C 
ATOM     10  C   LIG    1      -27.662  77.047   9.936  0.00  0.00    +0.036 C 
BRANCH   9  11
ATOM     11  N   LIG    1      -27.981  77.323  12.419  0.00  0.00    -0.308 N 
ATOM     12  C   LIG    1      -27.074  78.242  12.879  0.00  0.00    +0.161 A 
ATOM     13  N   LIG    1      -26.612  79.338  12.245  0.00  0.00    -0.235 NA
ATOM     14  C   LIG    1      -25.705  80.022  12.989  0.00  0.00    +0.121 A 
ATOM     15  C   LIG    1      -25.254  79.688  14.272  0.00  0.00    +0.005 A 
ATOM     16  C   LIG    1      -25.790  78.543  14.877  0.00  0.00    +0.041 A 
ATOM     17  C   LIG    1      -26.731  77.799  14.152  0.00  0.00    +0.108 A 
ATOM     18  N   LIG    1      -27.414  76.655  14.475  0.00  0.00    -0.234 NA
ATOM     19  C   LIG    1      -28.158  76.397  13.420  0.00  0.00    +0.202 A 
BRANCH  15  20
ATOM     20  C   LIG    1      -24.261  80.506  14.941  0.00  0.00    +0.021 A 
ATOM     21  C   LIG    1      -24.005  81.833  14.657  0.00  0.00    +0.116 A 
ATOM     22  N   LIG    1      -23.032  82.233  15.528  0.00  0.00    -0.274 N 
ATOM     23  C   LIG    1      -22.440  83.545  15.617  0.00  0.00    +0.172 C 
ATOM     24  N   LIG    1      -22.626  81.259  16.361  0.00  0.00    -0.179 NA
ATOM     25  C   LIG    1      -23.376  80.212  16.006  0.00  0.00    +0.143 A 
ENDBRANCH  15  20
ENDBRANCH   9  11
ENDBRANCH   5   9
BRANCH   2  26
ATOM     26  O   LIG    1      -32.175  81.601   9.935  0.00  0.00    -0.484 OA
BRANCH  26  27
ATOM     27  C   LIG    1      -32.879  82.202  11.027  0.00  0.00    +0.266 C 
BRANCH  27  28
ATOM     28  C   LIG    1      -34.310  82.438  10.632  0.00  0.00    +0.008 A 
ATOM     29  C   LIG    1      -35.079  83.380  11.302  0.00  0.00    +0.118 A 
ATOM     30  N   LIG    1      -36.362  83.677  10.994  0.00  0.00    -0.251 NA
ATOM     31  C   LIG    1      -36.934  83.016   9.947  0.00  0.00    +0.144 A 
ATOM     32  C   LIG    1      -36.225  82.064   9.211  0.00  0.00    +0.033 A 
ATOM     33  C   LIG    1      -34.904  81.775   9.559  0.00  0.00    +0.010 A 
BRANCH  31  34
ATOM     34  C   LIG    1      -38.383  83.326   9.592  0.00  0.00    +0.434 C 
ATOM     35  F   LIG    1      -39.172  83.542  10.683  0.00  0.00    -0.164 F 
ATOM     36  F   LIG    1      -38.983  82.329   8.881  0.00  0.00    -0.164 F 
ATOM     37  F   LIG    1      -38.520  84.450   8.822  0.00  0.00    -0.164 F 
ENDBRANCH  31  34
ENDBRANCH  27  28
ENDBRANCH  26  27
ENDBRANCH   2  26
TORSDOF 8
ENDMDL
