MODEL 1
REMARK VINA RESULT:      -7.1      0.000      0.000
REMARK  Name = pdb/CHEMBL3298162.pdb
REMARK                            x       y       z     vdW  Elec       q    Type
REMARK                         _______ _______ _______ _____ _____    ______ ____
ROOT
ATOM      1  C   LIG    1      -21.187  87.925  12.849  0.00  0.00    +0.128 A 
ATOM      2  N   LIG    1      -21.804  86.817  12.272  0.00  0.00    -0.327 N 
ATOM      3  C   LIG    1      -23.029  87.177  11.719  0.00  0.00    +0.054 A 
ATOM      4  C   LIG    1      -24.020  86.397  11.113  0.00  0.00    +0.046 A 
ATOM      5  C   LIG    1      -25.133  87.081  10.663  0.00  0.00    +0.113 A 
ATOM      6  N   LIG    1      -25.295  88.414  10.742  0.00  0.00    -0.254 NA
ATOM      7  C   LIG    1      -24.334  89.194  11.331  0.00  0.00    +0.081 A 
ATOM      8  C   LIG    1      -23.186  88.559  11.875  0.00  0.00    +0.027 A 
ATOM      9  C   LIG    1      -22.056  88.984  12.632  0.00  0.00    +0.045 A 
ENDROOT
BRANCH   7  10
ATOM     10  C   LIG    1      -24.659  90.639  11.430  0.00  0.00    +0.009 A 
ATOM     11  C   LIG    1      -23.954  91.710  10.782  0.00  0.00    -0.009 A 
ATOM     12  C   LIG    1      -22.862  91.549   9.893  0.00  0.00    +0.009 A 
ATOM     13  C   LIG    1      -22.136  92.632   9.387  0.00  0.00    +0.001 A 
ATOM     14  C   LIG    1      -22.536  93.926   9.675  0.00  0.00    +0.001 A 
ATOM     15  C   LIG    1      -23.670  94.132  10.455  0.00  0.00    +0.008 A 
ATOM     16  C   LIG    1      -24.373  93.051  11.015  0.00  0.00    -0.017 A 
ATOM     17  C   LIG    1      -25.500  93.320  11.799  0.00  0.00    +0.008 A 
ATOM     18  C   LIG    1      -26.212  92.290  12.393  0.00  0.00    +0.001 A 
ATOM     19  C   LIG    1      -25.787  90.978  12.220  0.00  0.00    +0.010 A 
ENDBRANCH   7  10
BRANCH   1  20
ATOM     20  C   LIG    1      -19.888  87.906  13.507  0.00  0.00    +0.353 C 
ATOM     21  O   LIG    1      -18.812  88.070  12.968  0.00  0.00    -0.243 OA
BRANCH  20  22
ATOM     22  O   LIG    1      -19.980  87.695  14.846  0.00  0.00    -0.476 OA
ATOM     23  H   LIG    1      -19.714  88.446  15.396  0.00  0.00    +0.295 HD
ENDBRANCH  20  22
ENDBRANCH   1  20
BRANCH   2  24
ATOM     24  C   LIG    1      -21.273  85.450  12.252  0.00  0.00    +0.202 C 
BRANCH  24  25
ATOM     25  C   LIG    1      -21.863  84.635  13.342  0.00  0.00    +0.192 A 
ATOM     26  N   LIG    1      -22.356  83.369  13.136  0.00  0.00    -0.190 NA
ATOM     27  C   LIG    1      -22.743  83.016  14.341  0.00  0.00    +0.259 A 
ATOM     28  O   LIG    1      -22.544  83.996  15.274  0.00  0.00    -0.333 OA
ATOM     29  N   LIG    1      -21.978  85.079  14.603  0.00  0.00    -0.059 NA
BRANCH  27  30
ATOM     30  C   LIG    1      -23.294  81.760  14.823  0.00  0.00    +0.039 A 
ATOM     31  C   LIG    1      -22.699  81.071  15.890  0.00  0.00    +0.013 A 
ATOM     32  C   LIG    1      -23.234  79.865  16.345  0.00  0.00    +0.001 A 
ATOM     33  C   LIG    1      -24.367  79.330  15.734  0.00  0.00    +0.000 A 
ATOM     34  C   LIG    1      -24.969  80.002  14.672  0.00  0.00    +0.001 A 
ATOM     35  C   LIG    1      -24.439  81.216  14.222  0.00  0.00    +0.013 A 
ENDBRANCH  27  30
ENDBRANCH  24  25
ENDBRANCH   2  24
TORSDOF 6
ENDMDL
MODEL 2
REMARK VINA RESULT:      -6.9     20.989     23.271
REMARK  Name = pdb/CHEMBL3298162.pdb
REMARK                            x       y       z     vdW  Elec       q    Type
REMARK                         _______ _______ _______ _____ _____    ______ ____
ROOT
ATOM      1  C   LIG    1      -27.479  76.241  32.478  0.00  0.00    +0.128 A 
ATOM      2  N   LIG    1      -27.658  74.864  32.371  0.00  0.00    -0.327 N 
ATOM      3  C   LIG    1      -26.504  74.262  31.879  0.00  0.00    +0.054 A 
ATOM      4  C   LIG    1      -26.245  72.930  31.537  0.00  0.00    +0.046 A 
ATOM      5  C   LIG    1      -24.971  72.664  31.072  0.00  0.00    +0.113 A 
ATOM      6  N   LIG    1      -23.990  73.578  30.966  0.00  0.00    -0.254 NA
ATOM      7  C   LIG    1      -24.224  74.887  31.297  0.00  0.00    +0.081 A 
ATOM      8  C   LIG    1      -25.529  75.253  31.727  0.00  0.00    +0.027 A 
ATOM      9  C   LIG    1      -26.182  76.479  32.048  0.00  0.00    +0.045 A 
ENDROOT
BRANCH   7  10
ATOM     10  C   LIG    1      -23.091  75.816  31.065  0.00  0.00    +0.009 A 
ATOM     11  C   LIG    1      -22.425  76.603  32.065  0.00  0.00    -0.009 A 
ATOM     12  C   LIG    1      -22.711  76.572  33.453  0.00  0.00    +0.009 A 
ATOM     13  C   LIG    1      -22.114  77.449  34.364  0.00  0.00    +0.001 A 
ATOM     14  C   LIG    1      -21.133  78.327  33.937  0.00  0.00    +0.001 A 
ATOM     15  C   LIG    1      -20.742  78.315  32.601  0.00  0.00    +0.008 A 
ATOM     16  C   LIG    1      -21.374  77.479  31.666  0.00  0.00    -0.017 A 
ATOM     17  C   LIG    1      -20.945  77.517  30.335  0.00  0.00    +0.008 A 
ATOM     18  C   LIG    1      -21.554  76.729  29.371  0.00  0.00    +0.001 A 
ATOM     19  C   LIG    1      -22.615  75.907  29.732  0.00  0.00    +0.010 A 
ENDBRANCH   7  10
BRANCH   1  20
ATOM     20  C   LIG    1      -28.483  77.175  32.967  0.00  0.00    +0.353 C 
ATOM     21  O   LIG    1      -28.697  77.448  34.132  0.00  0.00    -0.243 OA
BRANCH  20  22
ATOM     22  O   LIG    1      -29.189  77.762  31.966  0.00  0.00    -0.476 OA
ATOM     23  H   LIG    1      -28.671  77.991  31.181  0.00  0.00    +0.295 HD
ENDBRANCH  20  22
ENDBRANCH   1  20
BRANCH   2  24
ATOM     24  C   LIG    1      -28.882  74.127  32.703  0.00  0.00    +0.202 C 
BRANCH  24  25
ATOM     25  C   LIG    1      -29.794  74.058  31.535  0.00  0.00    +0.192 A 
ATOM     26  N   LIG    1      -30.583  75.116  31.149  0.00  0.00    -0.190 NA
ATOM     27  C   LIG    1      -31.191  74.642  30.085  0.00  0.00    +0.259 A 
ATOM     28  O   LIG    1      -30.847  73.348  29.806  0.00  0.00    -0.333 OA
ATOM     29  N   LIG    1      -29.934  72.955  30.784  0.00  0.00    -0.059 NA
BRANCH  27  30
ATOM     30  C   LIG    1      -32.113  75.284  29.164  0.00  0.00    +0.039 A 
ATOM     31  C   LIG    1      -31.912  76.606  28.742  0.00  0.00    +0.013 A 
ATOM     32  C   LIG    1      -32.804  77.215  27.858  0.00  0.00    +0.001 A 
ATOM     33  C   LIG    1      -33.913  76.512  27.391  0.00  0.00    +0.000 A 
ATOM     34  C   LIG    1      -34.127  75.197  27.802  0.00  0.00    +0.001 A 
ATOM     35  C   LIG    1      -33.228  74.583  28.679  0.00  0.00    +0.013 A 
ENDBRANCH  27  30
ENDBRANCH  24  25
ENDBRANCH   2  24
TORSDOF 6
ENDMDL
MODEL 3
REMARK VINA RESULT:      -6.9     23.501     25.468
REMARK  Name = pdb/CHEMBL3298162.pdb
REMARK                            x       y       z     vdW  Elec       q    Type
REMARK                         _______ _______ _______ _____ _____    ______ ____
ROOT
ATOM      1  C   LIG    1      -38.273  68.072  21.100  0.00  0.00    +0.128 A 
ATOM      2  N   LIG    1      -37.775  67.422  22.228  0.00  0.00    -0.327 N 
ATOM      3  C   LIG    1      -38.040  68.168  23.373  0.00  0.00    +0.054 A 
ATOM      4  C   LIG    1      -37.667  67.957  24.705  0.00  0.00    +0.046 A 
ATOM      5  C   LIG    1      -38.104  68.904  25.610  0.00  0.00    +0.113 A 
ATOM      6  N   LIG    1      -38.869  69.965  25.297  0.00  0.00    -0.254 NA
ATOM      7  C   LIG    1      -39.245  70.188  23.998  0.00  0.00    +0.081 A 
ATOM      8  C   LIG    1      -38.785  69.291  22.997  0.00  0.00    +0.027 A 
ATOM      9  C   LIG    1      -38.861  69.235  21.575  0.00  0.00    +0.045 A 
ENDROOT
BRANCH   7  10
ATOM     10  C   LIG    1      -40.022  71.431  23.763  0.00  0.00    +0.009 A 
ATOM     11  C   LIG    1      -39.604  72.764  24.096  0.00  0.00    -0.009 A 
ATOM     12  C   LIG    1      -38.348  73.111  24.655  0.00  0.00    +0.009 A 
ATOM     13  C   LIG    1      -38.043  74.410  25.072  0.00  0.00    +0.001 A 
ATOM     14  C   LIG    1      -38.948  75.436  24.855  0.00  0.00    +0.001 A 
ATOM     15  C   LIG    1      -40.149  75.160  24.209  0.00  0.00    +0.008 A 
ATOM     16  C   LIG    1      -40.491  73.849  23.837  0.00  0.00    -0.017 A 
ATOM     17  C   LIG    1      -41.717  73.631  23.200  0.00  0.00    +0.008 A 
ATOM     18  C   LIG    1      -42.109  72.352  22.836  0.00  0.00    +0.001 A 
ATOM     19  C   LIG    1      -41.280  71.275  23.127  0.00  0.00    +0.010 A 
ENDBRANCH   7  10
BRANCH   1  20
ATOM     20  C   LIG    1      -38.177  67.565  19.739  0.00  0.00    +0.353 C 
ATOM     21  O   LIG    1      -38.622  66.508  19.337  0.00  0.00    -0.243 OA
BRANCH  20  22
ATOM     22  O   LIG    1      -37.532  68.419  18.902  0.00  0.00    -0.476 OA
ATOM     23  H   LIG    1      -38.019  69.228  18.690  0.00  0.00    +0.295 HD
ENDBRANCH  20  22
ENDBRANCH   1  20
BRANCH   2  24
ATOM     24  C   LIG    1      -37.053  66.146  22.237  0.00  0.00    +0.202 C 
BRANCH  24  25
ATOM     25  C   LIG    1      -35.656  66.321  21.770  0.00  0.00    +0.192 A 
ATOM     26  N   LIG    1      -35.106  65.551  20.774  0.00  0.00    -0.190 NA
ATOM     27  C   LIG    1      -33.896  66.051  20.665  0.00  0.00    +0.259 A 
ATOM     28  O   LIG    1      -33.655  67.064  21.551  0.00  0.00    -0.333 OA
ATOM     29  N   LIG    1      -34.820  67.228  22.299  0.00  0.00    -0.059 NA
BRANCH  27  30
ATOM     30  C   LIG    1      -32.823  65.725  19.740  0.00  0.00    +0.039 A 
ATOM     31  C   LIG    1      -31.651  66.494  19.693  0.00  0.00    +0.013 A 
ATOM     32  C   LIG    1      -30.626  66.175  18.800  0.00  0.00    +0.001 A 
ATOM     33  C   LIG    1      -30.763  65.088  17.940  0.00  0.00    +0.000 A 
ATOM     34  C   LIG    1      -31.923  64.314  17.975  0.00  0.00    +0.001 A 
ATOM     35  C   LIG    1      -32.945  64.627  18.875  0.00  0.00    +0.013 A 
ENDBRANCH  27  30
ENDBRANCH  24  25
ENDBRANCH   2  24
TORSDOF 6
ENDMDL
MODEL 4
REMARK VINA RESULT:      -6.8     23.853     25.500
REMARK  Name = pdb/CHEMBL3298162.pdb
REMARK                            x       y       z     vdW  Elec       q    Type
REMARK                         _______ _______ _______ _____ _____    ______ ____
ROOT
ATOM      1  C   LIG    1      -37.495  68.274  21.268  0.00  0.00    +0.128 A 
ATOM      2  N   LIG    1      -36.990  67.463  22.282  0.00  0.00    -0.327 N 
ATOM      3  C   LIG    1      -37.059  68.120  23.507  0.00  0.00    +0.054 A 
ATOM      4  C   LIG    1      -36.605  67.737  24.775  0.00  0.00    +0.046 A 
ATOM      5  C   LIG    1      -36.838  68.638  25.796  0.00  0.00    +0.113 A 
ATOM      6  N   LIG    1      -37.485  69.808  25.650  0.00  0.00    -0.254 NA
ATOM      7  C   LIG    1      -37.939  70.199  24.417  0.00  0.00    +0.081 A 
ATOM      8  C   LIG    1      -37.684  69.355  23.303  0.00  0.00    +0.027 A 
ATOM      9  C   LIG    1      -37.887  69.447  21.895  0.00  0.00    +0.045 A 
ENDROOT
BRANCH   7  10
ATOM     10  C   LIG    1      -38.568  71.543  24.366  0.00  0.00    +0.009 A 
ATOM     11  C   LIG    1      -39.880  71.842  23.866  0.00  0.00    -0.009 A 
ATOM     12  C   LIG    1      -40.812  70.885  23.390  0.00  0.00    +0.009 A 
ATOM     13  C   LIG    1      -42.028  71.246  22.801  0.00  0.00    +0.001 A 
ATOM     14  C   LIG    1      -42.404  72.577  22.754  0.00  0.00    +0.001 A 
ATOM     15  C   LIG    1      -41.569  73.542  23.309  0.00  0.00    +0.008 A 
ATOM     16  C   LIG    1      -40.320  73.198  23.852  0.00  0.00    -0.017 A 
ATOM     17  C   LIG    1      -39.519  74.212  24.387  0.00  0.00    +0.008 A 
ATOM     18  C   LIG    1      -38.268  73.925  24.911  0.00  0.00    +0.001 A 
ATOM     19  C   LIG    1      -37.801  72.616  24.886  0.00  0.00    +0.010 A 
ENDBRANCH   7  10
BRANCH   1  20
ATOM     20  C   LIG    1      -37.581  67.894  19.865  0.00  0.00    +0.353 C 
ATOM     21  O   LIG    1      -36.754  68.137  19.008  0.00  0.00    -0.243 OA
BRANCH  20  22
ATOM     22  O   LIG    1      -38.709  67.195  19.577  0.00  0.00    -0.476 OA
ATOM     23  H   LIG    1      -39.460  67.733  19.288  0.00  0.00    +0.295 HD
ENDBRANCH  20  22
ENDBRANCH   1  20
BRANCH   2  24
ATOM     24  C   LIG    1      -36.439  66.115  22.113  0.00  0.00    +0.202 C 
BRANCH  24  25
ATOM     25  C   LIG    1      -35.078  66.166  21.525  0.00  0.00    +0.192 A 
ATOM     26  N   LIG    1      -34.663  65.301  20.541  0.00  0.00    -0.190 NA
ATOM     27  C   LIG    1      -33.438  65.710  20.302  0.00  0.00    +0.259 A 
ATOM     28  O   LIG    1      -33.060  66.757  21.097  0.00  0.00    -0.333 OA
ATOM     29  N   LIG    1      -34.146  67.046  21.923  0.00  0.00    -0.059 NA
BRANCH  27  30
ATOM     30  C   LIG    1      -32.469  65.256  19.319  0.00  0.00    +0.039 A 
ATOM     31  C   LIG    1      -32.767  64.203  18.441  0.00  0.00    +0.013 A 
ATOM     32  C   LIG    1      -31.829  63.773  17.501  0.00  0.00    +0.001 A 
ATOM     33  C   LIG    1      -30.579  64.385  17.432  0.00  0.00    +0.000 A 
ATOM     34  C   LIG    1      -30.268  65.432  18.298  0.00  0.00    +0.001 A 
ATOM     35  C   LIG    1      -31.210  65.871  19.233  0.00  0.00    +0.013 A 
ENDBRANCH  27  30
ENDBRANCH  24  25
ENDBRANCH   2  24
TORSDOF 6
ENDMDL
MODEL 5
REMARK VINA RESULT:      -6.8     20.764     24.381
REMARK  Name = pdb/CHEMBL3298162.pdb
REMARK                            x       y       z     vdW  Elec       q    Type
REMARK                         _______ _______ _______ _____ _____    ______ ____
ROOT
ATOM      1  C   LIG    1      -23.453  75.960  30.459  0.00  0.00    +0.128 A 
ATOM      2  N   LIG    1      -24.687  76.066  31.097  0.00  0.00    -0.327 N 
ATOM      3  C   LIG    1      -25.137  74.811  31.495  0.00  0.00    +0.054 A 
ATOM      4  C   LIG    1      -26.341  74.421  32.092  0.00  0.00    +0.046 A 
ATOM      5  C   LIG    1      -26.470  73.072  32.363  0.00  0.00    +0.113 A 
ATOM      6  N   LIG    1      -25.521  72.150  32.122  0.00  0.00    -0.254 NA
ATOM      7  C   LIG    1      -24.335  72.513  31.539  0.00  0.00    +0.081 A 
ATOM      8  C   LIG    1      -24.149  73.874  31.174  0.00  0.00    +0.027 A 
ATOM      9  C   LIG    1      -23.144  74.607  30.479  0.00  0.00    +0.045 A 
ENDROOT
BRANCH   7  10
ATOM     10  C   LIG    1      -23.397  71.399  31.252  0.00  0.00    +0.009 A 
ATOM     11  C   LIG    1      -23.428  70.546  30.097  0.00  0.00    -0.009 A 
ATOM     12  C   LIG    1      -24.332  70.672  29.012  0.00  0.00    +0.009 A 
ATOM     13  C   LIG    1      -24.395  69.738  27.973  0.00  0.00    +0.001 A 
ATOM     14  C   LIG    1      -23.488  68.693  27.927  0.00  0.00    +0.001 A 
ATOM     15  C   LIG    1      -22.512  68.594  28.913  0.00  0.00    +0.008 A 
ATOM     16  C   LIG    1      -22.474  69.492  29.993  0.00  0.00    -0.017 A 
ATOM     17  C   LIG    1      -21.475  69.337  30.959  0.00  0.00    +0.008 A 
ATOM     18  C   LIG    1      -21.413  70.183  32.055  0.00  0.00    +0.001 A 
ATOM     19  C   LIG    1      -22.366  71.184  32.201  0.00  0.00    +0.010 A 
ENDBRANCH   7  10
BRANCH   1  20
ATOM     20  C   LIG    1      -22.693  77.081  29.925  0.00  0.00    +0.353 C 
ATOM     21  O   LIG    1      -21.658  77.524  30.383  0.00  0.00    -0.243 OA
BRANCH  20  22
ATOM     22  O   LIG    1      -23.251  77.611  28.806  0.00  0.00    -0.476 OA
ATOM     23  H   LIG    1      -24.168  77.904  28.907  0.00  0.00    +0.295 HD
ENDBRANCH  20  22
ENDBRANCH   1  20
BRANCH   2  24
ATOM     24  C   LIG    1      -25.439  77.306  31.315  0.00  0.00    +0.202 C 
BRANCH  24  25
ATOM     25  C   LIG    1      -25.033  77.958  32.584  0.00  0.00    +0.192 A 
ATOM     26  N   LIG    1      -23.839  78.624  32.726  0.00  0.00    -0.190 NA
ATOM     27  C   LIG    1      -23.902  79.057  33.964  0.00  0.00    +0.259 A 
ATOM     28  O   LIG    1      -25.048  78.677  34.606  0.00  0.00    -0.333 OA
ATOM     29  N   LIG    1      -25.790  77.928  33.692  0.00  0.00    -0.059 NA
BRANCH  27  30
ATOM     30  C   LIG    1      -22.981  79.892  34.718  0.00  0.00    +0.039 A 
ATOM     31  C   LIG    1      -23.444  80.976  35.478  0.00  0.00    +0.013 A 
ATOM     32  C   LIG    1      -22.551  81.774  36.197  0.00  0.00    +0.001 A 
ATOM     33  C   LIG    1      -21.185  81.501  36.159  0.00  0.00    +0.000 A 
ATOM     34  C   LIG    1      -20.710  80.428  35.407  0.00  0.00    +0.001 A 
ATOM     35  C   LIG    1      -21.604  79.622  34.694  0.00  0.00    +0.013 A 
ENDBRANCH  27  30
ENDBRANCH  24  25
ENDBRANCH   2  24
TORSDOF 6
ENDMDL
MODEL 6
REMARK VINA RESULT:      -6.8     23.461     24.882
REMARK  Name = pdb/CHEMBL3298162.pdb
REMARK                            x       y       z     vdW  Elec       q    Type
REMARK                         _______ _______ _______ _____ _____    ______ ____
ROOT
ATOM      1  C   LIG    1      -36.492  71.003  25.522  0.00  0.00    +0.128 A 
ATOM      2  N   LIG    1      -37.245  69.928  25.056  0.00  0.00    -0.327 N 
ATOM      3  C   LIG    1      -38.466  70.371  24.556  0.00  0.00    +0.054 A 
ATOM      4  C   LIG    1      -39.562  69.656  24.061  0.00  0.00    +0.046 A 
ATOM      5  C   LIG    1      -40.635  70.416  23.636  0.00  0.00    +0.113 A 
ATOM      6  N   LIG    1      -40.668  71.760  23.640  0.00  0.00    -0.254 NA
ATOM      7  C   LIG    1      -39.603  72.478  24.119  0.00  0.00    +0.081 A 
ATOM      8  C   LIG    1      -38.484  71.768  24.632  0.00  0.00    +0.027 A 
ATOM      9  C   LIG    1      -37.273  72.127  25.291  0.00  0.00    +0.045 A 
ENDROOT
BRANCH   7  10
ATOM     10  C   LIG    1      -39.787  73.950  24.146  0.00  0.00    +0.009 A 
ATOM     11  C   LIG    1      -40.952  74.664  23.704  0.00  0.00    -0.009 A 
ATOM     12  C   LIG    1      -42.143  74.066  23.221  0.00  0.00    +0.009 A 
ATOM     13  C   LIG    1      -43.199  74.813  22.689  0.00  0.00    +0.001 A 
ATOM     14  C   LIG    1      -43.146  76.196  22.711  0.00  0.00    +0.001 A 
ATOM     15  C   LIG    1      -42.043  76.828  23.277  0.00  0.00    +0.008 A 
ATOM     16  C   LIG    1      -40.951  76.088  23.762  0.00  0.00    -0.017 A 
ATOM     17  C   LIG    1      -39.865  76.779  24.311  0.00  0.00    +0.008 A 
ATOM     18  C   LIG    1      -38.755  76.094  24.779  0.00  0.00    +0.001 A 
ATOM     19  C   LIG    1      -38.716  74.708  24.683  0.00  0.00    +0.010 A 
ENDBRANCH   7  10
BRANCH   1  20
ATOM     20  C   LIG    1      -35.161  70.898  26.102  0.00  0.00    +0.353 C 
ATOM     21  O   LIG    1      -34.900  70.855  27.288  0.00  0.00    -0.243 OA
BRANCH  20  22
ATOM     22  O   LIG    1      -34.182  70.831  25.163  0.00  0.00    -0.476 OA
ATOM     23  H   LIG    1      -33.280  70.798  25.515  0.00  0.00    +0.295 HD
ENDBRANCH  20  22
ENDBRANCH   1  20
BRANCH   2  24
ATOM     24  C   LIG    1      -36.844  68.518  25.091  0.00  0.00    +0.202 C 
BRANCH  24  25
ATOM     25  C   LIG    1      -36.168  68.125  23.830  0.00  0.00    +0.192 A 
ATOM     26  N   LIG    1      -36.860  67.714  22.716  0.00  0.00    -0.190 NA
ATOM     27  C   LIG    1      -35.898  67.498  21.849  0.00  0.00    +0.259 A 
ATOM     28  O   LIG    1      -34.652  67.723  22.367  0.00  0.00    -0.333 OA
ATOM     29  N   LIG    1      -34.833  68.119  23.691  0.00  0.00    -0.059 NA
BRANCH  27  30
ATOM     30  C   LIG    1      -35.960  67.109  20.450  0.00  0.00    +0.039 A 
ATOM     31  C   LIG    1      -35.038  66.200  19.910  0.00  0.00    +0.013 A 
ATOM     32  C   LIG    1      -35.105  65.834  18.564  0.00  0.00    +0.001 A 
ATOM     33  C   LIG    1      -36.090  66.376  17.742  0.00  0.00    +0.000 A 
ATOM     34  C   LIG    1      -37.013  67.281  18.264  0.00  0.00    +0.001 A 
ATOM     35  C   LIG    1      -36.953  67.641  19.613  0.00  0.00    +0.013 A 
ENDBRANCH  27  30
ENDBRANCH  24  25
ENDBRANCH   2  24
TORSDOF 6
ENDMDL
MODEL 7
REMARK VINA RESULT:      -6.7     19.202     21.698
REMARK  Name = pdb/CHEMBL3298162.pdb
REMARK                            x       y       z     vdW  Elec       q    Type
REMARK                         _______ _______ _______ _____ _____    ______ ____
ROOT
ATOM      1  C   LIG    1      -33.803  78.597  27.755  0.00  0.00    +0.128 A 
ATOM      2  N   LIG    1      -34.890  77.923  28.306  0.00  0.00    -0.327 N 
ATOM      3  C   LIG    1      -35.675  78.798  29.052  0.00  0.00    +0.054 A 
ATOM      4  C   LIG    1      -36.808  78.560  29.839  0.00  0.00    +0.046 A 
ATOM      5  C   LIG    1      -37.356  79.669  30.455  0.00  0.00    +0.113 A 
ATOM      6  N   LIG    1      -36.897  80.925  30.316  0.00  0.00    -0.254 NA
ATOM      7  C   LIG    1      -35.791  81.178  29.547  0.00  0.00    +0.081 A 
ATOM      8  C   LIG    1      -35.132  80.081  28.929  0.00  0.00    +0.027 A 
ATOM      9  C   LIG    1      -33.938  79.915  28.170  0.00  0.00    +0.045 A 
ENDROOT
BRANCH   7  10
ATOM     10  C   LIG    1      -35.333  82.589  29.532  0.00  0.00    +0.009 A 
ATOM     11  C   LIG    1      -35.529  83.529  28.464  0.00  0.00    -0.009 A 
ATOM     12  C   LIG    1      -36.247  83.271  27.269  0.00  0.00    +0.009 A 
ATOM     13  C   LIG    1      -36.301  84.183  26.211  0.00  0.00    +0.001 A 
ATOM     14  C   LIG    1      -35.720  85.433  26.346  0.00  0.00    +0.001 A 
ATOM     15  C   LIG    1      -35.100  85.771  27.545  0.00  0.00    +0.008 A 
ATOM     16  C   LIG    1      -34.989  84.842  28.594  0.00  0.00    -0.017 A 
ATOM     17  C   LIG    1      -34.346  85.235  29.772  0.00  0.00    +0.008 A 
ATOM     18  C   LIG    1      -34.190  84.346  30.824  0.00  0.00    +0.001 A 
ATOM     19  C   LIG    1      -34.664  83.046  30.696  0.00  0.00    +0.010 A 
ENDBRANCH   7  10
BRANCH   1  20
ATOM     20  C   LIG    1      -32.786  77.986  26.911  0.00  0.00    +0.353 C 
ATOM     21  O   LIG    1      -32.084  77.041  27.210  0.00  0.00    -0.243 OA
BRANCH  20  22
ATOM     22  O   LIG    1      -32.689  78.576  25.691  0.00  0.00    -0.476 OA
ATOM     23  H   LIG    1      -32.170  79.393  25.673  0.00  0.00    +0.295 HD
ENDBRANCH  20  22
ENDBRANCH   1  20
BRANCH   2  24
ATOM     24  C   LIG    1      -35.181  76.494  28.158  0.00  0.00    +0.202 C 
BRANCH  24  25
ATOM     25  C   LIG    1      -36.140  76.258  27.050  0.00  0.00    +0.192 A 
ATOM     26  N   LIG    1      -36.750  75.044  26.845  0.00  0.00    -0.190 NA
ATOM     27  C   LIG    1      -37.516  75.285  25.805  0.00  0.00    +0.259 A 
ATOM     28  O   LIG    1      -37.397  76.565  25.339  0.00  0.00    -0.333 OA
ATOM     29  N   LIG    1      -36.465  77.204  26.156  0.00  0.00    -0.059 NA
BRANCH  27  30
ATOM     30  C   LIG    1      -38.475  74.431  25.124  0.00  0.00    +0.039 A 
ATOM     31  C   LIG    1      -38.263  73.049  25.015  0.00  0.00    +0.013 A 
ATOM     32  C   LIG    1      -39.189  72.236  24.357  0.00  0.00    +0.001 A 
ATOM     33  C   LIG    1      -40.334  72.797  23.796  0.00  0.00    +0.000 A 
ATOM     34  C   LIG    1      -40.559  74.170  23.896  0.00  0.00    +0.001 A 
ATOM     35  C   LIG    1      -39.637  74.982  24.563  0.00  0.00    +0.013 A 
ENDBRANCH  27  30
ENDBRANCH  24  25
ENDBRANCH   2  24
TORSDOF 6
ENDMDL
MODEL 8
REMARK VINA RESULT:      -6.7     20.233     24.817
REMARK  Name = pdb/CHEMBL3298162.pdb
REMARK                            x       y       z     vdW  Elec       q    Type
REMARK                         _______ _______ _______ _____ _____    ______ ____
ROOT
ATOM      1  C   LIG    1      -36.950  72.794  29.052  0.00  0.00    +0.128 A 
ATOM      2  N   LIG    1      -35.656  72.354  28.780  0.00  0.00    -0.327 N 
ATOM      3  C   LIG    1      -35.603  71.752  27.526  0.00  0.00    +0.054 A 
ATOM      4  C   LIG    1      -34.551  71.102  26.871  0.00  0.00    +0.046 A 
ATOM      5  C   LIG    1      -34.837  70.610  25.612  0.00  0.00    +0.113 A 
ATOM      6  N   LIG    1      -36.022  70.745  24.990  0.00  0.00    -0.254 NA
ATOM      7  C   LIG    1      -37.064  71.379  25.616  0.00  0.00    +0.081 A 
ATOM      8  C   LIG    1      -36.867  71.861  26.938  0.00  0.00    +0.027 A 
ATOM      9  C   LIG    1      -37.697  72.457  27.932  0.00  0.00    +0.045 A 
ENDROOT
BRANCH   7  10
ATOM     10  C   LIG    1      -38.343  71.398  24.863  0.00  0.00    +0.009 A 
ATOM     11  C   LIG    1      -39.095  72.569  24.505  0.00  0.00    -0.009 A 
ATOM     12  C   LIG    1      -38.700  73.905  24.766  0.00  0.00    +0.009 A 
ATOM     13  C   LIG    1      -39.530  75.000  24.504  0.00  0.00    +0.001 A 
ATOM     14  C   LIG    1      -40.749  74.808  23.877  0.00  0.00    +0.001 A 
ATOM     15  C   LIG    1      -41.129  73.523  23.502  0.00  0.00    +0.008 A 
ATOM     16  C   LIG    1      -40.330  72.409  23.812  0.00  0.00    -0.017 A 
ATOM     17  C   LIG    1      -40.767  71.140  23.418  0.00  0.00    +0.008 A 
ATOM     18  C   LIG    1      -40.026  70.009  23.722  0.00  0.00    +0.001 A 
ATOM     19  C   LIG    1      -38.845  70.140  24.443  0.00  0.00    +0.010 A 
ENDBRANCH   7  10
BRANCH   1  20
ATOM     20  C   LIG    1      -37.357  73.476  30.272  0.00  0.00    +0.353 C 
ATOM     21  O   LIG    1      -37.892  72.961  31.234  0.00  0.00    -0.243 OA
BRANCH  20  22
ATOM     22  O   LIG    1      -37.062  74.802  30.258  0.00  0.00    -0.476 OA
ATOM     23  H   LIG    1      -36.727  75.154  31.094  0.00  0.00    +0.295 HD
ENDBRANCH  20  22
ENDBRANCH   1  20
BRANCH   2  24
ATOM     24  C   LIG    1      -34.500  72.475  29.674  0.00  0.00    +0.202 C 
BRANCH  24  25
ATOM     25  C   LIG    1      -33.696  73.677  29.343  0.00  0.00    +0.192 A 
ATOM     26  N   LIG    1      -34.229  74.773  28.708  0.00  0.00    -0.190 NA
ATOM     27  C   LIG    1      -33.202  75.590  28.642  0.00  0.00    +0.259 A 
ATOM     28  O   LIG    1      -32.061  75.055  29.173  0.00  0.00    -0.333 OA
ATOM     29  N   LIG    1      -32.387  73.775  29.620  0.00  0.00    -0.059 NA
BRANCH  27  30
ATOM     30  C   LIG    1      -33.113  76.952  28.143  0.00  0.00    +0.039 A 
ATOM     31  C   LIG    1      -33.736  78.012  28.818  0.00  0.00    +0.013 A 
ATOM     32  C   LIG    1      -33.647  79.317  28.330  0.00  0.00    +0.001 A 
ATOM     33  C   LIG    1      -32.938  79.577  27.159  0.00  0.00    +0.000 A 
ATOM     34  C   LIG    1      -32.314  78.533  26.477  0.00  0.00    +0.001 A 
ATOM     35  C   LIG    1      -32.395  77.228  26.970  0.00  0.00    +0.013 A 
ENDBRANCH  27  30
ENDBRANCH  24  25
ENDBRANCH   2  24
TORSDOF 6
ENDMDL
MODEL 9
REMARK VINA RESULT:      -6.7     21.143     23.396
REMARK  Name = pdb/CHEMBL3298162.pdb
REMARK                            x       y       z     vdW  Elec       q    Type
REMARK                         _______ _______ _______ _____ _____    ______ ____
ROOT
ATOM      1  C   LIG    1      -25.879  72.714  31.664  0.00  0.00    +0.128 A 
ATOM      2  N   LIG    1      -26.949  73.434  32.190  0.00  0.00    -0.327 N 
ATOM      3  C   LIG    1      -26.620  74.782  32.297  0.00  0.00    +0.054 A 
ATOM      4  C   LIG    1      -27.338  75.856  32.835  0.00  0.00    +0.046 A 
ATOM      5  C   LIG    1      -26.712  77.086  32.783  0.00  0.00    +0.113 A 
ATOM      6  N   LIG    1      -25.505  77.306  32.231  0.00  0.00    -0.254 NA
ATOM      7  C   LIG    1      -24.788  76.268  31.697  0.00  0.00    +0.081 A 
ATOM      8  C   LIG    1      -25.337  74.959  31.768  0.00  0.00    +0.027 A 
ATOM      9  C   LIG    1      -24.880  73.650  31.439  0.00  0.00    +0.045 A 
ENDROOT
BRANCH   7  10
ATOM     10  C   LIG    1      -23.438  76.619  31.188  0.00  0.00    +0.009 A 
ATOM     11  C   LIG    1      -22.396  77.266  31.935  0.00  0.00    -0.009 A 
ATOM     12  C   LIG    1      -22.473  77.623  33.305  0.00  0.00    +0.009 A 
ATOM     13  C   LIG    1      -21.474  78.361  33.948  0.00  0.00    +0.001 A 
ATOM     14  C   LIG    1      -20.312  78.687  33.271  0.00  0.00    +0.001 A 
ATOM     15  C   LIG    1      -20.146  78.261  31.956  0.00  0.00    +0.008 A 
ATOM     16  C   LIG    1      -21.167  77.569  31.282  0.00  0.00    -0.017 A 
ATOM     17  C   LIG    1      -20.947  77.175  29.958  0.00  0.00    +0.008 A 
ATOM     18  C   LIG    1      -21.932  76.512  29.244  0.00  0.00    +0.001 A 
ATOM     19  C   LIG    1      -23.157  76.254  29.847  0.00  0.00    +0.010 A 
ENDBRANCH   7  10
BRANCH   1  20
ATOM     20  C   LIG    1      -25.886  71.280  31.409  0.00  0.00    +0.353 C 
ATOM     21  O   LIG    1      -25.471  70.420  32.161  0.00  0.00    -0.243 OA
BRANCH  20  22
ATOM     22  O   LIG    1      -26.438  70.960  30.210  0.00  0.00    -0.476 OA
ATOM     23  H   LIG    1      -26.207  70.081  29.876  0.00  0.00    +0.295 HD
ENDBRANCH  20  22
ENDBRANCH   1  20
BRANCH   2  24
ATOM     24  C   LIG    1      -28.242  72.878  32.600  0.00  0.00    +0.202 C 
BRANCH  24  25
ATOM     25  C   LIG    1      -29.216  72.913  31.481  0.00  0.00    +0.192 A 
ATOM     26  N   LIG    1      -30.117  73.937  31.316  0.00  0.00    -0.190 NA
ATOM     27  C   LIG    1      -30.745  73.586  30.216  0.00  0.00    +0.259 A 
ATOM     28  O   LIG    1      -30.306  72.395  29.707  0.00  0.00    -0.333 OA
ATOM     29  N   LIG    1      -29.303  71.939  30.562  0.00  0.00    -0.059 NA
BRANCH  27  30
ATOM     30  C   LIG    1      -31.776  74.277  29.460  0.00  0.00    +0.039 A 
ATOM     31  C   LIG    1      -31.725  75.666  29.268  0.00  0.00    +0.013 A 
ATOM     32  C   LIG    1      -32.721  76.321  28.542  0.00  0.00    +0.001 A 
ATOM     33  C   LIG    1      -33.783  75.597  28.004  0.00  0.00    +0.000 A 
ATOM     34  C   LIG    1      -33.848  74.216  28.187  0.00  0.00    +0.001 A 
ATOM     35  C   LIG    1      -32.846  73.558  28.906  0.00  0.00    +0.013 A 
ENDBRANCH  27  30
ENDBRANCH  24  25
ENDBRANCH   2  24
TORSDOF 6
ENDMDL
