MODEL 1
REMARK VINA RESULT:      -7.6      0.000      0.000
REMARK  Name = pdb/CHEMBL3910954.pdb
REMARK                            x       y       z     vdW  Elec       q    Type
REMARK                         _______ _______ _______ _____ _____    ______ ____
ROOT
ATOM      1  C   LIG    1      -28.988  84.905  35.469  0.00  0.00    +0.285 C 
ATOM      2  N   LIG    1      -28.563  84.570  36.648  0.00  0.00    -0.196 NA
ENDROOT
BRANCH   2   3
ATOM      3  C   LIG    1      -27.638  83.540  36.888  0.00  0.00    +0.105 A 
ATOM      4  C   LIG    1      -28.096  82.260  37.161  0.00  0.00    +0.145 A 
ATOM      5  N   LIG    1      -27.308  81.171  37.329  0.00  0.00    -0.201 NA
ATOM      6  C   LIG    1      -25.985  81.351  37.149  0.00  0.00    +0.323 A 
ATOM      7  N   LIG    1      -25.407  82.537  36.925  0.00  0.00    -0.201 NA
ATOM      8  C   LIG    1      -26.252  83.591  36.802  0.00  0.00    +0.145 A 
BRANCH   6   9
ATOM      9  O   LIG    1      -25.138  80.244  37.114  0.00  0.00    -0.424 OA
BRANCH   9  10
ATOM     10  C   LIG    1      -24.933  79.635  35.894  0.00  0.00    +0.132 A 
ATOM     11  C   LIG    1      -23.866  80.074  35.109  0.00  0.00    +0.047 A 
ATOM     12  C   LIG    1      -23.634  79.493  33.853  0.00  0.00    +0.013 A 
ATOM     13  C   LIG    1      -24.450  78.458  33.367  0.00  0.00    +0.001 A 
ATOM     14  C   LIG    1      -25.483  78.001  34.183  0.00  0.00    +0.013 A 
ATOM     15  C   LIG    1      -25.758  78.623  35.397  0.00  0.00    +0.047 A 
BRANCH  13  16
ATOM     16  C   LIG    1      -24.196  77.874  32.048  0.00  0.00    +0.073 A 
ATOM     17  N   LIG    1      -22.980  77.434  31.541  0.00  0.00    -0.297 N 
ATOM     18  C   LIG    1      -21.685  77.366  32.041  0.00  0.00    +0.113 A 
ATOM     19  C   LIG    1      -20.709  76.891  31.247  0.00  0.00    +0.129 A 
ATOM     20  N   LIG    1      -20.906  76.440  29.955  0.00  0.00    -0.258 NA
ATOM     21  C   LIG    1      -22.127  76.472  29.491  0.00  0.00    +0.157 A 
ATOM     22  C   LIG    1      -23.225  76.971  30.271  0.00  0.00    +0.156 A 
ATOM     23  N   LIG    1      -24.489  77.033  29.930  0.00  0.00    -0.234 NA
ATOM     24  C   LIG    1      -25.096  77.585  31.028  0.00  0.00    +0.140 A 
ENDBRANCH  13  16
ENDBRANCH   9  10
ENDBRANCH   6   9
ENDBRANCH   2   3
BRANCH   1  25
ATOM     25  O   LIG    1      -28.522  84.312  34.363  0.00  0.00    -0.481 OA
ATOM     26  H   LIG    1      -29.241  84.078  33.741  0.00  0.00    +0.295 HD
ENDBRANCH   1  25
BRANCH   1  27
ATOM     27  N   LIG    1      -29.927  85.854  35.164  0.00  0.00    -0.269 N 
ATOM     28  H   LIG    1      -30.662  86.059  35.829  0.00  0.00    +0.157 HD
BRANCH  27  29
ATOM     29  C   LIG    1      -30.080  86.508  33.919  0.00  0.00    +0.043 A 
ATOM     30  C   LIG    1      -29.383  87.706  33.588  0.00  0.00    +0.005 A 
ATOM     31  C   LIG    1      -29.645  88.256  32.308  0.00  0.00    +0.011 A 
ATOM     32  C   LIG    1      -30.520  87.663  31.390  0.00  0.00    +0.013 A 
ATOM     33  C   LIG    1      -31.164  86.470  31.701  0.00  0.00    +0.057 A 
ATOM     34  C   LIG    1      -30.939  85.912  32.962  0.00  0.00    +0.036 A 
BRANCH  30  35
ATOM     35  C   LIG    1      -28.378  88.394  34.462  0.00  0.00    +0.002 A 
ATOM     36  C   LIG    1      -27.214  87.783  34.934  0.00  0.00    +0.119 A 
ATOM     37  N   LIG    1      -26.265  88.371  35.712  0.00  0.00    -0.263 NA
ATOM     38  C   LIG    1      -26.432  89.676  35.999  0.00  0.00    +0.111 A 
ATOM     39  C   LIG    1      -27.516  90.409  35.564  0.00  0.00    +0.020 A 
ATOM     40  C   LIG    1      -28.497  89.755  34.813  0.00  0.00    +0.011 A 
ENDBRANCH  30  35
BRANCH  33  41
ATOM     41  C   LIG    1      -32.055  85.790  30.692  0.00  0.00    +0.417 C 
ATOM     42  F   LIG    1      -33.234  86.449  30.521  0.00  0.00    -0.166 F 
ATOM     43  F   LIG    1      -32.385  84.522  31.060  0.00  0.00    -0.166 F 
ATOM     44  F   LIG    1      -31.502  85.686  29.452  0.00  0.00    -0.166 F 
ENDBRANCH  33  41
ENDBRANCH  27  29
ENDBRANCH   1  27
TORSDOF 9
ENDMDL
MODEL 2
REMARK VINA RESULT:      -7.6     18.500     21.736
REMARK  Name = pdb/CHEMBL3910954.pdb
REMARK                            x       y       z     vdW  Elec       q    Type
REMARK                         _______ _______ _______ _____ _____    ______ ____
ROOT
ATOM      1  C   LIG    1      -40.330  69.371  21.858  0.00  0.00    +0.285 C 
ATOM      2  N   LIG    1      -39.163  68.843  22.054  0.00  0.00    -0.196 NA
ENDROOT
BRANCH   2   3
ATOM      3  C   LIG    1      -38.467  68.091  21.091  0.00  0.00    +0.105 A 
ATOM      4  C   LIG    1      -37.676  68.742  20.157  0.00  0.00    +0.145 A 
ATOM      5  N   LIG    1      -36.898  68.130  19.234  0.00  0.00    -0.201 NA
ATOM      6  C   LIG    1      -36.849  66.784  19.285  0.00  0.00    +0.323 A 
ATOM      7  N   LIG    1      -37.591  66.031  20.106  0.00  0.00    -0.201 NA
ATOM      8  C   LIG    1      -38.375  66.709  20.980  0.00  0.00    +0.145 A 
BRANCH   6   9
ATOM      9  O   LIG    1      -35.924  66.098  18.499  0.00  0.00    -0.424 OA
BRANCH   9  10
ATOM     10  C   LIG    1      -34.631  66.577  18.469  0.00  0.00    +0.132 A 
ATOM     11  C   LIG    1      -33.843  66.416  19.609  0.00  0.00    +0.047 A 
ATOM     12  C   LIG    1      -32.528  66.906  19.627  0.00  0.00    +0.013 A 
ATOM     13  C   LIG    1      -31.973  67.547  18.506  0.00  0.00    +0.001 A 
ATOM     14  C   LIG    1      -32.760  67.658  17.361  0.00  0.00    +0.013 A 
ATOM     15  C   LIG    1      -34.086  67.238  17.366  0.00  0.00    +0.047 A 
BRANCH  13  16
ATOM     16  C   LIG    1      -30.603  68.060  18.550  0.00  0.00    +0.073 A 
ATOM     17  N   LIG    1      -30.190  69.376  18.389  0.00  0.00    -0.297 N 
ATOM     18  C   LIG    1      -30.846  70.582  18.170  0.00  0.00    +0.113 A 
ATOM     19  C   LIG    1      -30.115  71.702  18.034  0.00  0.00    +0.129 A 
ATOM     20  N   LIG    1      -28.735  71.746  18.116  0.00  0.00    -0.258 NA
ATOM     21  C   LIG    1      -28.114  70.620  18.354  0.00  0.00    +0.157 A 
ATOM     22  C   LIG    1      -28.821  69.379  18.504  0.00  0.00    +0.156 A 
ATOM     23  N   LIG    1      -28.320  68.197  18.766  0.00  0.00    -0.234 NA
ATOM     24  C   LIG    1      -29.417  67.377  18.802  0.00  0.00    +0.140 A 
ENDBRANCH  13  16
ENDBRANCH   9  10
ENDBRANCH   6   9
ENDBRANCH   2   3
BRANCH   1  25
ATOM     25  O   LIG    1      -40.950  69.282  20.674  0.00  0.00    -0.481 OA
ATOM     26  H   LIG    1      -41.921  69.195  20.773  0.00  0.00    +0.295 HD
ENDBRANCH   1  25
BRANCH   1  27
ATOM     27  N   LIG    1      -41.091  70.064  22.763  0.00  0.00    -0.269 N 
ATOM     28  H   LIG    1      -41.919  69.631  23.153  0.00  0.00    +0.157 HD
BRANCH  27  29
ATOM     29  C   LIG    1      -40.928  71.422  23.125  0.00  0.00    +0.043 A 
ATOM     30  C   LIG    1      -41.884  72.425  22.796  0.00  0.00    +0.005 A 
ATOM     31  C   LIG    1      -41.582  73.746  23.213  0.00  0.00    +0.011 A 
ATOM     32  C   LIG    1      -40.425  74.072  23.928  0.00  0.00    +0.013 A 
ATOM     33  C   LIG    1      -39.515  73.081  24.285  0.00  0.00    +0.057 A 
ATOM     34  C   LIG    1      -39.777  71.772  23.873  0.00  0.00    +0.036 A 
BRANCH  30  35
ATOM     35  C   LIG    1      -43.186  72.186  22.091  0.00  0.00    +0.002 A 
ATOM     36  C   LIG    1      -44.407  72.030  22.752  0.00  0.00    +0.119 A 
ATOM     37  N   LIG    1      -45.614  71.830  22.156  0.00  0.00    -0.263 NA
ATOM     38  C   LIG    1      -45.643  71.847  20.809  0.00  0.00    +0.111 A 
ATOM     39  C   LIG    1      -44.516  72.031  20.036  0.00  0.00    +0.020 A 
ATOM     40  C   LIG    1      -43.287  72.179  20.685  0.00  0.00    +0.011 A 
ENDBRANCH  30  35
BRANCH  33  41
ATOM     41  C   LIG    1      -38.300  73.413  25.113  0.00  0.00    +0.417 C 
ATOM     42  F   LIG    1      -38.599  73.543  26.436  0.00  0.00    -0.166 F 
ATOM     43  F   LIG    1      -37.723  74.589  24.743  0.00  0.00    -0.166 F 
ATOM     44  F   LIG    1      -37.314  72.476  25.044  0.00  0.00    -0.166 F 
ENDBRANCH  33  41
ENDBRANCH  27  29
ENDBRANCH   1  27
TORSDOF 9
ENDMDL
MODEL 3
REMARK VINA RESULT:      -7.5     16.988     20.549
REMARK  Name = pdb/CHEMBL3910954.pdb
REMARK                            x       y       z     vdW  Elec       q    Type
REMARK                         _______ _______ _______ _____ _____    ______ ____
ROOT
ATOM      1  C   LIG    1      -37.968  70.669  24.022  0.00  0.00    +0.285 C 
ATOM      2  N   LIG    1      -38.411  69.655  23.347  0.00  0.00    -0.196 NA
ENDROOT
BRANCH   2   3
ATOM      3  C   LIG    1      -37.631  68.904  22.451  0.00  0.00    +0.105 A 
ATOM      4  C   LIG    1      -36.831  67.880  22.934  0.00  0.00    +0.145 A 
ATOM      5  N   LIG    1      -36.099  67.037  22.169  0.00  0.00    -0.201 NA
ATOM      6  C   LIG    1      -36.221  67.176  20.833  0.00  0.00    +0.323 A 
ATOM      7  N   LIG    1      -36.924  68.146  20.236  0.00  0.00    -0.201 NA
ATOM      8  C   LIG    1      -37.604  68.977  21.064  0.00  0.00    +0.145 A 
BRANCH   6   9
ATOM      9  O   LIG    1      -35.653  66.225  19.987  0.00  0.00    -0.424 OA
BRANCH   9  10
ATOM     10  C   LIG    1      -34.408  66.500  19.460  0.00  0.00    +0.132 A 
ATOM     11  C   LIG    1      -33.289  66.266  20.260  0.00  0.00    +0.047 A 
ATOM     12  C   LIG    1      -32.005  66.550  19.769  0.00  0.00    +0.013 A 
ATOM     13  C   LIG    1      -31.816  67.056  18.472  0.00  0.00    +0.001 A 
ATOM     14  C   LIG    1      -32.942  67.241  17.671  0.00  0.00    +0.013 A 
ATOM     15  C   LIG    1      -34.219  67.027  18.181  0.00  0.00    +0.047 A 
BRANCH  13  16
ATOM     16  C   LIG    1      -30.468  67.355  17.984  0.00  0.00    +0.073 A 
ATOM     17  N   LIG    1      -29.786  68.561  18.081  0.00  0.00    -0.297 N 
ATOM     18  C   LIG    1      -30.077  69.802  18.634  0.00  0.00    +0.113 A 
ATOM     19  C   LIG    1      -29.170  70.789  18.525  0.00  0.00    +0.129 A 
ATOM     20  N   LIG    1      -27.940  70.651  17.908  0.00  0.00    -0.258 NA
ATOM     21  C   LIG    1      -27.647  69.477  17.414  0.00  0.00    +0.157 A 
ATOM     22  C   LIG    1      -28.563  68.373  17.482  0.00  0.00    +0.156 A 
ATOM     23  N   LIG    1      -28.380  67.150  17.049  0.00  0.00    -0.234 NA
ATOM     24  C   LIG    1      -29.552  66.513  17.362  0.00  0.00    +0.140 A 
ENDBRANCH  13  16
ENDBRANCH   9  10
ENDBRANCH   6   9
ENDBRANCH   2   3
BRANCH   1  25
ATOM     25  O   LIG    1      -36.687  71.052  23.952  0.00  0.00    -0.481 OA
ATOM     26  H   LIG    1      -36.216  70.627  23.206  0.00  0.00    +0.295 HD
ENDBRANCH   1  25
BRANCH   1  27
ATOM     27  N   LIG    1      -38.681  71.480  24.866  0.00  0.00    -0.269 N 
ATOM     28  H   LIG    1      -38.955  71.133  25.776  0.00  0.00    +0.157 HD
BRANCH  27  29
ATOM     29  C   LIG    1      -39.223  72.747  24.546  0.00  0.00    +0.043 A 
ATOM     30  C   LIG    1      -40.517  72.908  23.974  0.00  0.00    +0.005 A 
ATOM     31  C   LIG    1      -40.924  74.237  23.695  0.00  0.00    +0.011 A 
ATOM     32  C   LIG    1      -40.126  75.352  23.976  0.00  0.00    +0.013 A 
ATOM     33  C   LIG    1      -38.880  75.192  24.576  0.00  0.00    +0.057 A 
ATOM     34  C   LIG    1      -38.444  73.893  24.847  0.00  0.00    +0.036 A 
BRANCH  30  35
ATOM     35  C   LIG    1      -41.484  71.797  23.688  0.00  0.00    +0.002 A 
ATOM     36  C   LIG    1      -42.393  71.302  24.626  0.00  0.00    +0.119 A 
ATOM     37  N   LIG    1      -43.300  70.311  24.408  0.00  0.00    -0.263 NA
ATOM     38  C   LIG    1      -43.369  69.808  23.161  0.00  0.00    +0.111 A 
ATOM     39  C   LIG    1      -42.557  70.235  22.132  0.00  0.00    +0.020 A 
ATOM     40  C   LIG    1      -41.601  71.216  22.409  0.00  0.00    +0.011 A 
ENDBRANCH  30  35
BRANCH  33  41
ATOM     41  C   LIG    1      -38.044  76.391  24.943  0.00  0.00    +0.417 C 
ATOM     42  F   LIG    1      -37.790  77.191  23.870  0.00  0.00    -0.166 F 
ATOM     43  F   LIG    1      -36.827  76.043  25.445  0.00  0.00    -0.166 F 
ATOM     44  F   LIG    1      -38.617  77.196  25.880  0.00  0.00    -0.166 F 
ENDBRANCH  33  41
ENDBRANCH  27  29
ENDBRANCH   1  27
TORSDOF 9
ENDMDL
MODEL 4
REMARK VINA RESULT:      -7.4     16.770     19.946
REMARK  Name = pdb/CHEMBL3910954.pdb
REMARK                            x       y       z     vdW  Elec       q    Type
REMARK                         _______ _______ _______ _____ _____    ______ ____
ROOT
ATOM      1  C   LIG    1      -37.901  71.061  24.167  0.00  0.00    +0.285 C 
ATOM      2  N   LIG    1      -38.312  69.937  23.669  0.00  0.00    -0.196 NA
ENDROOT
BRANCH   2   3
ATOM      3  C   LIG    1      -37.531  69.109  22.844  0.00  0.00    +0.105 A 
ATOM      4  C   LIG    1      -36.622  68.233  23.418  0.00  0.00    +0.145 A 
ATOM      5  N   LIG    1      -35.874  67.332  22.738  0.00  0.00    -0.201 NA
ATOM      6  C   LIG    1      -36.090  67.249  21.410  0.00  0.00    +0.323 A 
ATOM      7  N   LIG    1      -36.904  68.061  20.724  0.00  0.00    -0.201 NA
ATOM      8  C   LIG    1      -37.596  68.962  21.463  0.00  0.00    +0.145 A 
BRANCH   6   9
ATOM      9  O   LIG    1      -35.501  66.218  20.680  0.00  0.00    -0.424 OA
BRANCH   9  10
ATOM     10  C   LIG    1      -34.428  66.537  19.873  0.00  0.00    +0.132 A 
ATOM     11  C   LIG    1      -33.151  66.496  20.432  0.00  0.00    +0.047 A 
ATOM     12  C   LIG    1      -32.034  66.833  19.651  0.00  0.00    +0.013 A 
ATOM     13  C   LIG    1      -32.171  67.197  18.302  0.00  0.00    +0.001 A 
ATOM     14  C   LIG    1      -33.450  67.189  17.748  0.00  0.00    +0.013 A 
ATOM     15  C   LIG    1      -34.565  66.926  18.539  0.00  0.00    +0.047 A 
BRANCH  13  16
ATOM     16  C   LIG    1      -30.993  67.554  17.509  0.00  0.00    +0.073 A 
ATOM     17  N   LIG    1      -30.415  68.810  17.377  0.00  0.00    -0.297 N 
ATOM     18  C   LIG    1      -30.688  70.068  17.903  0.00  0.00    +0.113 A 
ATOM     19  C   LIG    1      -29.918  71.106  17.534  0.00  0.00    +0.129 A 
ATOM     20  N   LIG    1      -28.843  71.009  16.669  0.00  0.00    -0.258 NA
ATOM     21  C   LIG    1      -28.561  69.824  16.196  0.00  0.00    +0.157 A 
ATOM     22  C   LIG    1      -29.339  68.665  16.534  0.00  0.00    +0.156 A 
ATOM     23  N   LIG    1      -29.147  67.428  16.147  0.00  0.00    -0.234 NA
ATOM     24  C   LIG    1      -30.162  66.735  16.752  0.00  0.00    +0.140 A 
ENDBRANCH  13  16
ENDBRANCH   9  10
ENDBRANCH   6   9
ENDBRANCH   2   3
BRANCH   1  25
ATOM     25  O   LIG    1      -36.653  71.501  23.968  0.00  0.00    -0.481 OA
ATOM     26  H   LIG    1      -36.000  70.771  23.972  0.00  0.00    +0.295 HD
ENDBRANCH   1  25
BRANCH   1  27
ATOM     27  N   LIG    1      -38.621  71.944  24.928  0.00  0.00    -0.269 N 
ATOM     28  H   LIG    1      -38.586  71.875  25.938  0.00  0.00    +0.157 HD
BRANCH  27  29
ATOM     29  C   LIG    1      -39.559  72.889  24.449  0.00  0.00    +0.043 A 
ATOM     30  C   LIG    1      -39.442  74.285  24.705  0.00  0.00    +0.005 A 
ATOM     31  C   LIG    1      -40.463  75.112  24.172  0.00  0.00    +0.011 A 
ATOM     32  C   LIG    1      -41.528  74.613  23.414  0.00  0.00    +0.013 A 
ATOM     33  C   LIG    1      -41.614  73.253  23.130  0.00  0.00    +0.057 A 
ATOM     34  C   LIG    1      -40.631  72.410  23.656  0.00  0.00    +0.036 A 
BRANCH  30  35
ATOM     35  C   LIG    1      -38.316  74.941  25.447  0.00  0.00    +0.002 A 
ATOM     36  C   LIG    1      -37.591  76.028  24.953  0.00  0.00    +0.119 A 
ATOM     37  N   LIG    1      -36.576  76.666  25.596  0.00  0.00    -0.263 NA
ATOM     38  C   LIG    1      -36.288  76.254  26.845  0.00  0.00    +0.111 A 
ATOM     39  C   LIG    1      -36.953  75.218  27.467  0.00  0.00    +0.020 A 
ATOM     40  C   LIG    1      -37.952  74.551  26.753  0.00  0.00    +0.011 A 
ENDBRANCH  30  35
BRANCH  33  41
ATOM     41  C   LIG    1      -42.720  72.717  22.258  0.00  0.00    +0.417 C 
ATOM     42  F   LIG    1      -43.418  73.711  21.641  0.00  0.00    -0.166 F 
ATOM     43  F   LIG    1      -43.637  71.998  22.963  0.00  0.00    -0.166 F 
ATOM     44  F   LIG    1      -42.286  71.894  21.263  0.00  0.00    -0.166 F 
ENDBRANCH  33  41
ENDBRANCH  27  29
ENDBRANCH   1  27
TORSDOF 9
ENDMDL
MODEL 5
REMARK VINA RESULT:      -7.3      1.199      1.970
REMARK  Name = pdb/CHEMBL3910954.pdb
REMARK                            x       y       z     vdW  Elec       q    Type
REMARK                         _______ _______ _______ _____ _____    ______ ____
ROOT
ATOM      1  C   LIG    1      -29.746  84.941  34.948  0.00  0.00    +0.285 C 
ATOM      2  N   LIG    1      -29.299  85.035  36.161  0.00  0.00    -0.196 NA
ENDROOT
BRANCH   2   3
ATOM      3  C   LIG    1      -28.250  84.253  36.676  0.00  0.00    +0.105 A 
ATOM      4  C   LIG    1      -28.539  83.052  37.305  0.00  0.00    +0.145 A 
ATOM      5  N   LIG    1      -27.618  82.175  37.770  0.00  0.00    -0.201 NA
ATOM      6  C   LIG    1      -26.326  82.478  37.535  0.00  0.00    +0.323 A 
ATOM      7  N   LIG    1      -25.907  83.621  36.977  0.00  0.00    -0.201 NA
ATOM      8  C   LIG    1      -26.882  84.469  36.568  0.00  0.00    +0.145 A 
BRANCH   6   9
ATOM      9  O   LIG    1      -25.336  81.536  37.808  0.00  0.00    -0.424 OA
BRANCH   9  10
ATOM     10  C   LIG    1      -24.822  80.821  36.745  0.00  0.00    +0.132 A 
ATOM     11  C   LIG    1      -25.505  79.678  36.330  0.00  0.00    +0.047 A 
ATOM     12  C   LIG    1      -25.006  78.912  35.266  0.00  0.00    +0.013 A 
ATOM     13  C   LIG    1      -23.832  79.281  34.589  0.00  0.00    +0.001 A 
ATOM     14  C   LIG    1      -23.189  80.452  34.988  0.00  0.00    +0.013 A 
ATOM     15  C   LIG    1      -23.641  81.172  36.089  0.00  0.00    +0.047 A 
BRANCH  13  16
ATOM     16  C   LIG    1      -23.324  78.462  33.487  0.00  0.00    +0.073 A 
ATOM     17  N   LIG    1      -24.065  77.709  32.586  0.00  0.00    -0.297 N 
ATOM     18  C   LIG    1      -25.423  77.485  32.389  0.00  0.00    +0.113 A 
ATOM     19  C   LIG    1      -25.806  76.653  31.406  0.00  0.00    +0.129 A 
ATOM     20  N   LIG    1      -24.935  76.006  30.548  0.00  0.00    -0.258 NA
ATOM     21  C   LIG    1      -23.659  76.238  30.707  0.00  0.00    +0.157 A 
ATOM     22  C   LIG    1      -23.165  77.108  31.738  0.00  0.00    +0.156 A 
ATOM     23  N   LIG    1      -21.921  77.437  31.984  0.00  0.00    -0.234 NA
ATOM     24  C   LIG    1      -22.013  78.279  33.061  0.00  0.00    +0.140 A 
ENDBRANCH  13  16
ENDBRANCH   9  10
ENDBRANCH   6   9
ENDBRANCH   2   3
BRANCH   1  25
ATOM     25  O   LIG    1      -29.192  84.107  34.059  0.00  0.00    -0.481 OA
ATOM     26  H   LIG    1      -29.321  84.412  33.138  0.00  0.00    +0.295 HD
ENDBRANCH   1  25
BRANCH   1  27
ATOM     27  N   LIG    1      -30.797  85.625  34.395  0.00  0.00    -0.269 N 
ATOM     28  H   LIG    1      -31.726  85.507  34.780  0.00  0.00    +0.157 HD
BRANCH  27  29
ATOM     29  C   LIG    1      -30.759  86.400  33.212  0.00  0.00    +0.043 A 
ATOM     30  C   LIG    1      -29.851  87.481  33.029  0.00  0.00    +0.005 A 
ATOM     31  C   LIG    1      -29.936  88.176  31.796  0.00  0.00    +0.011 A 
ATOM     32  C   LIG    1      -30.840  87.827  30.787  0.00  0.00    +0.013 A 
ATOM     33  C   LIG    1      -31.695  86.742  30.953  0.00  0.00    +0.057 A 
ATOM     34  C   LIG    1      -31.647  86.047  32.164  0.00  0.00    +0.036 A 
BRANCH  30  35
ATOM     35  C   LIG    1      -28.799  87.906  34.009  0.00  0.00    +0.002 A 
ATOM     36  C   LIG    1      -27.555  87.281  34.131  0.00  0.00    +0.119 A 
ATOM     37  N   LIG    1      -26.564  87.641  34.991  0.00  0.00    -0.263 NA
ATOM     38  C   LIG    1      -26.777  88.736  35.746  0.00  0.00    +0.111 A 
ATOM     39  C   LIG    1      -27.944  89.470  35.695  0.00  0.00    +0.020 A 
ATOM     40  C   LIG    1      -28.960  89.035  34.839  0.00  0.00    +0.011 A 
ENDBRANCH  30  35
BRANCH  33  41
ATOM     41  C   LIG    1      -32.625  86.317  29.844  0.00  0.00    +0.417 C 
ATOM     42  F   LIG    1      -32.966  87.356  29.033  0.00  0.00    -0.166 F 
ATOM     43  F   LIG    1      -33.797  85.808  30.314  0.00  0.00    -0.166 F 
ATOM     44  F   LIG    1      -32.105  85.361  29.026  0.00  0.00    -0.166 F 
ENDBRANCH  33  41
ENDBRANCH  27  29
ENDBRANCH   1  27
TORSDOF 9
ENDMDL
MODEL 6
REMARK VINA RESULT:      -7.1      7.512     11.344
REMARK  Name = pdb/CHEMBL3910954.pdb
REMARK                            x       y       z     vdW  Elec       q    Type
REMARK                         _______ _______ _______ _____ _____    ______ ____
ROOT
ATOM      1  C   LIG    1      -24.193  77.500  33.976  0.00  0.00    +0.285 C 
ATOM      2  N   LIG    1      -25.201  78.099  33.424  0.00  0.00    -0.196 NA
ENDROOT
BRANCH   2   3
ATOM      3  C   LIG    1      -26.411  77.463  33.095  0.00  0.00    +0.105 A 
ATOM      4  C   LIG    1      -26.572  76.911  31.834  0.00  0.00    +0.145 A 
ATOM      5  N   LIG    1      -27.653  76.206  31.425  0.00  0.00    -0.201 NA
ATOM      6  C   LIG    1      -28.608  75.977  32.349  0.00  0.00    +0.323 A 
ATOM      7  N   LIG    1      -28.599  76.486  33.587  0.00  0.00    -0.201 NA
ATOM      8  C   LIG    1      -27.502  77.211  33.918  0.00  0.00    +0.145 A 
BRANCH   6   9
ATOM      9  O   LIG    1      -29.651  75.100  32.059  0.00  0.00    -0.424 OA
BRANCH   9  10
ATOM     10  C   LIG    1      -30.665  75.559  31.244  0.00  0.00    +0.132 A 
ATOM     11  C   LIG    1      -31.901  75.841  31.827  0.00  0.00    +0.047 A 
ATOM     12  C   LIG    1      -32.965  76.292  31.030  0.00  0.00    +0.013 A 
ATOM     13  C   LIG    1      -32.809  76.486  29.647  0.00  0.00    +0.001 A 
ATOM     14  C   LIG    1      -31.555  76.243  29.090  0.00  0.00    +0.013 A 
ATOM     15  C   LIG    1      -30.521  75.727  29.865  0.00  0.00    +0.047 A 
BRANCH  13  16
ATOM     16  C   LIG    1      -33.936  76.948  28.834  0.00  0.00    +0.073 A 
ATOM     17  N   LIG    1      -34.654  78.127  28.981  0.00  0.00    -0.297 N 
ATOM     18  C   LIG    1      -34.576  79.212  29.847  0.00  0.00    +0.113 A 
ATOM     19  C   LIG    1      -35.474  80.205  29.722  0.00  0.00    +0.129 A 
ATOM     20  N   LIG    1      -36.474  80.237  28.767  0.00  0.00    -0.258 NA
ATOM     21  C   LIG    1      -36.532  79.234  27.930  0.00  0.00    +0.157 A 
ATOM     22  C   LIG    1      -35.616  78.130  28.000  0.00  0.00    +0.156 A 
ATOM     23  N   LIG    1      -35.556  77.086  27.211  0.00  0.00    -0.234 NA
ATOM     24  C   LIG    1      -34.515  76.353  27.718  0.00  0.00    +0.140 A 
ENDBRANCH  13  16
ENDBRANCH   9  10
ENDBRANCH   6   9
ENDBRANCH   2   3
BRANCH   1  25
ATOM     25  O   LIG    1      -24.253  76.210  34.331  0.00  0.00    -0.481 OA
ATOM     26  H   LIG    1      -25.171  75.869  34.326  0.00  0.00    +0.295 HD
ENDBRANCH   1  25
BRANCH   1  27
ATOM     27  N   LIG    1      -22.968  78.037  34.272  0.00  0.00    -0.269 N 
ATOM     28  H   LIG    1      -22.827  78.496  35.163  0.00  0.00    +0.157 HD
BRANCH  27  29
ATOM     29  C   LIG    1      -21.872  78.157  33.384  0.00  0.00    +0.043 A 
ATOM     30  C   LIG    1      -20.708  78.915  33.697  0.00  0.00    +0.005 A 
ATOM     31  C   LIG    1      -19.696  78.956  32.706  0.00  0.00    +0.011 A 
ATOM     32  C   LIG    1      -19.799  78.280  31.485  0.00  0.00    +0.013 A 
ATOM     33  C   LIG    1      -20.919  77.505  31.202  0.00  0.00    +0.057 A 
ATOM     34  C   LIG    1      -21.942  77.459  32.153  0.00  0.00    +0.036 A 
BRANCH  30  35
ATOM     35  C   LIG    1      -20.459  79.627  34.993  0.00  0.00    +0.002 A 
ATOM     36  C   LIG    1      -19.537  79.195  35.950  0.00  0.00    +0.119 A 
ATOM     37  N   LIG    1      -19.263  79.816  37.129  0.00  0.00    -0.263 NA
ATOM     38  C   LIG    1      -19.890  80.984  37.366  0.00  0.00    +0.111 A 
ATOM     39  C   LIG    1      -20.794  81.543  36.488  0.00  0.00    +0.020 A 
ATOM     40  C   LIG    1      -21.090  80.847  35.312  0.00  0.00    +0.011 A 
ENDBRANCH  30  35
BRANCH  33  41
ATOM     41  C   LIG    1      -21.008  76.719  29.918  0.00  0.00    +0.417 C 
ATOM     42  F   LIG    1      -19.961  76.974  29.085  0.00  0.00    -0.166 F 
ATOM     43  F   LIG    1      -22.132  77.010  29.207  0.00  0.00    -0.166 F 
ATOM     44  F   LIG    1      -21.020  75.370  30.099  0.00  0.00    -0.166 F 
ENDBRANCH  33  41
ENDBRANCH  27  29
ENDBRANCH   1  27
TORSDOF 9
ENDMDL
MODEL 7
REMARK VINA RESULT:      -7.0      7.875     11.200
REMARK  Name = pdb/CHEMBL3910954.pdb
REMARK                            x       y       z     vdW  Elec       q    Type
REMARK                         _______ _______ _______ _____ _____    ______ ____
ROOT
ATOM      1  C   LIG    1      -23.678  77.855  33.618  0.00  0.00    +0.285 C 
ATOM      2  N   LIG    1      -24.444  76.813  33.697  0.00  0.00    -0.196 NA
ENDROOT
BRANCH   2   3
ATOM      3  C   LIG    1      -25.740  76.746  33.155  0.00  0.00    +0.105 A 
ATOM      4  C   LIG    1      -26.821  77.162  33.917  0.00  0.00    +0.145 A 
ATOM      5  N   LIG    1      -28.102  77.221  33.483  0.00  0.00    -0.201 NA
ATOM      6  C   LIG    1      -28.314  76.912  32.188  0.00  0.00    +0.323 A 
ATOM      7  N   LIG    1      -27.370  76.457  31.355  0.00  0.00    -0.201 NA
ATOM      8  C   LIG    1      -26.117  76.388  31.866  0.00  0.00    +0.145 A 
BRANCH   6   9
ATOM      9  O   LIG    1      -29.568  77.137  31.622  0.00  0.00    -0.424 OA
BRANCH   9  10
ATOM     10  C   LIG    1      -30.264  76.042  31.153  0.00  0.00    +0.132 A 
ATOM     11  C   LIG    1      -30.765  76.089  29.852  0.00  0.00    +0.047 A 
ATOM     12  C   LIG    1      -31.495  75.004  29.342  0.00  0.00    +0.013 A 
ATOM     13  C   LIG    1      -31.721  73.852  30.113  0.00  0.00    +0.001 A 
ATOM     14  C   LIG    1      -31.175  73.804  31.395  0.00  0.00    +0.013 A 
ATOM     15  C   LIG    1      -30.513  74.907  31.927  0.00  0.00    +0.047 A 
BRANCH  13  16
ATOM     16  C   LIG    1      -32.494  72.735  29.565  0.00  0.00    +0.073 A 
ATOM     17  N   LIG    1      -32.210  71.380  29.673  0.00  0.00    -0.297 N 
ATOM     18  C   LIG    1      -31.207  70.642  30.291  0.00  0.00    +0.113 A 
ATOM     19  C   LIG    1      -31.222  69.303  30.173  0.00  0.00    +0.129 A 
ATOM     20  N   LIG    1      -32.188  68.592  29.485  0.00  0.00    -0.258 NA
ATOM     21  C   LIG    1      -33.151  69.278  28.929  0.00  0.00    +0.157 A 
ATOM     22  C   LIG    1      -33.206  70.712  29.002  0.00  0.00    +0.156 A 
ATOM     23  N   LIG    1      -34.124  71.507  28.510  0.00  0.00    -0.234 NA
ATOM     24  C   LIG    1      -33.693  72.760  28.861  0.00  0.00    +0.140 A 
ENDBRANCH  13  16
ENDBRANCH   9  10
ENDBRANCH   6   9
ENDBRANCH   2   3
BRANCH   1  25
ATOM     25  O   LIG    1      -24.055  78.953  32.952  0.00  0.00    -0.481 OA
ATOM     26  H   LIG    1      -23.311  79.360  32.462  0.00  0.00    +0.295 HD
ENDBRANCH   1  25
BRANCH   1  27
ATOM     27  N   LIG    1      -22.433  78.013  34.168  0.00  0.00    -0.269 N 
ATOM     28  H   LIG    1      -22.342  78.131  35.169  0.00  0.00    +0.157 HD
BRANCH  27  29
ATOM     29  C   LIG    1      -21.221  78.180  33.458  0.00  0.00    +0.043 A 
ATOM     30  C   LIG    1      -20.201  79.082  33.877  0.00  0.00    +0.005 A 
ATOM     31  C   LIG    1      -19.046  79.154  33.059  0.00  0.00    +0.011 A 
ATOM     32  C   LIG    1      -18.880  78.376  31.907  0.00  0.00    +0.013 A 
ATOM     33  C   LIG    1      -19.860  77.465  31.526  0.00  0.00    +0.057 A 
ATOM     34  C   LIG    1      -21.018  77.383  32.303  0.00  0.00    +0.036 A 
BRANCH  30  35
ATOM     35  C   LIG    1      -20.239  79.917  35.122  0.00  0.00    +0.002 A 
ATOM     36  C   LIG    1      -19.439  79.675  36.241  0.00  0.00    +0.119 A 
ATOM     37  N   LIG    1      -19.425  80.414  37.384  0.00  0.00    -0.263 NA
ATOM     38  C   LIG    1      -20.205  81.511  37.413  0.00  0.00    +0.111 A 
ATOM     39  C   LIG    1      -21.014  81.887  36.361  0.00  0.00    +0.020 A 
ATOM     40  C   LIG    1      -21.042  81.071  35.226  0.00  0.00    +0.011 A 
ENDBRANCH  30  35
BRANCH  33  41
ATOM     41  C   LIG    1      -19.659  76.575  30.325  0.00  0.00    +0.417 C 
ATOM     42  F   LIG    1      -20.338  77.024  29.233  0.00  0.00    -0.166 F 
ATOM     43  F   LIG    1      -20.095  75.304  30.540  0.00  0.00    -0.166 F 
ATOM     44  F   LIG    1      -18.359  76.462  29.935  0.00  0.00    -0.166 F 
ENDBRANCH  33  41
ENDBRANCH  27  29
ENDBRANCH   1  27
TORSDOF 9
ENDMDL
MODEL 8
REMARK VINA RESULT:      -7.0      7.687     11.114
REMARK  Name = pdb/CHEMBL3910954.pdb
REMARK                            x       y       z     vdW  Elec       q    Type
REMARK                         _______ _______ _______ _____ _____    ______ ____
ROOT
ATOM      1  C   LIG    1      -24.032  78.047  34.043  0.00  0.00    +0.285 C 
ATOM      2  N   LIG    1      -24.753  77.060  33.612  0.00  0.00    -0.196 NA
ENDROOT
BRANCH   2   3
ATOM      3  C   LIG    1      -26.128  77.153  33.334  0.00  0.00    +0.105 A 
ATOM      4  C   LIG    1      -26.561  77.138  32.016  0.00  0.00    +0.145 A 
ATOM      5  N   LIG    1      -27.857  77.140  31.623  0.00  0.00    -0.201 NA
ATOM      6  C   LIG    1      -28.783  77.084  32.601  0.00  0.00    +0.323 A 
ATOM      7  N   LIG    1      -28.505  77.135  33.910  0.00  0.00    -0.201 NA
ATOM      8  C   LIG    1      -27.189  77.168  34.231  0.00  0.00    +0.145 A 
BRANCH   6   9
ATOM      9  O   LIG    1      -30.123  76.887  32.270  0.00  0.00    -0.424 OA
BRANCH   9  10
ATOM     10  C   LIG    1      -30.477  75.663  31.743  0.00  0.00    +0.132 A 
ATOM     11  C   LIG    1      -30.798  75.599  30.386  0.00  0.00    +0.047 A 
ATOM     12  C   LIG    1      -31.183  74.377  29.814  0.00  0.00    +0.013 A 
ATOM     13  C   LIG    1      -31.237  73.199  30.578  0.00  0.00    +0.001 A 
ATOM     14  C   LIG    1      -30.869  73.273  31.921  0.00  0.00    +0.013 A 
ATOM     15  C   LIG    1      -30.558  74.496  32.506  0.00  0.00    +0.047 A 
BRANCH  13  16
ATOM     16  C   LIG    1      -31.651  71.936  29.963  0.00  0.00    +0.073 A 
ATOM     17  N   LIG    1      -32.816  71.689  29.249  0.00  0.00    -0.297 N 
ATOM     18  C   LIG    1      -33.907  72.462  28.868  0.00  0.00    +0.113 A 
ATOM     19  C   LIG    1      -34.905  71.880  28.182  0.00  0.00    +0.129 A 
ATOM     20  N   LIG    1      -34.918  70.550  27.803  0.00  0.00    -0.258 NA
ATOM     21  C   LIG    1      -33.881  69.825  28.131  0.00  0.00    +0.157 A 
ATOM     22  C   LIG    1      -32.776  70.368  28.871  0.00  0.00    +0.156 A 
ATOM     23  N   LIG    1      -31.676  69.757  29.236  0.00  0.00    -0.234 NA
ATOM     24  C   LIG    1      -30.973  70.723  29.907  0.00  0.00    +0.140 A 
ENDBRANCH  13  16
ENDBRANCH   9  10
ENDBRANCH   6   9
ENDBRANCH   2   3
BRANCH   1  25
ATOM     25  O   LIG    1      -24.547  79.272  34.209  0.00  0.00    -0.481 OA
ATOM     26  H   LIG    1      -23.905  79.889  34.616  0.00  0.00    +0.295 HD
ENDBRANCH   1  25
BRANCH   1  27
ATOM     27  N   LIG    1      -22.706  78.018  34.389  0.00  0.00    -0.269 N 
ATOM     28  H   LIG    1      -22.447  77.978  35.367  0.00  0.00    +0.157 HD
BRANCH  27  29
ATOM     29  C   LIG    1      -21.610  78.186  33.511  0.00  0.00    +0.043 A 
ATOM     30  C   LIG    1      -20.510  79.040  33.808  0.00  0.00    +0.005 A 
ATOM     31  C   LIG    1      -19.489  79.119  32.828  0.00  0.00    +0.011 A 
ATOM     32  C   LIG    1      -19.523  78.392  31.633  0.00  0.00    +0.013 A 
ATOM     33  C   LIG    1      -20.579  77.525  31.367  0.00  0.00    +0.057 A 
ATOM     34  C   LIG    1      -21.609  77.438  32.306  0.00  0.00    +0.036 A 
BRANCH  30  35
ATOM     35  C   LIG    1      -20.333  79.817  35.079  0.00  0.00    +0.002 A 
ATOM     36  C   LIG    1      -19.396  79.490  36.062  0.00  0.00    +0.119 A 
ATOM     37  N   LIG    1      -19.186  80.174  37.220  0.00  0.00    -0.263 NA
ATOM     38  C   LIG    1      -19.902  81.300  37.404  0.00  0.00    +0.111 A 
ATOM     39  C   LIG    1      -20.832  81.757  36.494  0.00  0.00    +0.020 A 
ATOM     40  C   LIG    1      -21.057  80.997  35.342  0.00  0.00    +0.011 A 
ENDBRANCH  30  35
BRANCH  33  41
ATOM     41  C   LIG    1      -20.590  76.688  30.113  0.00  0.00    +0.417 C 
ATOM     42  F   LIG    1      -21.675  76.946  29.331  0.00  0.00    -0.166 F 
ATOM     43  F   LIG    1      -20.630  75.353  30.379  0.00  0.00    -0.166 F 
ATOM     44  F   LIG    1      -19.502  76.876  29.316  0.00  0.00    -0.166 F 
ENDBRANCH  33  41
ENDBRANCH  27  29
ENDBRANCH   1  27
TORSDOF 9
ENDMDL
MODEL 9
REMARK VINA RESULT:      -6.9      7.916     11.301
REMARK  Name = pdb/CHEMBL3910954.pdb
REMARK                            x       y       z     vdW  Elec       q    Type
REMARK                         _______ _______ _______ _____ _____    ______ ____
ROOT
ATOM      1  C   LIG    1      -24.246  77.538  33.850  0.00  0.00    +0.285 C 
ATOM      2  N   LIG    1      -24.582  76.286  33.879  0.00  0.00    -0.196 NA
ENDROOT
BRANCH   2   3
ATOM      3  C   LIG    1      -25.871  75.809  33.584  0.00  0.00    +0.105 A 
ATOM      4  C   LIG    1      -26.142  75.312  32.319  0.00  0.00    +0.145 A 
ATOM      5  N   LIG    1      -27.315  74.753  31.937  0.00  0.00    -0.201 NA
ATOM      6  C   LIG    1      -28.256  74.617  32.892  0.00  0.00    +0.323 A 
ATOM      7  N   LIG    1      -28.142  75.090  34.140  0.00  0.00    -0.201 NA
ATOM      8  C   LIG    1      -26.954  75.669  34.443  0.00  0.00    +0.145 A 
BRANCH   6   9
ATOM      9  O   LIG    1      -29.408  73.879  32.624  0.00  0.00    -0.424 OA
BRANCH   9  10
ATOM     10  C   LIG    1      -30.245  74.339  31.629  0.00  0.00    +0.132 A 
ATOM     11  C   LIG    1      -30.685  75.661  31.698  0.00  0.00    +0.047 A 
ATOM     12  C   LIG    1      -31.552  76.163  30.716  0.00  0.00    +0.013 A 
ATOM     13  C   LIG    1      -31.980  75.363  29.643  0.00  0.00    +0.001 A 
ATOM     14  C   LIG    1      -31.494  74.059  29.566  0.00  0.00    +0.013 A 
ATOM     15  C   LIG    1      -30.693  73.538  30.576  0.00  0.00    +0.047 A 
BRANCH  13  16
ATOM     16  C   LIG    1      -32.894  75.904  28.635  0.00  0.00    +0.073 A 
ATOM     17  N   LIG    1      -34.221  75.552  28.424  0.00  0.00    -0.297 N 
ATOM     18  C   LIG    1      -35.101  74.666  29.034  0.00  0.00    +0.113 A 
ATOM     19  C   LIG    1      -36.348  74.552  28.545  0.00  0.00    +0.129 A 
ATOM     20  N   LIG    1      -36.834  75.280  27.474  0.00  0.00    -0.258 NA
ATOM     21  C   LIG    1      -36.021  76.138  26.917  0.00  0.00    +0.157 A 
ATOM     22  C   LIG    1      -34.671  76.315  27.373  0.00  0.00    +0.156 A 
ATOM     23  N   LIG    1      -33.772  77.153  26.918  0.00  0.00    -0.234 NA
ATOM     24  C   LIG    1      -32.673  76.908  27.698  0.00  0.00    +0.140 A 
ENDBRANCH  13  16
ENDBRANCH   9  10
ENDBRANCH   6   9
ENDBRANCH   2   3
BRANCH   1  25
ATOM     25  O   LIG    1      -25.113  78.487  33.475  0.00  0.00    -0.481 OA
ATOM     26  H   LIG    1      -25.387  78.387  32.540  0.00  0.00    +0.295 HD
ENDBRANCH   1  25
BRANCH   1  27
ATOM     27  N   LIG    1      -23.032  78.080  34.179  0.00  0.00    -0.269 N 
ATOM     28  H   LIG    1      -22.919  78.543  35.072  0.00  0.00    +0.157 HD
BRANCH  27  29
ATOM     29  C   LIG    1      -21.911  78.198  33.325  0.00  0.00    +0.043 A 
ATOM     30  C   LIG    1      -20.761  78.966  33.666  0.00  0.00    +0.005 A 
ATOM     31  C   LIG    1      -19.719  79.004  32.706  0.00  0.00    +0.011 A 
ATOM     32  C   LIG    1      -19.781  78.316  31.489  0.00  0.00    +0.013 A 
ATOM     33  C   LIG    1      -20.887  77.532  31.179  0.00  0.00    +0.057 A 
ATOM     34  C   LIG    1      -21.939  77.489  32.098  0.00  0.00    +0.036 A 
BRANCH  30  35
ATOM     35  C   LIG    1      -20.555  79.691  34.963  0.00  0.00    +0.002 A 
ATOM     36  C   LIG    1      -19.629  79.298  35.932  0.00  0.00    +0.119 A 
ATOM     37  N   LIG    1      -19.394  79.933  37.112  0.00  0.00    -0.263 NA
ATOM     38  C   LIG    1      -20.069  81.076  37.337  0.00  0.00    +0.111 A 
ATOM     39  C   LIG    1      -20.983  81.598  36.446  0.00  0.00    +0.020 A 
ATOM     40  C   LIG    1      -21.237  80.887  35.269  0.00  0.00    +0.011 A 
ENDBRANCH  30  35
BRANCH  33  41
ATOM     41  C   LIG    1      -20.932  76.735  29.900  0.00  0.00    +0.417 C 
ATOM     42  F   LIG    1      -22.032  77.025  29.151  0.00  0.00    -0.166 F 
ATOM     43  F   LIG    1      -20.976  75.393  30.125  0.00  0.00    -0.166 F 
ATOM     44  F   LIG    1      -19.861  76.941  29.085  0.00  0.00    -0.166 F 
ENDBRANCH  33  41
ENDBRANCH  27  29
ENDBRANCH   1  27
TORSDOF 9
ENDMDL
