MODEL 1
REMARK VINA RESULT:      -7.1      0.000      0.000
REMARK  Name = pdb/CHEMBL3941491.pdb
REMARK                            x       y       z     vdW  Elec       q    Type
REMARK                         _______ _______ _______ _____ _____    ______ ____
ROOT
ATOM      1  C   LIG    1      -36.122  69.409  25.395  0.00  0.00    +0.149 A 
ATOM      2  N   LIG    1      -37.110  70.318  25.332  0.00  0.00    -0.160 NA
ATOM      3  N   LIG    1      -36.628  71.411  26.004  0.00  0.00    -0.218 N 
ATOM      4  C   LIG    1      -35.299  71.214  26.409  0.00  0.00    +0.129 A 
ATOM      5  C   LIG    1      -35.018  69.900  26.120  0.00  0.00    +0.078 A 
ENDROOT
BRANCH   3   6
ATOM      6  C   LIG    1      -37.425  72.591  26.107  0.00  0.00    +0.067 A 
ATOM      7  C   LIG    1      -37.739  73.174  27.342  0.00  0.00    +0.028 A 
ATOM      8  C   LIG    1      -38.462  74.374  27.388  0.00  0.00    +0.002 A 
ATOM      9  C   LIG    1      -38.881  74.991  26.211  0.00  0.00    +0.000 A 
ATOM     10  C   LIG    1      -38.609  74.396  24.983  0.00  0.00    +0.002 A 
ATOM     11  C   LIG    1      -37.899  73.192  24.928  0.00  0.00    +0.028 A 
ENDBRANCH   3   6
BRANCH   4  12
ATOM     12  N   LIG    1      -34.390  72.170  26.889  0.00  0.00    -0.266 N 
ATOM     13  H   LIG    1      -33.723  72.555  26.233  0.00  0.00    +0.157 HD
ATOM     14  C   LIG    1      -34.242  72.496  28.287  0.00  0.00    +0.251 C 
ATOM     15  O   LIG    1      -34.934  71.976  29.138  0.00  0.00    -0.270 OA
BRANCH  14  16
ATOM     16  C   LIG    1      -33.246  73.523  28.676  0.00  0.00    +0.056 A 
ATOM     17  C   LIG    1      -32.078  73.253  29.389  0.00  0.00    +0.056 A 
ATOM     18 CL   LIG    1      -31.589  71.664  29.850  0.00  0.00    -0.083 Cl
ATOM     19  C   LIG    1      -31.250  74.306  29.771  0.00  0.00    +0.059 A 
ATOM     20  C   LIG    1      -31.557  75.618  29.407  0.00  0.00    +0.134 A 
ATOM     21  F   LIG    1      -30.687  76.567  29.782  0.00  0.00    -0.205 F 
ATOM     22  C   LIG    1      -32.702  75.939  28.662  0.00  0.00    +0.039 A 
ATOM     23  C   LIG    1      -33.551  74.862  28.331  0.00  0.00    +0.027 A 
BRANCH  22  24
ATOM     24  C   LIG    1      -33.012  77.332  28.269  0.00  0.00    +0.109 A 
ATOM     25  C   LIG    1      -32.477  77.956  27.138  0.00  0.00    +0.149 A 
ATOM     26  F   LIG    1      -31.576  77.341  26.358  0.00  0.00    -0.203 F 
ATOM     27  C   LIG    1      -32.869  79.249  26.805  0.00  0.00    +0.042 A 
ATOM     28  C   LIG    1      -33.773  79.914  27.624  0.00  0.00    +0.023 A 
ATOM     29  C   LIG    1      -34.237  79.254  28.748  0.00  0.00    +0.111 A 
ATOM     30  N   LIG    1      -33.891  77.986  29.072  0.00  0.00    -0.252 NA
ENDBRANCH  22  24
ENDBRANCH  14  16
ENDBRANCH   4  12
BRANCH   1  32
ATOM     31  N   LIG    1      -36.526  68.071  23.469  0.00  0.00    -0.246 NA
ATOM     32  C   LIG    1      -36.210  68.118  24.710  0.00  0.00    +0.236 C 
BRANCH  31  37
ATOM     33  C   LIG    1      -39.138  66.531  19.724  0.00  0.00    +0.041 C 
ATOM     34  C   LIG    1      -38.760  67.589  20.767  0.00  0.00    +0.063 C 
ATOM     35  C   LIG    1      -37.286  68.006  20.622  0.00  0.00    +0.036 C 
ATOM     36  C   LIG    1      -36.299  67.039  21.287  0.00  0.00    +0.029 C 
ATOM     37  C   LIG    1      -36.633  66.788  22.765  0.00  0.00    +0.109 C 
ATOM     38  C   LIG    1      -38.056  66.222  22.842  0.00  0.00    +0.029 C 
ATOM     39  C   LIG    1      -39.097  67.143  22.201  0.00  0.00    +0.036 C 
BRANCH  34  40
ATOM     40  O   LIG    1      -39.584  68.736  20.496  0.00  0.00    -0.389 OA
ATOM     41  H   LIG    1      -40.164  68.879  21.262  0.00  0.00    +0.210 HD
ENDBRANCH  34  40
ENDBRANCH  31  37
BRANCH  32  42
ATOM     42  O   LIG    1      -35.975  67.041  25.490  0.00  0.00    -0.491 OA
ATOM     43  H   LIG    1      -35.859  66.260  24.913  0.00  0.00    +0.294 HD
ENDBRANCH  32  42
ENDBRANCH   1  32
TORSDOF 8
ENDMDL
MODEL 2
REMARK VINA RESULT:      -6.6      7.349     13.378
REMARK  Name = pdb/CHEMBL3941491.pdb
REMARK                            x       y       z     vdW  Elec       q    Type
REMARK                         _______ _______ _______ _____ _____    ______ ____
ROOT
ATOM      1  C   LIG    1      -35.457  81.769  30.333  0.00  0.00    +0.149 A 
ATOM      2  N   LIG    1      -34.381  81.023  30.027  0.00  0.00    -0.160 NA
ATOM      3  N   LIG    1      -34.817  80.156  29.059  0.00  0.00    -0.218 N 
ATOM      4  C   LIG    1      -36.145  80.423  28.696  0.00  0.00    +0.129 A 
ATOM      5  C   LIG    1      -36.584  81.374  29.585  0.00  0.00    +0.078 A 
ENDROOT
BRANCH   3   6
ATOM      6  C   LIG    1      -33.905  79.222  28.479  0.00  0.00    +0.067 A 
ATOM      7  C   LIG    1      -33.730  77.931  28.996  0.00  0.00    +0.028 A 
ATOM      8  C   LIG    1      -32.879  77.025  28.348  0.00  0.00    +0.002 A 
ATOM      9  C   LIG    1      -32.196  77.402  27.193  0.00  0.00    +0.000 A 
ATOM     10  C   LIG    1      -32.333  78.695  26.697  0.00  0.00    +0.002 A 
ATOM     11  C   LIG    1      -33.170  79.609  27.345  0.00  0.00    +0.028 A 
ENDBRANCH   3   6
BRANCH   4  12
ATOM     12  N   LIG    1      -36.854  79.934  27.587  0.00  0.00    -0.266 N 
ATOM     13  H   LIG    1      -36.985  80.558  26.801  0.00  0.00    +0.157 HD
ATOM     14  C   LIG    1      -37.549  78.670  27.581  0.00  0.00    +0.251 C 
ATOM     15  O   LIG    1      -37.529  77.930  28.542  0.00  0.00    -0.270 OA
BRANCH  14  16
ATOM     16  C   LIG    1      -38.267  78.259  26.351  0.00  0.00    +0.056 A 
ATOM     17  C   LIG    1      -38.075  77.040  25.700  0.00  0.00    +0.056 A 
ATOM     18 CL   LIG    1      -37.025  75.803  26.285  0.00  0.00    -0.083 Cl
ATOM     19  C   LIG    1      -38.746  76.788  24.506  0.00  0.00    +0.059 A 
ATOM     20  C   LIG    1      -39.640  77.725  23.983  0.00  0.00    +0.134 A 
ATOM     21  F   LIG    1      -40.273  77.387  22.850  0.00  0.00    -0.205 F 
ATOM     22  C   LIG    1      -39.894  78.951  24.617  0.00  0.00    +0.039 A 
ATOM     23  C   LIG    1      -39.164  79.205  25.797  0.00  0.00    +0.027 A 
BRANCH  22  24
ATOM     24  C   LIG    1      -40.853  79.932  24.062  0.00  0.00    +0.109 A 
ATOM     25  C   LIG    1      -40.471  81.092  23.382  0.00  0.00    +0.149 A 
ATOM     26  F   LIG    1      -39.181  81.432  23.246  0.00  0.00    -0.203 F 
ATOM     27  C   LIG    1      -41.439  81.931  22.837  0.00  0.00    +0.042 A 
ATOM     28  C   LIG    1      -42.780  81.613  23.003  0.00  0.00    +0.023 A 
ATOM     29  C   LIG    1      -43.093  80.470  23.717  0.00  0.00    +0.111 A 
ATOM     30  N   LIG    1      -42.166  79.626  24.229  0.00  0.00    -0.252 NA
ENDBRANCH  22  24
ENDBRANCH  14  16
ENDBRANCH   4  12
BRANCH   1  32
ATOM     31  N   LIG    1      -34.281  83.521  31.434  0.00  0.00    -0.246 NA
ATOM     32  C   LIG    1      -35.384  82.887  31.276  0.00  0.00    +0.236 C 
BRANCH  31  37
ATOM     33  C   LIG    1      -31.209  87.199  31.942  0.00  0.00    +0.041 C 
ATOM     34  C   LIG    1      -31.659  85.892  31.277  0.00  0.00    +0.063 C 
ATOM     35  C   LIG    1      -33.032  86.058  30.605  0.00  0.00    +0.036 C 
ATOM     36  C   LIG    1      -34.216  85.940  31.572  0.00  0.00    +0.029 C 
ATOM     37  C   LIG    1      -34.181  84.636  32.382  0.00  0.00    +0.109 C 
ATOM     38  C   LIG    1      -32.860  84.594  33.159  0.00  0.00    +0.029 C 
ATOM     39  C   LIG    1      -31.633  84.701  32.252  0.00  0.00    +0.036 C 
BRANCH  34  40
ATOM     40  O   LIG    1      -30.687  85.603  30.258  0.00  0.00    -0.389 OA
ATOM     41  H   LIG    1      -31.146  85.174  29.517  0.00  0.00    +0.210 HD
ENDBRANCH  34  40
ENDBRANCH  31  37
BRANCH  32  42
ATOM     42  O   LIG    1      -36.526  83.139  31.951  0.00  0.00    -0.491 OA
ATOM     43  H   LIG    1      -37.261  82.686  31.494  0.00  0.00    +0.294 HD
ENDBRANCH  32  42
ENDBRANCH   1  32
TORSDOF 8
ENDMDL
MODEL 3
REMARK VINA RESULT:      -6.6      1.727      2.183
REMARK  Name = pdb/CHEMBL3941491.pdb
REMARK                            x       y       z     vdW  Elec       q    Type
REMARK                         _______ _______ _______ _____ _____    ______ ____
ROOT
ATOM      1  C   LIG    1      -38.889  70.358  24.967  0.00  0.00    +0.149 A 
ATOM      2  N   LIG    1      -39.395  71.530  24.545  0.00  0.00    -0.160 NA
ATOM      3  N   LIG    1      -38.598  72.486  25.118  0.00  0.00    -0.218 N 
ATOM      4  C   LIG    1      -37.536  71.906  25.826  0.00  0.00    +0.129 A 
ATOM      5  C   LIG    1      -37.786  70.555  25.823  0.00  0.00    +0.078 A 
ENDROOT
BRANCH   3   6
ATOM      6  C   LIG    1      -38.843  73.868  24.852  0.00  0.00    +0.067 A 
ATOM      7  C   LIG    1      -37.866  74.852  25.059  0.00  0.00    +0.028 A 
ATOM      8  C   LIG    1      -38.129  76.185  24.713  0.00  0.00    +0.002 A 
ATOM      9  C   LIG    1      -39.362  76.542  24.170  0.00  0.00    +0.000 A 
ATOM     10  C   LIG    1      -40.351  75.578  24.000  0.00  0.00    +0.002 A 
ATOM     11  C   LIG    1      -40.101  74.249  24.355  0.00  0.00    +0.028 A 
ENDBRANCH   3   6
BRANCH   4  12
ATOM     12  N   LIG    1      -36.385  72.534  26.328  0.00  0.00    -0.266 N 
ATOM     13  H   LIG    1      -35.552  72.518  25.753  0.00  0.00    +0.157 HD
ATOM     14  C   LIG    1      -36.276  73.039  27.675  0.00  0.00    +0.251 C 
ATOM     15  O   LIG    1      -37.205  72.976  28.454  0.00  0.00    -0.270 OA
BRANCH  14  16
ATOM     16  C   LIG    1      -35.009  73.682  28.095  0.00  0.00    +0.056 A 
ATOM     17  C   LIG    1      -33.943  73.006  28.688  0.00  0.00    +0.056 A 
ATOM     18 CL   LIG    1      -33.923  71.300  28.946  0.00  0.00    -0.083 Cl
ATOM     19  C   LIG    1      -32.828  73.723  29.115  0.00  0.00    +0.059 A 
ATOM     20  C   LIG    1      -32.752  75.103  28.913  0.00  0.00    +0.134 A 
ATOM     21  F   LIG    1      -31.628  75.710  29.318  0.00  0.00    -0.205 F 
ATOM     22  C   LIG    1      -33.782  75.825  28.290  0.00  0.00    +0.039 A 
ATOM     23  C   LIG    1      -34.922  75.084  27.913  0.00  0.00    +0.027 A 
BRANCH  22  24
ATOM     24  C   LIG    1      -33.686  77.285  28.067  0.00  0.00    +0.109 A 
ATOM     25  C   LIG    1      -32.860  77.869  27.102  0.00  0.00    +0.149 A 
ATOM     26  F   LIG    1      -32.034  77.131  26.346  0.00  0.00    -0.203 F 
ATOM     27  C   LIG    1      -32.876  79.249  26.914  0.00  0.00    +0.042 A 
ATOM     28  C   LIG    1      -33.698  80.030  27.715  0.00  0.00    +0.023 A 
ATOM     29  C   LIG    1      -34.464  79.394  28.677  0.00  0.00    +0.111 A 
ATOM     30  N   LIG    1      -34.485  78.052  28.854  0.00  0.00    -0.252 NA
ENDBRANCH  22  24
ENDBRANCH  14  16
ENDBRANCH   4  12
BRANCH   1  32
ATOM     31  N   LIG    1      -38.833  68.459  23.535  0.00  0.00    -0.246 NA
ATOM     32  C   LIG    1      -39.411  69.073  24.500  0.00  0.00    +0.236 C 
BRANCH  31  37
ATOM     33  C   LIG    1      -38.737  66.257  19.249  0.00  0.00    +0.041 C 
ATOM     34  C   LIG    1      -38.471  67.463  20.158  0.00  0.00    +0.063 C 
ATOM     35  C   LIG    1      -37.495  67.098  21.289  0.00  0.00    +0.036 C 
ATOM     36  C   LIG    1      -38.156  66.386  22.476  0.00  0.00    +0.029 C 
ATOM     37  C   LIG    1      -39.346  67.176  23.041  0.00  0.00    +0.109 C 
ATOM     38  C   LIG    1      -40.364  67.376  21.912  0.00  0.00    +0.029 C 
ATOM     39  C   LIG    1      -39.771  68.089  20.695  0.00  0.00    +0.036 C 
BRANCH  34  40
ATOM     40  O   LIG    1      -37.852  68.463  19.331  0.00  0.00    -0.389 OA
ATOM     41  H   LIG    1      -37.563  68.036  18.507  0.00  0.00    +0.210 HD
ENDBRANCH  34  40
ENDBRANCH  31  37
BRANCH  32  42
ATOM     42  O   LIG    1      -40.526  68.646  25.132  0.00  0.00    -0.491 OA
ATOM     43  H   LIG    1      -41.225  69.318  25.013  0.00  0.00    +0.294 HD
ENDBRANCH  32  42
ENDBRANCH   1  32
TORSDOF 8
ENDMDL
MODEL 4
REMARK VINA RESULT:      -6.6      1.842      2.565
REMARK  Name = pdb/CHEMBL3941491.pdb
REMARK                            x       y       z     vdW  Elec       q    Type
REMARK                         _______ _______ _______ _____ _____    ______ ____
ROOT
ATOM      1  C   LIG    1      -37.990  69.802  24.501  0.00  0.00    +0.149 A 
ATOM      2  N   LIG    1      -38.636  70.944  24.208  0.00  0.00    -0.160 NA
ATOM      3  N   LIG    1      -37.986  71.911  24.930  0.00  0.00    -0.218 N 
ATOM      4  C   LIG    1      -36.874  71.384  25.604  0.00  0.00    +0.129 A 
ATOM      5  C   LIG    1      -36.945  70.024  25.420  0.00  0.00    +0.078 A 
ENDROOT
BRANCH   3   6
ATOM      6  C   LIG    1      -38.404  73.273  24.831  0.00  0.00    +0.067 A 
ATOM      7  C   LIG    1      -37.587  74.336  25.241  0.00  0.00    +0.028 A 
ATOM      8  C   LIG    1      -38.012  75.659  25.054  0.00  0.00    +0.002 A 
ATOM      9  C   LIG    1      -39.247  75.928  24.468  0.00  0.00    +0.000 A 
ATOM     10  C   LIG    1      -40.081  74.877  24.096  0.00  0.00    +0.002 A 
ATOM     11  C   LIG    1      -39.671  73.555  24.291  0.00  0.00    +0.028 A 
ENDBRANCH   3   6
BRANCH   4  12
ATOM     12  N   LIG    1      -35.829  72.083  26.229  0.00  0.00    -0.266 N 
ATOM     13  H   LIG    1      -34.988  72.251  25.691  0.00  0.00    +0.157 HD
ATOM     14  C   LIG    1      -35.821  72.414  27.633  0.00  0.00    +0.251 C 
ATOM     15  O   LIG    1      -36.751  72.130  28.358  0.00  0.00    -0.270 OA
BRANCH  14  16
ATOM     16  C   LIG    1      -34.660  73.154  28.183  0.00  0.00    +0.056 A 
ATOM     17  C   LIG    1      -33.714  72.602  29.045  0.00  0.00    +0.056 A 
ATOM     18 CL   LIG    1      -33.720  70.947  29.532  0.00  0.00    -0.083 Cl
ATOM     19  C   LIG    1      -32.705  73.410  29.565  0.00  0.00    +0.059 A 
ATOM     20  C   LIG    1      -32.610  74.753  29.193  0.00  0.00    +0.134 A 
ATOM     21  F   LIG    1      -31.588  75.450  29.709  0.00  0.00    -0.205 F 
ATOM     22  C   LIG    1      -33.517  75.348  28.303  0.00  0.00    +0.039 A 
ATOM     23  C   LIG    1      -34.559  74.522  27.830  0.00  0.00    +0.027 A 
BRANCH  22  24
ATOM     24  C   LIG    1      -33.400  76.769  27.904  0.00  0.00    +0.109 A 
ATOM     25  C   LIG    1      -34.102  77.808  28.522  0.00  0.00    +0.149 A 
ATOM     26  F   LIG    1      -34.997  77.570  29.492  0.00  0.00    -0.203 F 
ATOM     27  C   LIG    1      -33.887  79.125  28.127  0.00  0.00    +0.042 A 
ATOM     28  C   LIG    1      -32.992  79.385  27.098  0.00  0.00    +0.023 A 
ATOM     29  C   LIG    1      -32.356  78.309  26.503  0.00  0.00    +0.111 A 
ATOM     30  N   LIG    1      -32.529  77.024  26.894  0.00  0.00    -0.252 NA
ENDBRANCH  22  24
ENDBRANCH  14  16
ENDBRANCH   4  12
BRANCH   1  32
ATOM     31  N   LIG    1      -37.529  68.023  22.989  0.00  0.00    -0.246 NA
ATOM     32  C   LIG    1      -38.326  68.532  23.854  0.00  0.00    +0.236 C 
BRANCH  31  37
ATOM     33  C   LIG    1      -34.881  64.622  20.835  0.00  0.00    +0.041 C 
ATOM     34  C   LIG    1      -35.037  65.985  21.519  0.00  0.00    +0.063 C 
ATOM     35  C   LIG    1      -35.566  65.826  22.955  0.00  0.00    +0.036 C 
ATOM     36  C   LIG    1      -37.085  65.640  23.041  0.00  0.00    +0.029 C 
ATOM     37  C   LIG    1      -37.852  66.758  22.318  0.00  0.00    +0.109 C 
ATOM     38  C   LIG    1      -37.405  66.771  20.852  0.00  0.00    +0.029 C 
ATOM     39  C   LIG    1      -35.895  66.960  20.692  0.00  0.00    +0.036 C 
BRANCH  34  40
ATOM     40  O   LIG    1      -33.720  66.558  21.581  0.00  0.00    -0.389 OA
ATOM     41  H   LIG    1      -33.813  67.512  21.744  0.00  0.00    +0.210 HD
ENDBRANCH  34  40
ENDBRANCH  31  37
BRANCH  32  42
ATOM     42  O   LIG    1      -39.516  68.005  24.216  0.00  0.00    -0.491 OA
ATOM     43  H   LIG    1      -40.187  68.277  23.560  0.00  0.00    +0.294 HD
ENDBRANCH  32  42
ENDBRANCH   1  32
TORSDOF 8
ENDMDL
MODEL 5
REMARK VINA RESULT:      -6.6      4.861     10.289
REMARK  Name = pdb/CHEMBL3941491.pdb
REMARK                            x       y       z     vdW  Elec       q    Type
REMARK                         _______ _______ _______ _____ _____    ______ ____
ROOT
ATOM      1  C   LIG    1      -31.831  74.463  30.058  0.00  0.00    +0.149 A 
ATOM      2  N   LIG    1      -31.874  75.785  29.816  0.00  0.00    -0.160 NA
ATOM      3  N   LIG    1      -32.734  75.922  28.758  0.00  0.00    -0.218 N 
ATOM      4  C   LIG    1      -33.300  74.691  28.398  0.00  0.00    +0.129 A 
ATOM      5  C   LIG    1      -32.640  73.749  29.151  0.00  0.00    +0.078 A 
ENDROOT
BRANCH   3   6
ATOM      6  C   LIG    1      -33.034  77.223  28.252  0.00  0.00    +0.067 A 
ATOM      7  C   LIG    1      -34.030  78.033  28.817  0.00  0.00    +0.028 A 
ATOM      8  C   LIG    1      -34.237  79.331  28.332  0.00  0.00    +0.002 A 
ATOM      9  C   LIG    1      -33.463  79.825  27.283  0.00  0.00    +0.000 A 
ATOM     10  C   LIG    1      -32.501  79.012  26.690  0.00  0.00    +0.002 A 
ATOM     11  C   LIG    1      -32.297  77.711  27.159  0.00  0.00    +0.028 A 
ENDBRANCH   3   6
BRANCH   4  12
ATOM     12  N   LIG    1      -34.394  74.456  27.551  0.00  0.00    -0.266 N 
ATOM     13  H   LIG    1      -34.206  74.323  26.565  0.00  0.00    +0.157 HD
ATOM     14  C   LIG    1      -35.769  74.568  27.975  0.00  0.00    +0.251 C 
ATOM     15  O   LIG    1      -36.059  74.845  29.121  0.00  0.00    -0.270 OA
BRANCH  14  16
ATOM     16  C   LIG    1      -36.842  74.297  26.990  0.00  0.00    +0.056 A 
ATOM     17  C   LIG    1      -37.178  73.026  26.524  0.00  0.00    +0.056 A 
ATOM     18 CL   LIG    1      -36.438  71.576  27.093  0.00  0.00    -0.083 Cl
ATOM     19  C   LIG    1      -38.153  72.894  25.537  0.00  0.00    +0.059 A 
ATOM     20  C   LIG    1      -38.824  74.016  25.048  0.00  0.00    +0.134 A 
ATOM     21  F   LIG    1      -39.774  73.796  24.128  0.00  0.00    -0.205 F 
ATOM     22  C   LIG    1      -38.547  75.313  25.508  0.00  0.00    +0.039 A 
ATOM     23  C   LIG    1      -37.521  75.426  26.469  0.00  0.00    +0.027 A 
BRANCH  22  24
ATOM     24  C   LIG    1      -39.274  76.495  24.993  0.00  0.00    +0.109 A 
ATOM     25  C   LIG    1      -38.772  77.343  24.001  0.00  0.00    +0.149 A 
ATOM     26  F   LIG    1      -37.543  77.173  23.490  0.00  0.00    -0.203 F 
ATOM     27  C   LIG    1      -39.547  78.398  23.528  0.00  0.00    +0.042 A 
ATOM     28  C   LIG    1      -40.806  78.609  24.074  0.00  0.00    +0.023 A 
ATOM     29  C   LIG    1      -41.230  77.756  25.078  0.00  0.00    +0.111 A 
ATOM     30  N   LIG    1      -40.503  76.707  25.530  0.00  0.00    -0.252 NA
ENDBRANCH  22  24
ENDBRANCH  14  16
ENDBRANCH   4  12
BRANCH   1  32
ATOM     31  N   LIG    1      -29.989  74.454  31.564  0.00  0.00    -0.246 NA
ATOM     32  C   LIG    1      -31.082  73.903  31.185  0.00  0.00    +0.236 C 
BRANCH  31  37
ATOM     33  C   LIG    1      -26.354  76.132  34.247  0.00  0.00    +0.041 C 
ATOM     34  C   LIG    1      -27.330  76.241  33.069  0.00  0.00    +0.063 C 
ATOM     35  C   LIG    1      -28.788  76.259  33.560  0.00  0.00    +0.036 C 
ATOM     36  C   LIG    1      -29.358  74.870  33.868  0.00  0.00    +0.029 C 
ATOM     37  C   LIG    1      -29.214  73.904  32.682  0.00  0.00    +0.109 C 
ATOM     38  C   LIG    1      -27.725  73.797  32.334  0.00  0.00    +0.029 C 
ATOM     39  C   LIG    1      -27.091  75.151  32.009  0.00  0.00    +0.036 C 
BRANCH  34  40
ATOM     40  O   LIG    1      -27.051  77.497  32.429  0.00  0.00    -0.389 OA
ATOM     41  H   LIG    1      -26.090  77.568  32.310  0.00  0.00    +0.210 HD
ENDBRANCH  34  40
ENDBRANCH  31  37
BRANCH  32  42
ATOM     42  O   LIG    1      -31.615  72.787  31.727  0.00  0.00    -0.491 OA
ATOM     43  H   LIG    1      -31.277  72.695  32.639  0.00  0.00    +0.294 HD
ENDBRANCH  32  42
ENDBRANCH   1  32
TORSDOF 8
ENDMDL
MODEL 6
REMARK VINA RESULT:      -6.6     18.584     20.800
REMARK  Name = pdb/CHEMBL3941491.pdb
REMARK                            x       y       z     vdW  Elec       q    Type
REMARK                         _______ _______ _______ _____ _____    ______ ____
ROOT
ATOM      1  C   LIG    1      -26.279  80.816  10.633  0.00  0.00    +0.149 A 
ATOM      2  N   LIG    1      -25.779  80.056  11.622  0.00  0.00    -0.160 NA
ATOM      3  N   LIG    1      -25.005  80.908  12.366  0.00  0.00    -0.218 N 
ATOM      4  C   LIG    1      -25.096  82.225  11.890  0.00  0.00    +0.129 A 
ATOM      5  C   LIG    1      -25.816  82.144  10.722  0.00  0.00    +0.078 A 
ENDROOT
BRANCH   3   6
ATOM      6  C   LIG    1      -24.336  80.426  13.531  0.00  0.00    +0.067 A 
ATOM      7  C   LIG    1      -25.034  79.927  14.640  0.00  0.00    +0.028 A 
ATOM      8  C   LIG    1      -24.332  79.395  15.730  0.00  0.00    +0.002 A 
ATOM      9  C   LIG    1      -22.938  79.365  15.724  0.00  0.00    +0.000 A 
ATOM     10  C   LIG    1      -22.238  79.896  14.645  0.00  0.00    +0.002 A 
ATOM     11  C   LIG    1      -22.931  80.440  13.559  0.00  0.00    +0.028 A 
ENDBRANCH   3   6
BRANCH   4  12
ATOM     12  N   LIG    1      -24.666  83.403  12.519  0.00  0.00    -0.266 N 
ATOM     13  H   LIG    1      -25.344  83.921  13.063  0.00  0.00    +0.157 HD
ATOM     14  C   LIG    1      -23.373  84.003  12.289  0.00  0.00    +0.251 C 
ATOM     15  O   LIG    1      -22.559  83.491  11.549  0.00  0.00    -0.270 OA
BRANCH  14  16
ATOM     16  C   LIG    1      -23.029  85.252  13.009  0.00  0.00    +0.056 A 
ATOM     17  C   LIG    1      -22.651  85.306  14.350  0.00  0.00    +0.056 A 
ATOM     18 CL   LIG    1      -22.453  83.908  15.341  0.00  0.00    -0.083 Cl
ATOM     19  C   LIG    1      -22.425  86.543  14.949  0.00  0.00    +0.059 A 
ATOM     20  C   LIG    1      -22.531  87.721  14.207  0.00  0.00    +0.134 A 
ATOM     21  F   LIG    1      -22.259  88.865  14.850  0.00  0.00    -0.205 F 
ATOM     22  C   LIG    1      -22.876  87.718  12.846  0.00  0.00    +0.039 A 
ATOM     23  C   LIG    1      -23.149  86.457  12.275  0.00  0.00    +0.027 A 
BRANCH  22  24
ATOM     24  C   LIG    1      -22.972  88.971  12.064  0.00  0.00    +0.109 A 
ATOM     25  C   LIG    1      -21.869  89.620  11.501  0.00  0.00    +0.149 A 
ATOM     26  F   LIG    1      -20.619  89.175  11.696  0.00  0.00    -0.203 F 
ATOM     27  C   LIG    1      -22.053  90.761  10.725  0.00  0.00    +0.042 A 
ATOM     28  C   LIG    1      -23.338  91.256  10.545  0.00  0.00    +0.023 A 
ATOM     29  C   LIG    1      -24.383  90.588  11.159  0.00  0.00    +0.111 A 
ATOM     30  N   LIG    1      -24.227  89.460  11.892  0.00  0.00    -0.252 NA
ENDBRANCH  22  24
ENDBRANCH  14  16
ENDBRANCH   4  12
BRANCH   1  32
ATOM     31  N   LIG    1      -28.498  80.379   9.891  0.00  0.00    -0.246 NA
ATOM     32  C   LIG    1      -27.240  80.292   9.660  0.00  0.00    +0.236 C 
BRANCH  31  37
ATOM     33  C   LIG    1      -33.026  78.784  10.308  0.00  0.00    +0.041 C 
ATOM     34  C   LIG    1      -31.709  79.291  10.907  0.00  0.00    +0.063 C 
ATOM     35  C   LIG    1      -31.381  80.707  10.403  0.00  0.00    +0.036 C 
ATOM     36  C   LIG    1      -30.730  80.738   9.015  0.00  0.00    +0.029 C 
ATOM     37  C   LIG    1      -29.479  79.849   8.938  0.00  0.00    +0.109 C 
ATOM     38  C   LIG    1      -29.891  78.416   9.294  0.00  0.00    +0.029 C 
ATOM     39  C   LIG    1      -30.545  78.311  10.674  0.00  0.00    +0.036 C 
BRANCH  34  40
ATOM     40  O   LIG    1      -31.909  79.351  12.329  0.00  0.00    -0.389 OA
ATOM     41  H   LIG    1      -32.421  80.153  12.528  0.00  0.00    +0.210 HD
ENDBRANCH  34  40
ENDBRANCH  31  37
BRANCH  32  42
ATOM     42  O   LIG    1      -26.691  79.707   8.574  0.00  0.00    -0.491 OA
ATOM     43  H   LIG    1      -27.034  80.155   7.776  0.00  0.00    +0.294 HD
ENDBRANCH  32  42
ENDBRANCH   1  32
TORSDOF 8
ENDMDL
MODEL 7
REMARK VINA RESULT:      -6.6     17.597     21.098
REMARK  Name = pdb/CHEMBL3941491.pdb
REMARK                            x       y       z     vdW  Elec       q    Type
REMARK                         _______ _______ _______ _____ _____    ______ ____
ROOT
ATOM      1  C   LIG    1      -22.595  82.842  15.258  0.00  0.00    +0.149 A 
ATOM      2  N   LIG    1      -23.677  82.250  14.723  0.00  0.00    -0.160 NA
ATOM      3  N   LIG    1      -23.389  80.910  14.735  0.00  0.00    -0.218 N 
ATOM      4  C   LIG    1      -22.160  80.659  15.363  0.00  0.00    +0.129 A 
ATOM      5  C   LIG    1      -21.606  81.896  15.593  0.00  0.00    +0.078 A 
ENDROOT
BRANCH   3   6
ATOM      6  C   LIG    1      -24.352  79.972  14.254  0.00  0.00    +0.067 A 
ATOM      7  C   LIG    1      -24.310  79.464  12.948  0.00  0.00    +0.028 A 
ATOM      8  C   LIG    1      -25.232  78.489  12.545  0.00  0.00    +0.002 A 
ATOM      9  C   LIG    1      -26.200  78.023  13.433  0.00  0.00    +0.000 A 
ATOM     10  C   LIG    1      -26.273  78.553  14.718  0.00  0.00    +0.002 A 
ATOM     11  C   LIG    1      -25.365  79.536  15.124  0.00  0.00    +0.028 A 
ENDBRANCH   3   6
BRANCH   4  12
ATOM     12  N   LIG    1      -21.644  79.427  15.793  0.00  0.00    -0.266 N 
ATOM     13  H   LIG    1      -21.605  79.255  16.790  0.00  0.00    +0.157 HD
ATOM     14  C   LIG    1      -21.009  78.478  14.911  0.00  0.00    +0.251 C 
ATOM     15  O   LIG    1      -20.916  78.684  13.718  0.00  0.00    -0.270 OA
BRANCH  14  16
ATOM     16  C   LIG    1      -20.499  77.208  15.479  0.00  0.00    +0.056 A 
ATOM     17  C   LIG    1      -19.209  77.034  15.981  0.00  0.00    +0.056 A 
ATOM     18 CL   LIG    1      -18.047  78.305  16.081  0.00  0.00    -0.083 Cl
ATOM     19  C   LIG    1      -18.808  75.775  16.420  0.00  0.00    +0.059 A 
ATOM     20  C   LIG    1      -19.701  74.701  16.404  0.00  0.00    +0.134 A 
ATOM     21  F   LIG    1      -19.247  73.533  16.880  0.00  0.00    -0.205 F 
ATOM     22  C   LIG    1      -21.019  74.831  15.941  0.00  0.00    +0.039 A 
ATOM     23  C   LIG    1      -21.385  76.104  15.454  0.00  0.00    +0.027 A 
BRANCH  22  24
ATOM     24  C   LIG    1      -21.962  73.690  15.940  0.00  0.00    +0.109 A 
ATOM     25  C   LIG    1      -22.945  73.496  16.915  0.00  0.00    +0.149 A 
ATOM     26  F   LIG    1      -23.054  74.313  17.973  0.00  0.00    -0.203 F 
ATOM     27  C   LIG    1      -23.833  72.430  16.807  0.00  0.00    +0.042 A 
ATOM     28  C   LIG    1      -23.709  71.553  15.737  0.00  0.00    +0.023 A 
ATOM     29  C   LIG    1      -22.692  71.779  14.826  0.00  0.00    +0.111 A 
ATOM     30  N   LIG    1      -21.838  72.827  14.898  0.00  0.00    -0.252 NA
ENDBRANCH  22  24
ENDBRANCH  14  16
ENDBRANCH   4  12
BRANCH   1  32
ATOM     31  N   LIG    1      -22.157  85.080  14.579  0.00  0.00    -0.246 NA
ATOM     32  C   LIG    1      -22.542  84.284  15.506  0.00  0.00    +0.236 C 
BRANCH  31  37
ATOM     33  C   LIG    1      -20.548  88.793  11.962  0.00  0.00    +0.041 C 
ATOM     34  C   LIG    1      -20.750  87.292  12.201  0.00  0.00    +0.063 C 
ATOM     35  C   LIG    1      -22.246  86.945  12.298  0.00  0.00    +0.036 C 
ATOM     36  C   LIG    1      -22.859  87.218  13.677  0.00  0.00    +0.029 C 
ATOM     37  C   LIG    1      -22.083  86.528  14.808  0.00  0.00    +0.109 C 
ATOM     38  C   LIG    1      -20.635  87.030  14.767  0.00  0.00    +0.029 C 
ATOM     39  C   LIG    1      -19.958  86.782  13.418  0.00  0.00    +0.036 C 
BRANCH  34  40
ATOM     40  O   LIG    1      -20.203  86.624  11.052  0.00  0.00    -0.389 OA
ATOM     41  H   LIG    1      -19.237  86.723  11.077  0.00  0.00    +0.210 HD
ENDBRANCH  34  40
ENDBRANCH  31  37
BRANCH  32  42
ATOM     42  O   LIG    1      -22.887  84.661  16.756  0.00  0.00    -0.491 OA
ATOM     43  H   LIG    1      -23.673  84.148  17.028  0.00  0.00    +0.294 HD
ENDBRANCH  32  42
ENDBRANCH   1  32
TORSDOF 8
ENDMDL
MODEL 8
REMARK VINA RESULT:      -6.5      2.604      3.761
REMARK  Name = pdb/CHEMBL3941491.pdb
REMARK                            x       y       z     vdW  Elec       q    Type
REMARK                         _______ _______ _______ _____ _____    ______ ____
ROOT
ATOM      1  C   LIG    1      -39.541  72.310  24.253  0.00  0.00    +0.149 A 
ATOM      2  N   LIG    1      -40.102  73.503  23.992  0.00  0.00    -0.160 NA
ATOM      3  N   LIG    1      -39.340  74.410  24.682  0.00  0.00    -0.218 N 
ATOM      4  C   LIG    1      -38.246  73.789  25.301  0.00  0.00    +0.129 A 
ATOM      5  C   LIG    1      -38.438  72.440  25.121  0.00  0.00    +0.078 A 
ENDROOT
BRANCH   3   6
ATOM      6  C   LIG    1      -39.648  75.802  24.603  0.00  0.00    +0.067 A 
ATOM      7  C   LIG    1      -39.045  76.748  25.444  0.00  0.00    +0.028 A 
ATOM      8  C   LIG    1      -39.323  78.112  25.278  0.00  0.00    +0.002 A 
ATOM      9  C   LIG    1      -40.204  78.537  24.285  0.00  0.00    +0.000 A 
ATOM     10  C   LIG    1      -40.838  77.600  23.474  0.00  0.00    +0.002 A 
ATOM     11  C   LIG    1      -40.576  76.237  23.641  0.00  0.00    +0.028 A 
ENDBRANCH   3   6
BRANCH   4  12
ATOM     12  N   LIG    1      -37.117  74.396  25.875  0.00  0.00    -0.266 N 
ATOM     13  H   LIG    1      -36.339  74.612  25.266  0.00  0.00    +0.157 HD
ATOM     14  C   LIG    1      -36.940  74.563  27.297  0.00  0.00    +0.251 C 
ATOM     15  O   LIG    1      -37.789  74.211  28.089  0.00  0.00    -0.270 OA
BRANCH  14  16
ATOM     16  C   LIG    1      -35.704  75.218  27.788  0.00  0.00    +0.056 A 
ATOM     17  C   LIG    1      -34.521  74.540  28.084  0.00  0.00    +0.056 A 
ATOM     18 CL   LIG    1      -34.308  72.846  27.842  0.00  0.00    -0.083 Cl
ATOM     19  C   LIG    1      -33.442  75.245  28.614  0.00  0.00    +0.059 A 
ATOM     20  C   LIG    1      -33.523  76.625  28.809  0.00  0.00    +0.134 A 
ATOM     21  F   LIG    1      -32.427  77.231  29.287  0.00  0.00    -0.205 F 
ATOM     22  C   LIG    1      -34.678  77.358  28.496  0.00  0.00    +0.039 A 
ATOM     23  C   LIG    1      -35.774  76.615  28.008  0.00  0.00    +0.027 A 
BRANCH  22  24
ATOM     24  C   LIG    1      -34.749  78.823  28.692  0.00  0.00    +0.109 A 
ATOM     25  C   LIG    1      -34.801  79.436  29.947  0.00  0.00    +0.149 A 
ATOM     26  F   LIG    1      -34.860  78.716  31.077  0.00  0.00    -0.203 F 
ATOM     27  C   LIG    1      -34.803  80.825  30.045  0.00  0.00    +0.042 A 
ATOM     28  C   LIG    1      -34.781  81.584  28.883  0.00  0.00    +0.023 A 
ATOM     29  C   LIG    1      -34.766  80.917  27.671  0.00  0.00    +0.111 A 
ATOM     30  N   LIG    1      -34.734  79.568  27.556  0.00  0.00    -0.252 NA
ENDBRANCH  22  24
ENDBRANCH  14  16
ENDBRANCH   4  12
BRANCH   1  32
ATOM     31  N   LIG    1      -39.171  70.247  23.125  0.00  0.00    -0.246 NA
ATOM     32  C   LIG    1      -40.013  71.075  23.623  0.00  0.00    +0.236 C 
BRANCH  31  37
ATOM     33  C   LIG    1      -36.917  66.267  21.609  0.00  0.00    +0.041 C 
ATOM     34  C   LIG    1      -36.915  67.688  22.186  0.00  0.00    +0.063 C 
ATOM     35  C   LIG    1      -37.673  67.741  23.524  0.00  0.00    +0.036 C 
ATOM     36  C   LIG    1      -39.196  67.836  23.371  0.00  0.00    +0.029 C 
ATOM     37  C   LIG    1      -39.621  69.010  22.477  0.00  0.00    +0.109 C 
ATOM     38  C   LIG    1      -38.965  68.825  21.104  0.00  0.00    +0.029 C 
ATOM     39  C   LIG    1      -37.440  68.729  21.182  0.00  0.00    +0.036 C 
BRANCH  34  40
ATOM     40  O   LIG    1      -35.538  68.021  22.433  0.00  0.00    -0.389 OA
ATOM     41  H   LIG    1      -35.124  67.272  22.893  0.00  0.00    +0.210 HD
ENDBRANCH  34  40
ENDBRANCH  31  37
BRANCH  32  42
ATOM     42  O   LIG    1      -41.355  70.928  23.590  0.00  0.00    -0.491 OA
ATOM     43  H   LIG    1      -41.559  70.019  23.296  0.00  0.00    +0.294 HD
ENDBRANCH  32  42
ENDBRANCH   1  32
TORSDOF 8
ENDMDL
MODEL 9
REMARK VINA RESULT:      -6.5     11.707     14.285
REMARK  Name = pdb/CHEMBL3941491.pdb
REMARK                            x       y       z     vdW  Elec       q    Type
REMARK                         _______ _______ _______ _____ _____    ______ ____
ROOT
ATOM      1  C   LIG    1      -25.131  72.938  31.099  0.00  0.00    +0.149 A 
ATOM      2  N   LIG    1      -24.000  73.447  30.580  0.00  0.00    -0.160 NA
ATOM      3  N   LIG    1      -23.797  74.621  31.258  0.00  0.00    -0.218 N 
ATOM      4  C   LIG    1      -24.756  74.800  32.266  0.00  0.00    +0.129 A 
ATOM      5  C   LIG    1      -25.667  73.786  32.089  0.00  0.00    +0.078 A 
ENDROOT
BRANCH   3   6
ATOM      6  C   LIG    1      -22.648  75.419  30.969  0.00  0.00    +0.067 A 
ATOM      7  C   LIG    1      -21.475  75.340  31.733  0.00  0.00    +0.028 A 
ATOM      8  C   LIG    1      -20.348  76.088  31.365  0.00  0.00    +0.002 A 
ATOM      9  C   LIG    1      -20.386  76.918  30.247  0.00  0.00    +0.000 A 
ATOM     10  C   LIG    1      -21.560  77.033  29.509  0.00  0.00    +0.002 A 
ATOM     11  C   LIG    1      -22.693  76.300  29.876  0.00  0.00    +0.028 A 
ENDBRANCH   3   6
BRANCH   4  12
ATOM     12  N   LIG    1      -24.742  75.727  33.320  0.00  0.00    -0.266 N 
ATOM     13  H   LIG    1      -24.491  75.389  34.240  0.00  0.00    +0.157 HD
ATOM     14  C   LIG    1      -25.230  77.079  33.197  0.00  0.00    +0.251 C 
ATOM     15  O   LIG    1      -25.659  77.507  32.146  0.00  0.00    -0.270 OA
BRANCH  14  16
ATOM     16  C   LIG    1      -25.166  77.969  34.381  0.00  0.00    +0.056 A 
ATOM     17  C   LIG    1      -26.263  78.298  35.177  0.00  0.00    +0.056 A 
ATOM     18 CL   LIG    1      -27.843  77.647  34.937  0.00  0.00    -0.083 Cl
ATOM     19  C   LIG    1      -26.105  79.207  36.220  0.00  0.00    +0.059 A 
ATOM     20  C   LIG    1      -24.851  79.753  36.501  0.00  0.00    +0.134 A 
ATOM     21  F   LIG    1      -24.779  80.590  37.546  0.00  0.00    -0.205 F 
ATOM     22  C   LIG    1      -23.709  79.429  35.752  0.00  0.00    +0.039 A 
ATOM     23  C   LIG    1      -23.905  78.546  34.669  0.00  0.00    +0.027 A 
BRANCH  22  24
ATOM     24  C   LIG    1      -22.382  80.002  36.066  0.00  0.00    +0.109 A 
ATOM     25  C   LIG    1      -22.016  81.319  35.772  0.00  0.00    +0.149 A 
ATOM     26  F   LIG    1      -22.840  82.144  35.109  0.00  0.00    -0.203 F 
ATOM     27  C   LIG    1      -20.767  81.799  36.158  0.00  0.00    +0.042 A 
ATOM     28  C   LIG    1      -19.888  80.945  36.811  0.00  0.00    +0.023 A 
ATOM     29  C   LIG    1      -20.297  79.643  37.040  0.00  0.00    +0.111 A 
ATOM     30  N   LIG    1      -21.517  79.167  36.699  0.00  0.00    -0.252 NA
ENDBRANCH  22  24
ENDBRANCH  14  16
ENDBRANCH   4  12
BRANCH   1  32
ATOM     31  N   LIG    1      -24.842  70.721  30.285  0.00  0.00    -0.246 NA
ATOM     32  C   LIG    1      -25.647  71.628  30.700  0.00  0.00    +0.236 C 
BRANCH  31  37
ATOM     33  C   LIG    1      -23.073  67.230  27.473  0.00  0.00    +0.041 C 
ATOM     34  C   LIG    1      -23.018  68.636  28.083  0.00  0.00    +0.063 C 
ATOM     35  C   LIG    1      -22.942  68.570  29.618  0.00  0.00    +0.036 C 
ATOM     36  C   LIG    1      -24.299  68.358  30.299  0.00  0.00    +0.029 C 
ATOM     37  C   LIG    1      -25.338  69.405  29.868  0.00  0.00    +0.109 C 
ATOM     38  C   LIG    1      -25.494  69.321  28.345  0.00  0.00    +0.029 C 
ATOM     39  C   LIG    1      -24.175  69.529  27.600  0.00  0.00    +0.036 C 
BRANCH  34  40
ATOM     40  O   LIG    1      -21.808  69.240  27.595  0.00  0.00    -0.389 OA
ATOM     41  H   LIG    1      -21.447  69.804  28.299  0.00  0.00    +0.210 HD
ENDBRANCH  34  40
ENDBRANCH  31  37
BRANCH  32  42
ATOM     42  O   LIG    1      -26.989  71.496  30.776  0.00  0.00    -0.491 OA
ATOM     43  H   LIG    1      -27.207  71.024  31.604  0.00  0.00    +0.294 HD
ENDBRANCH  32  42
ENDBRANCH   1  32
TORSDOF 8
ENDMDL
