MODEL 1
REMARK VINA RESULT:      -7.3      0.000      0.000
REMARK  Name = pdb/CHEMBL2152287.pdb
REMARK                            x       y       z     vdW  Elec       q    Type
REMARK                         _______ _______ _______ _____ _____    ______ ____
ROOT
ATOM      1  C   LIG    1      -28.221  75.926  34.502  0.00  0.00    +0.027 A 
ATOM      2  C   LIG    1      -29.182  75.389  33.631  0.00  0.00    +0.031 A 
ATOM      3  C   LIG    1      -29.116  75.563  32.231  0.00  0.00    -0.013 A 
ATOM      4  C   LIG    1      -27.996  76.255  31.732  0.00  0.00    +0.033 A 
ATOM      5  C   LIG    1      -26.995  76.729  32.584  0.00  0.00    +0.050 A 
ATOM      6  C   LIG    1      -27.100  76.555  33.963  0.00  0.00    +0.047 A 
ENDROOT
BRANCH   3   7
ATOM      7  C   LIG    1      -30.178  75.042  31.328  0.00  0.00    +0.001 A 
ATOM      8  C   LIG    1      -30.845  75.872  30.405  0.00  0.00    +0.022 A 
ATOM      9  C   LIG    1      -31.838  75.336  29.553  0.00  0.00    +0.027 A 
ATOM     10  C   LIG    1      -32.719  75.831  28.531  0.00  0.00    +0.009 A 
ATOM     11  C   LIG    1      -33.468  74.747  28.096  0.00  0.00    +0.093 A 
ATOM     12  N   LIG    1      -33.085  73.641  28.810  0.00  0.00    -0.345 N 
ATOM     13  H   LIG    1      -33.456  72.707  28.717  0.00  0.00    +0.167 HD
ATOM     14  C   LIG    1      -32.108  73.982  29.702  0.00  0.00    +0.139 A 
ATOM     15  N   LIG    1      -31.540  73.119  30.560  0.00  0.00    -0.237 NA
ATOM     16  C   LIG    1      -30.590  73.701  31.340  0.00  0.00    +0.121 A 
BRANCH  10  17
ATOM     17  C   LIG    1      -32.886  77.176  27.985  0.00  0.00    -0.013 A 
ATOM     18  C   LIG    1      -33.716  78.109  28.609  0.00  0.00    +0.028 A 
ATOM     19  C   LIG    1      -33.855  79.365  28.039  0.00  0.00    +0.111 A 
ATOM     20  N   LIG    1      -33.227  79.755  26.911  0.00  0.00    -0.263 NA
ATOM     21  C   LIG    1      -32.417  78.847  26.330  0.00  0.00    +0.111 A 
ATOM     22  C   LIG    1      -32.219  77.565  26.819  0.00  0.00    +0.028 A 
ENDBRANCH  10  17
ENDBRANCH   3   7
BRANCH   1  23
ATOM     23  N   LIG    1      -28.278  75.638  35.874  0.00  0.00    -0.358 N 
ATOM     24  H   LIG    1      -28.207  76.458  36.468  0.00  0.00    +0.142 HD
ATOM     25  H   LIG    1      -27.633  74.909  36.166  0.00  0.00    +0.142 HD
ENDBRANCH   1  23
BRANCH   5  26
ATOM     26  N   LIG    1      -25.896  77.469  32.044  0.00  0.00    -0.216 N 
ATOM     27  H   LIG    1      -26.146  78.381  31.660  0.00  0.00    +0.174 HD
BRANCH  26  28
ATOM     28  S   LIG    1      -24.940  76.661  30.889  0.00  0.00    +0.075 S 
ATOM     29  O   LIG    1      -25.238  77.270  29.607  0.00  0.00    -0.150 OA
ATOM     30  O   LIG    1      -25.040  75.234  31.078  0.00  0.00    -0.150 OA
BRANCH  28  31
ATOM     31  C   LIG    1      -23.302  77.148  31.333  0.00  0.00    +0.144 A 
ATOM     32  C   LIG    1      -22.249  76.881  30.466  0.00  0.00    +0.153 A 
ATOM     33  F   LIG    1      -22.454  76.267  29.293  0.00  0.00    -0.203 F 
ATOM     34  C   LIG    1      -20.951  77.259  30.799  0.00  0.00    +0.078 A 
ATOM     35  C   LIG    1      -20.721  77.897  32.012  0.00  0.00    +0.126 A 
ATOM     36  F   LIG    1      -19.478  78.279  32.333  0.00  0.00    -0.205 F 
ATOM     37  C   LIG    1      -21.763  78.151  32.901  0.00  0.00    +0.040 A 
ATOM     38  C   LIG    1      -23.065  77.775  32.564  0.00  0.00    +0.034 A 
ENDBRANCH  28  31
ENDBRANCH  26  28
ENDBRANCH   5  26
TORSDOF 6
ENDMDL
MODEL 2
REMARK VINA RESULT:      -7.2      6.207      9.771
REMARK  Name = pdb/CHEMBL2152287.pdb
REMARK                            x       y       z     vdW  Elec       q    Type
REMARK                         _______ _______ _______ _____ _____    ______ ____
ROOT
ATOM      1  C   LIG    1      -18.856  79.794  37.119  0.00  0.00    +0.027 A 
ATOM      2  C   LIG    1      -18.789  79.172  35.862  0.00  0.00    +0.031 A 
ATOM      3  C   LIG    1      -19.682  79.485  34.814  0.00  0.00    -0.013 A 
ATOM      4  C   LIG    1      -20.618  80.507  35.064  0.00  0.00    +0.033 A 
ATOM      5  C   LIG    1      -20.644  81.185  36.286  0.00  0.00    +0.050 A 
ATOM      6  C   LIG    1      -19.759  80.838  37.306  0.00  0.00    +0.047 A 
ENDROOT
BRANCH   3   7
ATOM      7  C   LIG    1      -19.638  78.770  33.509  0.00  0.00    +0.001 A 
ATOM      8  C   LIG    1      -20.804  78.277  32.889  0.00  0.00    +0.022 A 
ATOM      9  C   LIG    1      -20.723  77.616  31.642  0.00  0.00    +0.027 A 
ATOM     10  C   LIG    1      -21.637  76.985  30.730  0.00  0.00    +0.009 A 
ATOM     11  C   LIG    1      -20.875  76.512  29.672  0.00  0.00    +0.093 A 
ATOM     12  N   LIG    1      -19.561  76.820  29.912  0.00  0.00    -0.345 N 
ATOM     13  H   LIG    1      -18.774  76.600  29.319  0.00  0.00    +0.167 HD
ATOM     14  C   LIG    1      -19.450  77.478  31.103  0.00  0.00    +0.139 A 
ATOM     15  N   LIG    1      -18.286  77.897  31.625  0.00  0.00    -0.237 NA
ATOM     16  C   LIG    1      -18.441  78.531  32.818  0.00  0.00    +0.121 A 
BRANCH  10  17
ATOM     17  C   LIG    1      -23.086  76.810  30.801  0.00  0.00    -0.013 A 
ATOM     18  C   LIG    1      -23.952  77.888  30.610  0.00  0.00    +0.028 A 
ATOM     19  C   LIG    1      -25.318  77.673  30.707  0.00  0.00    +0.111 A 
ATOM     20  N   LIG    1      -25.875  76.473  30.970  0.00  0.00    -0.263 NA
ATOM     21  C   LIG    1      -25.025  75.439  31.137  0.00  0.00    +0.111 A 
ATOM     22  C   LIG    1      -23.646  75.556  31.066  0.00  0.00    +0.028 A 
ENDBRANCH  10  17
ENDBRANCH   3   7
BRANCH   1  23
ATOM     23  N   LIG    1      -17.881  79.520  38.090  0.00  0.00    -0.358 N 
ATOM     24  H   LIG    1      -17.060  79.047  37.724  0.00  0.00    +0.142 HD
ATOM     25  H   LIG    1      -18.246  79.050  38.914  0.00  0.00    +0.142 HD
ENDBRANCH   1  23
BRANCH   5  26
ATOM     26  N   LIG    1      -21.640  82.185  36.520  0.00  0.00    -0.216 N 
ATOM     27  H   LIG    1      -21.325  82.974  37.087  0.00  0.00    +0.174 HD
BRANCH  26  28
ATOM     28  S   LIG    1      -23.119  81.639  37.164  0.00  0.00    +0.075 S 
ATOM     29  O   LIG    1      -24.129  82.593  36.750  0.00  0.00    -0.150 OA
ATOM     30  O   LIG    1      -22.950  81.288  38.554  0.00  0.00    -0.150 OA
BRANCH  28  31
ATOM     31  C   LIG    1      -23.405  80.147  36.264  0.00  0.00    +0.144 A 
ATOM     32  C   LIG    1      -23.012  78.931  36.811  0.00  0.00    +0.153 A 
ATOM     33  F   LIG    1      -22.425  78.868  38.014  0.00  0.00    -0.203 F 
ATOM     34  C   LIG    1      -23.231  77.745  36.116  0.00  0.00    +0.078 A 
ATOM     35  C   LIG    1      -23.838  77.793  34.867  0.00  0.00    +0.126 A 
ATOM     36  F   LIG    1      -24.067  76.655  34.200  0.00  0.00    -0.205 F 
ATOM     37  C   LIG    1      -24.216  79.006  34.297  0.00  0.00    +0.040 A 
ATOM     38  C   LIG    1      -24.000  80.195  34.997  0.00  0.00    +0.034 A 
ENDBRANCH  28  31
ENDBRANCH  26  28
ENDBRANCH   5  26
TORSDOF 6
ENDMDL
MODEL 3
REMARK VINA RESULT:      -7.1      1.237      1.604
REMARK  Name = pdb/CHEMBL2152287.pdb
REMARK                            x       y       z     vdW  Elec       q    Type
REMARK                         _______ _______ _______ _____ _____    ______ ____
ROOT
ATOM      1  C   LIG    1      -28.605  77.113  34.127  0.00  0.00    +0.027 A 
ATOM      2  C   LIG    1      -29.576  76.524  33.300  0.00  0.00    +0.031 A 
ATOM      3  C   LIG    1      -29.239  75.784  32.146  0.00  0.00    -0.013 A 
ATOM      4  C   LIG    1      -27.866  75.607  31.886  0.00  0.00    +0.033 A 
ATOM      5  C   LIG    1      -26.892  76.126  32.743  0.00  0.00    +0.050 A 
ATOM      6  C   LIG    1      -27.259  76.867  33.866  0.00  0.00    +0.047 A 
ENDROOT
BRANCH   3   7
ATOM      7  C   LIG    1      -30.282  75.221  31.246  0.00  0.00    +0.001 A 
ATOM      8  C   LIG    1      -30.990  76.024  30.330  0.00  0.00    +0.022 A 
ATOM      9  C   LIG    1      -31.963  75.448  29.481  0.00  0.00    +0.027 A 
ATOM     10  C   LIG    1      -32.871  75.908  28.466  0.00  0.00    +0.009 A 
ATOM     11  C   LIG    1      -33.574  74.793  28.031  0.00  0.00    +0.093 A 
ATOM     12  N   LIG    1      -33.139  73.703  28.739  0.00  0.00    -0.345 N 
ATOM     13  H   LIG    1      -33.469  72.754  28.645  0.00  0.00    +0.167 HD
ATOM     14  C   LIG    1      -32.173  74.083  29.626  0.00  0.00    +0.139 A 
ATOM     15  N   LIG    1      -31.563  73.243  30.478  0.00  0.00    -0.237 NA
ATOM     16  C   LIG    1      -30.635  73.863  31.256  0.00  0.00    +0.121 A 
BRANCH  10  17
ATOM     17  C   LIG    1      -33.099  77.246  27.926  0.00  0.00    -0.013 A 
ATOM     18  C   LIG    1      -32.289  77.764  26.915  0.00  0.00    +0.028 A 
ATOM     19  C   LIG    1      -32.536  79.047  26.452  0.00  0.00    +0.111 A 
ATOM     20  N   LIG    1      -33.526  79.837  26.914  0.00  0.00    -0.263 NA
ATOM     21  C   LIG    1      -34.309  79.317  27.881  0.00  0.00    +0.111 A 
ATOM     22  C   LIG    1      -34.137  78.048  28.413  0.00  0.00    +0.028 A 
ENDBRANCH  10  17
ENDBRANCH   3   7
BRANCH   1  23
ATOM     23  N   LIG    1      -28.990  77.750  35.316  0.00  0.00    -0.358 N 
ATOM     24  H   LIG    1      -28.793  78.746  35.329  0.00  0.00    +0.142 HD
ATOM     25  H   LIG    1      -28.646  77.291  36.156  0.00  0.00    +0.142 HD
ENDBRANCH   1  23
BRANCH   5  26
ATOM     26  N   LIG    1      -25.507  75.966  32.421  0.00  0.00    -0.216 N 
ATOM     27  H   LIG    1      -24.888  75.895  33.230  0.00  0.00    +0.174 HD
BRANCH  26  28
ATOM     28  S   LIG    1      -24.843  77.119  31.358  0.00  0.00    +0.075 S 
ATOM     29  O   LIG    1      -24.784  78.370  32.088  0.00  0.00    -0.150 OA
ATOM     30  O   LIG    1      -25.495  77.035  30.073  0.00  0.00    -0.150 OA
BRANCH  28  31
ATOM     31  C   LIG    1      -23.183  76.550  31.157  0.00  0.00    +0.144 A 
ATOM     32  C   LIG    1      -22.365  77.147  30.206  0.00  0.00    +0.153 A 
ATOM     33  F   LIG    1      -22.809  78.155  29.442  0.00  0.00    -0.203 F 
ATOM     34  C   LIG    1      -21.053  76.712  30.034  0.00  0.00    +0.078 A 
ATOM     35  C   LIG    1      -20.577  75.668  30.819  0.00  0.00    +0.126 A 
ATOM     36  F   LIG    1      -19.312  75.255  30.671  0.00  0.00    -0.205 F 
ATOM     37  C   LIG    1      -21.394  75.045  31.760  0.00  0.00    +0.040 A 
ATOM     38  C   LIG    1      -22.707  75.485  31.934  0.00  0.00    +0.034 A 
ENDBRANCH  28  31
ENDBRANCH  26  28
ENDBRANCH   5  26
TORSDOF 6
ENDMDL
MODEL 4
REMARK VINA RESULT:      -7.1      8.069     12.450
REMARK  Name = pdb/CHEMBL2152287.pdb
REMARK                            x       y       z     vdW  Elec       q    Type
REMARK                         _______ _______ _______ _____ _____    ______ ____
ROOT
ATOM      1  C   LIG    1      -39.797  77.046  24.409  0.00  0.00    +0.027 A 
ATOM      2  C   LIG    1      -40.233  75.730  24.186  0.00  0.00    +0.031 A 
ATOM      3  C   LIG    1      -39.409  74.609  24.425  0.00  0.00    -0.013 A 
ATOM      4  C   LIG    1      -38.132  74.865  24.960  0.00  0.00    +0.033 A 
ATOM      5  C   LIG    1      -37.715  76.166  25.255  0.00  0.00    +0.050 A 
ATOM      6  C   LIG    1      -38.548  77.252  24.991  0.00  0.00    +0.047 A 
ENDROOT
BRANCH   3   7
ATOM      7  C   LIG    1      -39.865  73.225  24.123  0.00  0.00    +0.001 A 
ATOM      8  C   LIG    1      -38.973  72.134  24.100  0.00  0.00    +0.022 A 
ATOM      9  C   LIG    1      -39.448  70.831  23.824  0.00  0.00    +0.027 A 
ATOM     10  C   LIG    1      -38.882  69.515  23.700  0.00  0.00    +0.009 A 
ATOM     11  C   LIG    1      -39.933  68.662  23.394  0.00  0.00    +0.093 A 
ATOM     12  N   LIG    1      -41.085  69.401  23.322  0.00  0.00    -0.345 N 
ATOM     13  H   LIG    1      -42.010  69.054  23.112  0.00  0.00    +0.167 HD
ATOM     14  C   LIG    1      -40.808  70.715  23.569  0.00  0.00    +0.139 A 
ATOM     15  N   LIG    1      -41.728  71.693  23.551  0.00  0.00    -0.237 NA
ATOM     16  C   LIG    1      -41.202  72.916  23.834  0.00  0.00    +0.121 A 
BRANCH  10  17
ATOM     17  C   LIG    1      -37.503  69.053  23.838  0.00  0.00    -0.013 A 
ATOM     18  C   LIG    1      -36.747  69.368  24.968  0.00  0.00    +0.028 A 
ATOM     19  C   LIG    1      -35.436  68.922  25.041  0.00  0.00    +0.111 A 
ATOM     20  N   LIG    1      -34.837  68.186  24.083  0.00  0.00    -0.263 NA
ATOM     21  C   LIG    1      -35.586  67.878  23.004  0.00  0.00    +0.111 A 
ATOM     22  C   LIG    1      -36.901  68.283  22.838  0.00  0.00    +0.028 A 
ENDBRANCH  10  17
ENDBRANCH   3   7
BRANCH   1  23
ATOM     23  N   LIG    1      -40.690  78.117  24.254  0.00  0.00    -0.358 N 
ATOM     24  H   LIG    1      -40.235  79.022  24.177  0.00  0.00    +0.142 HD
ATOM     25  H   LIG    1      -41.435  78.132  24.945  0.00  0.00    +0.142 HD
ENDBRANCH   1  23
BRANCH   5  26
ATOM     26  N   LIG    1      -36.393  76.391  25.754  0.00  0.00    -0.216 N 
ATOM     27  H   LIG    1      -35.733  75.635  25.565  0.00  0.00    +0.174 HD
BRANCH  26  28
ATOM     28  S   LIG    1      -36.269  76.787  27.406  0.00  0.00    +0.075 S 
ATOM     29  O   LIG    1      -37.496  76.335  28.034  0.00  0.00    -0.150 OA
ATOM     30  O   LIG    1      -35.815  78.149  27.552  0.00  0.00    -0.150 OA
BRANCH  28  31
ATOM     31  C   LIG    1      -34.973  75.726  27.962  0.00  0.00    +0.144 A 
ATOM     32  C   LIG    1      -35.166  74.349  27.961  0.00  0.00    +0.153 A 
ATOM     33  F   LIG    1      -36.317  73.810  27.536  0.00  0.00    -0.203 F 
ATOM     34  C   LIG    1      -34.155  73.497  28.394  0.00  0.00    +0.078 A 
ATOM     35  C   LIG    1      -32.954  74.040  28.838  0.00  0.00    +0.126 A 
ATOM     36  F   LIG    1      -31.970  73.226  29.241  0.00  0.00    -0.205 F 
ATOM     37  C   LIG    1      -32.755  75.418  28.867  0.00  0.00    +0.040 A 
ATOM     38  C   LIG    1      -33.769  76.271  28.427  0.00  0.00    +0.034 A 
ENDBRANCH  28  31
ENDBRANCH  26  28
ENDBRANCH   5  26
TORSDOF 6
ENDMDL
MODEL 5
REMARK VINA RESULT:      -6.8      8.947     12.799
REMARK  Name = pdb/CHEMBL2152287.pdb
REMARK                            x       y       z     vdW  Elec       q    Type
REMARK                         _______ _______ _______ _____ _____    ______ ____
ROOT
ATOM      1  C   LIG    1      -39.798  76.962  24.314  0.00  0.00    +0.027 A 
ATOM      2  C   LIG    1      -40.242  75.645  24.116  0.00  0.00    +0.031 A 
ATOM      3  C   LIG    1      -39.437  74.523  24.408  0.00  0.00    -0.013 A 
ATOM      4  C   LIG    1      -38.173  74.781  24.972  0.00  0.00    +0.033 A 
ATOM      5  C   LIG    1      -37.750  76.085  25.243  0.00  0.00    +0.050 A 
ATOM      6  C   LIG    1      -38.563  77.172  24.926  0.00  0.00    +0.047 A 
ENDROOT
BRANCH   3   7
ATOM      7  C   LIG    1      -39.900  73.135  24.132  0.00  0.00    +0.001 A 
ATOM      8  C   LIG    1      -39.005  72.048  24.074  0.00  0.00    +0.022 A 
ATOM      9  C   LIG    1      -39.485  70.742  23.824  0.00  0.00    +0.027 A 
ATOM     10  C   LIG    1      -38.920  69.428  23.680  0.00  0.00    +0.009 A 
ATOM     11  C   LIG    1      -39.979  68.570  23.424  0.00  0.00    +0.093 A 
ATOM     12  N   LIG    1      -41.136  69.304  23.399  0.00  0.00    -0.345 N 
ATOM     13  H   LIG    1      -42.068  68.952  23.231  0.00  0.00    +0.167 HD
ATOM     14  C   LIG    1      -40.855  70.619  23.629  0.00  0.00    +0.139 A 
ATOM     15  N   LIG    1      -41.779  71.594  23.647  0.00  0.00    -0.237 NA
ATOM     16  C   LIG    1      -41.247  72.820  23.902  0.00  0.00    +0.121 A 
BRANCH  10  17
ATOM     17  C   LIG    1      -37.534  68.973  23.760  0.00  0.00    -0.013 A 
ATOM     18  C   LIG    1      -36.751  69.241  24.883  0.00  0.00    +0.028 A 
ATOM     19  C   LIG    1      -35.435  68.803  24.900  0.00  0.00    +0.111 A 
ATOM     20  N   LIG    1      -34.856  68.119  23.893  0.00  0.00    -0.263 NA
ATOM     21  C   LIG    1      -35.631  67.855  22.821  0.00  0.00    +0.111 A 
ATOM     22  C   LIG    1      -36.953  68.256  22.709  0.00  0.00    +0.028 A 
ENDBRANCH  10  17
ENDBRANCH   3   7
BRANCH   1  23
ATOM     23  N   LIG    1      -40.674  78.037  24.105  0.00  0.00    -0.358 N 
ATOM     24  H   LIG    1      -41.506  77.791  23.577  0.00  0.00    +0.142 HD
ATOM     25  H   LIG    1      -40.223  78.865  23.724  0.00  0.00    +0.142 HD
ENDBRANCH   1  23
BRANCH   5  26
ATOM     26  N   LIG    1      -36.440  76.310  25.773  0.00  0.00    -0.216 N 
ATOM     27  H   LIG    1      -35.712  75.719  25.369  0.00  0.00    +0.174 HD
BRANCH  26  28
ATOM     28  S   LIG    1      -36.291  76.236  27.468  0.00  0.00    +0.075 S 
ATOM     29  O   LIG    1      -35.221  75.299  27.749  0.00  0.00    -0.150 OA
ATOM     30  O   LIG    1      -37.594  76.084  28.070  0.00  0.00    -0.150 OA
BRANCH  28  31
ATOM     31  C   LIG    1      -35.696  77.849  27.874  0.00  0.00    +0.144 A 
ATOM     32  C   LIG    1      -36.565  78.932  27.823  0.00  0.00    +0.153 A 
ATOM     33  F   LIG    1      -37.851  78.776  27.478  0.00  0.00    -0.203 F 
ATOM     34  C   LIG    1      -36.115  80.210  28.141  0.00  0.00    +0.078 A 
ATOM     35  C   LIG    1      -34.784  80.390  28.500  0.00  0.00    +0.126 A 
ATOM     36  F   LIG    1      -34.347  81.613  28.824  0.00  0.00    -0.205 F 
ATOM     37  C   LIG    1      -33.896  79.317  28.534  0.00  0.00    +0.040 A 
ATOM     38  C   LIG    1      -34.351  78.035  28.218  0.00  0.00    +0.034 A 
ENDBRANCH  28  31
ENDBRANCH  26  28
ENDBRANCH   5  26
TORSDOF 6
ENDMDL
MODEL 6
REMARK VINA RESULT:      -6.7      8.155     12.906
REMARK  Name = pdb/CHEMBL2152287.pdb
REMARK                            x       y       z     vdW  Elec       q    Type
REMARK                         _______ _______ _______ _____ _____    ______ ____
ROOT
ATOM      1  C   LIG    1      -36.667  70.082  28.150  0.00  0.00    +0.027 A 
ATOM      2  C   LIG    1      -35.627  70.838  28.713  0.00  0.00    +0.031 A 
ATOM      3  C   LIG    1      -35.138  72.019  28.113  0.00  0.00    -0.013 A 
ATOM      4  C   LIG    1      -35.787  72.447  26.939  0.00  0.00    +0.033 A 
ATOM      5  C   LIG    1      -36.872  71.743  26.410  0.00  0.00    +0.050 A 
ATOM      6  C   LIG    1      -37.318  70.571  27.019  0.00  0.00    +0.047 A 
ENDROOT
BRANCH   3   7
ATOM      7  C   LIG    1      -33.993  72.774  28.691  0.00  0.00    +0.001 A 
ATOM      8  C   LIG    1      -33.775  74.135  28.402  0.00  0.00    +0.022 A 
ATOM      9  C   LIG    1      -32.684  74.821  28.982  0.00  0.00    +0.027 A 
ATOM     10  C   LIG    1      -32.135  76.149  28.932  0.00  0.00    +0.009 A 
ATOM     11  C   LIG    1      -31.017  76.145  29.753  0.00  0.00    +0.093 A 
ATOM     12  N   LIG    1      -30.868  74.888  30.277  0.00  0.00    -0.345 N 
ATOM     13  H   LIG    1      -30.140  74.580  30.907  0.00  0.00    +0.167 HD
ATOM     14  C   LIG    1      -31.861  74.073  29.814  0.00  0.00    +0.139 A 
ATOM     15  N   LIG    1      -31.977  72.774  30.132  0.00  0.00    -0.237 NA
ATOM     16  C   LIG    1      -33.053  72.181  29.547  0.00  0.00    +0.121 A 
BRANCH  10  17
ATOM     17  C   LIG    1      -32.574  77.335  28.201  0.00  0.00    -0.013 A 
ATOM     18  C   LIG    1      -31.988  77.690  26.985  0.00  0.00    +0.028 A 
ATOM     19  C   LIG    1      -32.427  78.836  26.340  0.00  0.00    +0.111 A 
ATOM     20  N   LIG    1      -33.403  79.639  26.812  0.00  0.00    -0.263 NA
ATOM     21  C   LIG    1      -33.970  79.273  27.980  0.00  0.00    +0.111 A 
ATOM     22  C   LIG    1      -33.594  78.151  28.701  0.00  0.00    +0.028 A 
ENDBRANCH  10  17
ENDBRANCH   3   7
BRANCH   1  23
ATOM     23  N   LIG    1      -37.184  68.975  28.839  0.00  0.00    -0.358 N 
ATOM     24  H   LIG    1      -37.568  68.257  28.232  0.00  0.00    +0.142 HD
ATOM     25  H   LIG    1      -37.832  69.221  29.582  0.00  0.00    +0.142 HD
ENDBRANCH   1  23
BRANCH   5  26
ATOM     26  N   LIG    1      -37.476  72.182  25.190  0.00  0.00    -0.216 N 
ATOM     27  H   LIG    1      -36.815  72.381  24.437  0.00  0.00    +0.174 HD
BRANCH  26  28
ATOM     28  S   LIG    1      -38.540  73.506  25.310  0.00  0.00    +0.075 S 
ATOM     29  O   LIG    1      -37.878  74.630  24.678  0.00  0.00    -0.150 OA
ATOM     30  O   LIG    1      -39.054  73.603  26.656  0.00  0.00    -0.150 OA
BRANCH  28  31
ATOM     31  C   LIG    1      -39.876  73.025  24.260  0.00  0.00    +0.144 A 
ATOM     32  C   LIG    1      -40.823  73.969  23.881  0.00  0.00    +0.153 A 
ATOM     33  F   LIG    1      -40.739  75.241  24.292  0.00  0.00    -0.203 F 
ATOM     34  C   LIG    1      -41.882  73.609  23.052  0.00  0.00    +0.078 A 
ATOM     35  C   LIG    1      -41.985  72.292  22.617  0.00  0.00    +0.126 A 
ATOM     36  F   LIG    1      -42.991  71.941  21.806  0.00  0.00    -0.205 F 
ATOM     37  C   LIG    1      -41.055  71.331  23.007  0.00  0.00    +0.040 A 
ATOM     38  C   LIG    1      -39.992  71.695  23.835  0.00  0.00    +0.034 A 
ENDBRANCH  28  31
ENDBRANCH  26  28
ENDBRANCH   5  26
TORSDOF 6
ENDMDL
MODEL 7
REMARK VINA RESULT:      -6.6      9.286     12.919
REMARK  Name = pdb/CHEMBL2152287.pdb
REMARK                            x       y       z     vdW  Elec       q    Type
REMARK                         _______ _______ _______ _____ _____    ______ ____
ROOT
ATOM      1  C   LIG    1      -39.562  77.207  24.579  0.00  0.00    +0.027 A 
ATOM      2  C   LIG    1      -40.042  75.920  24.287  0.00  0.00    +0.031 A 
ATOM      3  C   LIG    1      -39.266  74.759  24.490  0.00  0.00    -0.013 A 
ATOM      4  C   LIG    1      -37.992  74.941  25.064  0.00  0.00    +0.033 A 
ATOM      5  C   LIG    1      -37.534  76.210  25.428  0.00  0.00    +0.050 A 
ATOM      6  C   LIG    1      -38.320  77.338  25.197  0.00  0.00    +0.047 A 
ENDROOT
BRANCH   3   7
ATOM      7  C   LIG    1      -39.766  73.408  24.115  0.00  0.00    +0.001 A 
ATOM      8  C   LIG    1      -40.978  73.228  23.420  0.00  0.00    +0.022 A 
ATOM      9  C   LIG    1      -41.412  71.929  23.069  0.00  0.00    +0.027 A 
ATOM     10  C   LIG    1      -42.545  71.348  22.401  0.00  0.00    +0.009 A 
ATOM     11  C   LIG    1      -42.344  69.976  22.405  0.00  0.00    +0.093 A 
ATOM     12  N   LIG    1      -41.161  69.712  23.046  0.00  0.00    -0.345 N 
ATOM     13  H   LIG    1      -40.754  68.802  23.207  0.00  0.00    +0.167 HD
ATOM     14  C   LIG    1      -40.591  70.880  23.462  0.00  0.00    +0.139 A 
ATOM     15  N   LIG    1      -39.433  70.952  24.139  0.00  0.00    -0.237 NA
ATOM     16  C   LIG    1      -39.074  72.231  24.435  0.00  0.00    +0.121 A 
BRANCH  10  17
ATOM     17  C   LIG    1      -43.724  71.973  21.806  0.00  0.00    -0.013 A 
ATOM     18  C   LIG    1      -44.833  72.306  22.585  0.00  0.00    +0.028 A 
ATOM     19  C   LIG    1      -45.935  72.878  21.968  0.00  0.00    +0.111 A 
ATOM     20  N   LIG    1      -46.005  73.146  20.649  0.00  0.00    -0.263 NA
ATOM     21  C   LIG    1      -44.919  72.832  19.913  0.00  0.00    +0.111 A 
ATOM     22  C   LIG    1      -43.775  72.251  20.436  0.00  0.00    +0.028 A 
ENDBRANCH  10  17
ENDBRANCH   3   7
BRANCH   1  23
ATOM     23  N   LIG    1      -40.410  78.317  24.455  0.00  0.00    -0.358 N 
ATOM     24  H   LIG    1      -41.371  78.075  24.232  0.00  0.00    +0.142 HD
ATOM     25  H   LIG    1      -40.054  79.038  23.833  0.00  0.00    +0.142 HD
ENDBRANCH   1  23
BRANCH   5  26
ATOM     26  N   LIG    1      -36.217  76.361  25.965  0.00  0.00    -0.216 N 
ATOM     27  H   LIG    1      -35.630  75.528  25.892  0.00  0.00    +0.174 HD
BRANCH  26  28
ATOM     28  S   LIG    1      -36.117  76.929  27.568  0.00  0.00    +0.075 S 
ATOM     29  O   LIG    1      -37.241  76.353  28.281  0.00  0.00    -0.150 OA
ATOM     30  O   LIG    1      -35.881  78.353  27.572  0.00  0.00    -0.150 OA
BRANCH  28  31
ATOM     31  C   LIG    1      -34.655  76.140  28.167  0.00  0.00    +0.144 A 
ATOM     32  C   LIG    1      -34.580  74.753  28.176  0.00  0.00    +0.153 A 
ATOM     33  F   LIG    1      -35.594  73.999  27.730  0.00  0.00    -0.203 F 
ATOM     34  C   LIG    1      -33.435  74.114  28.644  0.00  0.00    +0.078 A 
ATOM     35  C   LIG    1      -32.374  74.881  29.110  0.00  0.00    +0.126 A 
ATOM     36  F   LIG    1      -31.262  74.274  29.546  0.00  0.00    -0.205 F 
ATOM     37  C   LIG    1      -32.444  76.272  29.129  0.00  0.00    +0.040 A 
ATOM     38  C   LIG    1      -33.592  76.911  28.655  0.00  0.00    +0.034 A 
ENDBRANCH  28  31
ENDBRANCH  26  28
ENDBRANCH   5  26
TORSDOF 6
ENDMDL
MODEL 8
REMARK VINA RESULT:      -6.6      8.045     11.940
REMARK  Name = pdb/CHEMBL2152287.pdb
REMARK                            x       y       z     vdW  Elec       q    Type
REMARK                         _______ _______ _______ _____ _____    ______ ____
ROOT
ATOM      1  C   LIG    1      -37.235  68.759  24.942  0.00  0.00    +0.027 A 
ATOM      2  C   LIG    1      -38.301  69.532  24.455  0.00  0.00    +0.031 A 
ATOM      3  C   LIG    1      -38.320  70.940  24.548  0.00  0.00    -0.013 A 
ATOM      4  C   LIG    1      -37.180  71.553  25.102  0.00  0.00    +0.033 A 
ATOM      5  C   LIG    1      -36.081  70.798  25.522  0.00  0.00    +0.050 A 
ATOM      6  C   LIG    1      -36.103  69.408  25.432  0.00  0.00    +0.047 A 
ENDROOT
BRANCH   3   7
ATOM      7  C   LIG    1      -39.487  71.739  24.084  0.00  0.00    +0.001 A 
ATOM      8  C   LIG    1      -39.535  73.140  24.225  0.00  0.00    +0.022 A 
ATOM      9  C   LIG    1      -40.656  73.866  23.759  0.00  0.00    +0.027 A 
ATOM     10  C   LIG    1      -41.075  75.240  23.729  0.00  0.00    +0.009 A 
ATOM     11  C   LIG    1      -42.323  75.259  23.123  0.00  0.00    +0.093 A 
ATOM     12  N   LIG    1      -42.668  73.972  22.802  0.00  0.00    -0.345 N 
ATOM     13  H   LIG    1      -43.522  73.673  22.354  0.00  0.00    +0.167 HD
ATOM     14  C   LIG    1      -41.677  73.117  23.188  0.00  0.00    +0.139 A 
ATOM     15  N   LIG    1      -41.728  71.785  23.027  0.00  0.00    -0.237 NA
ATOM     16  C   LIG    1      -40.615  71.154  23.489  0.00  0.00    +0.121 A 
BRANCH  10  17
ATOM     17  C   LIG    1      -40.412  76.450  24.212  0.00  0.00    -0.013 A 
ATOM     18  C   LIG    1      -40.034  76.579  25.550  0.00  0.00    +0.028 A 
ATOM     19  C   LIG    1      -39.427  77.756  25.961  0.00  0.00    +0.111 A 
ATOM     20  N   LIG    1      -39.166  78.795  25.143  0.00  0.00    -0.263 NA
ATOM     21  C   LIG    1      -39.523  78.647  23.851  0.00  0.00    +0.111 A 
ATOM     22  C   LIG    1      -40.141  77.514  23.347  0.00  0.00    +0.028 A 
ENDBRANCH  10  17
ENDBRANCH   3   7
BRANCH   1  23
ATOM     23  N   LIG    1      -37.220  67.372  24.733  0.00  0.00    -0.358 N 
ATOM     24  H   LIG    1      -37.415  66.830  25.569  0.00  0.00    +0.142 HD
ATOM     25  H   LIG    1      -36.385  67.038  24.259  0.00  0.00    +0.142 HD
ENDBRANCH   1  23
BRANCH   5  26
ATOM     26  N   LIG    1      -34.960  71.453  26.123  0.00  0.00    -0.216 N 
ATOM     27  H   LIG    1      -34.051  71.160  25.760  0.00  0.00    +0.174 HD
BRANCH  26  28
ATOM     28  S   LIG    1      -34.881  71.402  27.824  0.00  0.00    +0.075 S 
ATOM     29  O   LIG    1      -33.795  70.502  28.161  0.00  0.00    -0.150 OA
ATOM     30  O   LIG    1      -36.204  71.214  28.372  0.00  0.00    -0.150 OA
BRANCH  28  31
ATOM     31  C   LIG    1      -34.357  73.037  28.236  0.00  0.00    +0.144 A 
ATOM     32  C   LIG    1      -35.189  74.114  27.958  0.00  0.00    +0.153 A 
ATOM     33  F   LIG    1      -36.389  73.935  27.389  0.00  0.00    -0.203 F 
ATOM     34  C   LIG    1      -34.793  75.410  28.277  0.00  0.00    +0.078 A 
ATOM     35  C   LIG    1      -33.551  75.612  28.868  0.00  0.00    +0.126 A 
ATOM     36  F   LIG    1      -33.169  76.854  29.193  0.00  0.00    -0.205 F 
ATOM     37  C   LIG    1      -32.696  74.545  29.131  0.00  0.00    +0.040 A 
ATOM     38  C   LIG    1      -33.097  73.245  28.815  0.00  0.00    +0.034 A 
ENDBRANCH  28  31
ENDBRANCH  26  28
ENDBRANCH   5  26
TORSDOF 6
ENDMDL
MODEL 9
REMARK VINA RESULT:      -6.6      8.052     12.158
REMARK  Name = pdb/CHEMBL2152287.pdb
REMARK                            x       y       z     vdW  Elec       q    Type
REMARK                         _______ _______ _______ _____ _____    ______ ____
ROOT
ATOM      1  C   LIG    1      -40.300  76.103  24.071  0.00  0.00    +0.027 A 
ATOM      2  C   LIG    1      -40.338  74.699  24.051  0.00  0.00    +0.031 A 
ATOM      3  C   LIG    1      -39.241  73.906  24.450  0.00  0.00    -0.013 A 
ATOM      4  C   LIG    1      -38.109  74.591  24.934  0.00  0.00    +0.033 A 
ATOM      5  C   LIG    1      -38.088  75.985  25.029  0.00  0.00    +0.050 A 
ATOM      6  C   LIG    1      -39.183  76.738  24.610  0.00  0.00    +0.047 A 
ENDROOT
BRANCH   3   7
ATOM      7  C   LIG    1      -39.275  72.421  24.362  0.00  0.00    +0.001 A 
ATOM      8  C   LIG    1      -38.267  71.617  24.929  0.00  0.00    +0.022 A 
ATOM      9  C   LIG    1      -38.343  70.208  24.837  0.00  0.00    +0.027 A 
ATOM     10  C   LIG    1      -37.546  69.086  25.253  0.00  0.00    +0.009 A 
ATOM     11  C   LIG    1      -38.209  67.948  24.818  0.00  0.00    +0.093 A 
ATOM     12  N   LIG    1      -39.348  68.334  24.160  0.00  0.00    -0.345 N 
ATOM     13  H   LIG    1      -40.029  67.726  23.730  0.00  0.00    +0.167 HD
ATOM     14  C   LIG    1      -39.439  69.696  24.153  0.00  0.00    +0.139 A 
ATOM     15  N   LIG    1      -40.435  70.380  23.568  0.00  0.00    -0.237 NA
ATOM     16  C   LIG    1      -40.301  71.727  23.704  0.00  0.00    +0.121 A 
BRANCH  10  17
ATOM     17  C   LIG    1      -36.281  69.034  25.982  0.00  0.00    -0.013 A 
ATOM     18  C   LIG    1      -36.244  69.149  27.372  0.00  0.00    +0.028 A 
ATOM     19  C   LIG    1      -35.015  69.114  28.013  0.00  0.00    +0.111 A 
ATOM     20  N   LIG    1      -33.837  68.965  27.375  0.00  0.00    -0.263 NA
ATOM     21  C   LIG    1      -33.891  68.840  26.033  0.00  0.00    +0.111 A 
ATOM     22  C   LIG    1      -35.068  68.871  25.303  0.00  0.00    +0.028 A 
ENDBRANCH  10  17
ENDBRANCH   3   7
BRANCH   1  23
ATOM     23  N   LIG    1      -41.453  76.840  23.762  0.00  0.00    -0.358 N 
ATOM     24  H   LIG    1      -42.144  76.851  24.506  0.00  0.00    +0.142 HD
ATOM     25  H   LIG    1      -41.870  76.593  22.869  0.00  0.00    +0.142 HD
ENDBRANCH   1  23
BRANCH   5  26
ATOM     26  N   LIG    1      -36.903  76.647  25.482  0.00  0.00    -0.216 N 
ATOM     27  H   LIG    1      -36.043  76.109  25.360  0.00  0.00    +0.174 HD
BRANCH  26  28
ATOM     28  S   LIG    1      -36.931  77.230  27.082  0.00  0.00    +0.075 S 
ATOM     29  O   LIG    1      -37.774  76.324  27.838  0.00  0.00    -0.150 OA
ATOM     30  O   LIG    1      -37.175  78.653  27.083  0.00  0.00    -0.150 OA
BRANCH  28  31
ATOM     31  C   LIG    1      -35.269  76.969  27.617  0.00  0.00    +0.144 A 
ATOM     32  C   LIG    1      -34.791  75.672  27.761  0.00  0.00    +0.153 A 
ATOM     33  F   LIG    1      -35.566  74.612  27.492  0.00  0.00    -0.203 F 
ATOM     34  C   LIG    1      -33.483  75.447  28.181  0.00  0.00    +0.078 A 
ATOM     35  C   LIG    1      -32.665  76.535  28.464  0.00  0.00    +0.126 A 
ATOM     36  F   LIG    1      -31.401  76.328  28.852  0.00  0.00    -0.205 F 
ATOM     37  C   LIG    1      -33.138  77.840  28.346  0.00  0.00    +0.040 A 
ATOM     38  C   LIG    1      -34.449  78.064  27.921  0.00  0.00    +0.034 A 
ENDBRANCH  28  31
ENDBRANCH  26  28
ENDBRANCH   5  26
TORSDOF 6
ENDMDL
