MODEL 1
REMARK VINA RESULT:      -7.1      0.000      0.000
REMARK  Name = pdb/CHEMBL3952110.pdb
REMARK                            x       y       z     vdW  Elec       q    Type
REMARK                         _______ _______ _______ _____ _____    ______ ____
ROOT
ATOM      1  C   LIG    1      -34.489  80.218  27.938  0.00  0.00    +0.179 A 
ATOM      2  N   LIG    1      -35.781  79.684  28.104  0.00  0.00    -0.193 N 
ATOM      3  N   LIG    1      -36.375  78.640  27.403  0.00  0.00    -0.148 NA
ATOM      4  C   LIG    1      -37.596  78.339  27.784  0.00  0.00    +0.143 A 
ATOM      5  C   LIG    1      -38.343  79.190  28.774  0.00  0.00    +0.049 A 
ATOM      6  C   LIG    1      -37.706  80.158  29.432  0.00  0.00    +0.051 A 
ATOM      7  C   LIG    1      -36.357  80.387  29.149  0.00  0.00    +0.157 A 
ATOM      8  N   LIG    1      -35.527  81.213  29.734  0.00  0.00    -0.232 NA
ATOM      9  C   LIG    1      -34.378  81.094  29.014  0.00  0.00    +0.161 A 
ENDROOT
BRANCH   4  10
ATOM     10  N   LIG    1      -38.235  77.216  27.243  0.00  0.00    -0.307 N 
ATOM     11  C   LIG    1      -37.780  76.568  25.990  0.00  0.00    +0.108 C 
ATOM     12  C   LIG    1      -37.115  75.306  26.547  0.00  0.00    +0.029 C 
ATOM     13  C   LIG    1      -38.072  74.858  27.638  0.00  0.00    +0.021 C 
ATOM     14  C   LIG    1      -38.684  76.159  28.174  0.00  0.00    +0.107 C 
BRANCH  11  15
ATOM     15  C   LIG    1      -38.909  76.393  24.983  0.00  0.00    +0.011 A 
ATOM     16  C   LIG    1      -39.626  77.493  24.486  0.00  0.00    +0.129 A 
ATOM     17  F   LIG    1      -39.310  78.740  24.859  0.00  0.00    -0.205 F 
ATOM     18  C   LIG    1      -40.721  77.345  23.633  0.00  0.00    +0.041 A 
ATOM     19  C   LIG    1      -41.156  76.073  23.284  0.00  0.00    +0.041 A 
ATOM     20  C   LIG    1      -40.492  74.967  23.800  0.00  0.00    +0.124 A 
ATOM     21  F   LIG    1      -40.935  73.740  23.498  0.00  0.00    -0.205 F 
ATOM     22  C   LIG    1      -39.387  75.113  24.642  0.00  0.00    +0.046 A 
ENDBRANCH  11  15
ENDBRANCH   4  10
BRANCH   1  24
ATOM     23  C   LIG    1      -32.725  79.027  26.949  0.00  0.00    +0.286 C 
ATOM     24  N   LIG    1      -33.714  79.858  26.877  0.00  0.00    -0.178 NA
BRANCH  23  25
ATOM     25  N   LIG    1      -32.246  78.258  27.976  0.00  0.00    -0.269 N 
ATOM     26  H   LIG    1      -31.878  78.745  28.768  0.00  0.00    +0.157 HD
BRANCH  25  30
ATOM     27  C   LIG    1      -32.953  74.240  29.025  0.00  0.00    +0.120 A 
ATOM     28  C   LIG    1      -31.842  74.903  29.545  0.00  0.00    +0.047 A 
ATOM     29  C   LIG    1      -31.546  76.205  29.141  0.00  0.00    +0.027 A 
ATOM     30  C   LIG    1      -32.367  76.881  28.238  0.00  0.00    +0.035 A 
ATOM     31  C   LIG    1      -33.434  76.177  27.654  0.00  0.00    +0.027 A 
ATOM     32  C   LIG    1      -33.722  74.865  28.052  0.00  0.00    +0.047 A 
BRANCH  27  34
ATOM     33  C   LIG    1      -34.094  72.260  28.414  0.00  0.00    +0.277 C 
ATOM     34  O   LIG    1      -33.375  72.992  29.401  0.00  0.00    -0.495 OA
ENDBRANCH  27  34
ENDBRANCH  25  30
ENDBRANCH  23  25
BRANCH  23  35
ATOM     35  O   LIG    1      -31.967  78.977  25.831  0.00  0.00    -0.481 OA
ATOM     36  H   LIG    1      -31.216  78.384  25.966  0.00  0.00    +0.295 HD
ENDBRANCH  23  35
ENDBRANCH   1  24
TORSDOF 7
ENDMDL
MODEL 2
REMARK VINA RESULT:      -6.7     12.799     16.736
REMARK  Name = pdb/CHEMBL3952110.pdb
REMARK                            x       y       z     vdW  Elec       q    Type
REMARK                         _______ _______ _______ _____ _____    ______ ____
ROOT
ATOM      1  C   LIG    1      -21.719  77.322  30.033  0.00  0.00    +0.179 A 
ATOM      2  N   LIG    1      -21.142  77.737  31.248  0.00  0.00    -0.193 N 
ATOM      3  N   LIG    1      -21.778  78.284  32.357  0.00  0.00    -0.148 NA
ATOM      4  C   LIG    1      -20.987  78.566  33.368  0.00  0.00    +0.143 A 
ATOM      5  C   LIG    1      -19.491  78.472  33.246  0.00  0.00    +0.049 A 
ATOM      6  C   LIG    1      -18.946  77.911  32.167  0.00  0.00    +0.051 A 
ATOM      7  C   LIG    1      -19.788  77.461  31.147  0.00  0.00    +0.157 A 
ATOM      8  N   LIG    1      -19.476  76.807  30.056  0.00  0.00    -0.232 NA
ATOM      9  C   LIG    1      -20.656  76.698  29.386  0.00  0.00    +0.161 A 
ENDROOT
BRANCH   4  10
ATOM     10  N   LIG    1      -21.538  78.989  34.584  0.00  0.00    -0.307 N 
ATOM     11  C   LIG    1      -22.093  80.350  34.776  0.00  0.00    +0.108 C 
ATOM     12  C   LIG    1      -23.595  80.049  34.768  0.00  0.00    +0.029 C 
ATOM     13  C   LIG    1      -23.702  78.778  35.593  0.00  0.00    +0.021 C 
ATOM     14  C   LIG    1      -22.386  78.035  35.329  0.00  0.00    +0.107 C 
BRANCH  11  15
ATOM     15  C   LIG    1      -21.513  81.047  35.999  0.00  0.00    +0.011 A 
ATOM     16  C   LIG    1      -22.035  82.264  36.467  0.00  0.00    +0.129 A 
ATOM     17  F   LIG    1      -23.089  82.831  35.867  0.00  0.00    -0.205 F 
ATOM     18  C   LIG    1      -21.460  82.961  37.531  0.00  0.00    +0.041 A 
ATOM     19  C   LIG    1      -20.309  82.471  38.135  0.00  0.00    +0.041 A 
ATOM     20  C   LIG    1      -19.747  81.293  37.660  0.00  0.00    +0.124 A 
ATOM     21  F   LIG    1      -18.615  80.840  38.214  0.00  0.00    -0.205 F 
ATOM     22  C   LIG    1      -20.328  80.586  36.605  0.00  0.00    +0.046 A 
ENDBRANCH  11  15
ENDBRANCH   4  10
BRANCH   1  24
ATOM     23  C   LIG    1      -24.032  77.052  30.319  0.00  0.00    +0.286 C 
ATOM     24  N   LIG    1      -23.018  77.608  29.740  0.00  0.00    -0.178 NA
BRANCH  23  25
ATOM     25  N   LIG    1      -24.121  76.161  31.356  0.00  0.00    -0.269 N 
ATOM     26  H   LIG    1      -23.966  76.524  32.275  0.00  0.00    +0.157 HD
BRANCH  25  30
ATOM     27  C   LIG    1      -25.665  72.253  31.066  0.00  0.00    +0.120 A 
ATOM     28  C   LIG    1      -26.426  73.251  31.674  0.00  0.00    +0.047 A 
ATOM     29  C   LIG    1      -25.895  74.529  31.854  0.00  0.00    +0.027 A 
ATOM     30  C   LIG    1      -24.612  74.843  31.406  0.00  0.00    +0.035 A 
ATOM     31  C   LIG    1      -23.821  73.811  30.874  0.00  0.00    +0.027 A 
ATOM     32  C   LIG    1      -24.352  72.525  30.705  0.00  0.00    +0.047 A 
BRANCH  27  34
ATOM     33  C   LIG    1      -25.174  70.145  30.111  0.00  0.00    +0.277 C 
ATOM     34  O   LIG    1      -26.108  70.989  30.777  0.00  0.00    -0.495 OA
ENDBRANCH  27  34
ENDBRANCH  25  30
ENDBRANCH  23  25
BRANCH  23  35
ATOM     35  O   LIG    1      -25.219  77.326  29.733  0.00  0.00    -0.481 OA
ATOM     36  H   LIG    1      -25.556  76.540  29.283  0.00  0.00    +0.295 HD
ENDBRANCH  23  35
ENDBRANCH   1  24
TORSDOF 7
ENDMDL
MODEL 3
REMARK VINA RESULT:      -6.6      1.627      2.675
REMARK  Name = pdb/CHEMBL3952110.pdb
REMARK                            x       y       z     vdW  Elec       q    Type
REMARK                         _______ _______ _______ _____ _____    ______ ____
ROOT
ATOM      1  C   LIG    1      -35.179  78.913  28.334  0.00  0.00    +0.179 A 
ATOM      2  N   LIG    1      -36.402  78.332  27.948  0.00  0.00    -0.193 N 
ATOM      3  N   LIG    1      -36.748  77.806  26.709  0.00  0.00    -0.148 NA
ATOM      4  C   LIG    1      -37.963  77.309  26.635  0.00  0.00    +0.143 A 
ATOM      5  C   LIG    1      -38.949  77.476  27.758  0.00  0.00    +0.049 A 
ATOM      6  C   LIG    1      -38.545  77.962  28.931  0.00  0.00    +0.051 A 
ATOM      7  C   LIG    1      -37.210  78.350  29.073  0.00  0.00    +0.157 A 
ATOM      8  N   LIG    1      -36.587  78.762  30.148  0.00  0.00    -0.232 NA
ATOM      9  C   LIG    1      -35.339  79.083  29.706  0.00  0.00    +0.161 A 
ENDROOT
BRANCH   4  10
ATOM     10  N   LIG    1      -38.367  76.628  25.480  0.00  0.00    -0.307 N 
ATOM     11  C   LIG    1      -39.616  75.833  25.421  0.00  0.00    +0.108 C 
ATOM     12  C   LIG    1      -40.506  76.761  24.588  0.00  0.00    +0.029 C 
ATOM     13  C   LIG    1      -39.567  77.268  23.507  0.00  0.00    +0.021 C 
ATOM     14  C   LIG    1      -38.188  77.306  24.179  0.00  0.00    +0.107 C 
BRANCH  11  15
ATOM     15  C   LIG    1      -39.381  74.419  24.906  0.00  0.00    +0.011 A 
ATOM     16  C   LIG    1      -40.411  73.676  24.306  0.00  0.00    +0.129 A 
ATOM     17  F   LIG    1      -41.628  74.208  24.136  0.00  0.00    -0.205 F 
ATOM     18  C   LIG    1      -40.238  72.349  23.909  0.00  0.00    +0.041 A 
ATOM     19  C   LIG    1      -39.026  71.712  24.143  0.00  0.00    +0.041 A 
ATOM     20  C   LIG    1      -38.007  72.411  24.777  0.00  0.00    +0.124 A 
ATOM     21  F   LIG    1      -36.853  71.786  25.041  0.00  0.00    -0.205 F 
ATOM     22  C   LIG    1      -38.173  73.743  25.162  0.00  0.00    +0.046 A 
ENDBRANCH  11  15
ENDBRANCH   4  10
BRANCH   1  24
ATOM     23  C   LIG    1      -32.992  78.797  27.492  0.00  0.00    +0.286 C 
ATOM     24  N   LIG    1      -34.218  79.201  27.412  0.00  0.00    -0.178 NA
BRANCH  23  25
ATOM     25  N   LIG    1      -32.354  77.971  28.379  0.00  0.00    -0.269 N 
ATOM     26  H   LIG    1      -31.916  78.408  29.164  0.00  0.00    +0.157 HD
BRANCH  25  30
ATOM     27  C   LIG    1      -32.763  73.839  29.086  0.00  0.00    +0.120 A 
ATOM     28  C   LIG    1      -31.689  74.531  29.646  0.00  0.00    +0.047 A 
ATOM     29  C   LIG    1      -31.492  75.880  29.351  0.00  0.00    +0.027 A 
ATOM     30  C   LIG    1      -32.375  76.571  28.522  0.00  0.00    +0.035 A 
ATOM     31  C   LIG    1      -33.403  75.847  27.895  0.00  0.00    +0.027 A 
ATOM     32  C   LIG    1      -33.592  74.489  28.182  0.00  0.00    +0.047 A 
BRANCH  27  34
ATOM     33  C   LIG    1      -33.971  71.914  28.430  0.00  0.00    +0.277 C 
ATOM     34  O   LIG    1      -33.090  72.537  29.359  0.00  0.00    -0.495 OA
ENDBRANCH  27  34
ENDBRANCH  25  30
ENDBRANCH  23  25
BRANCH  23  35
ATOM     35  O   LIG    1      -32.165  79.369  26.589  0.00  0.00    -0.481 OA
ATOM     36  H   LIG    1      -31.837  80.213  26.927  0.00  0.00    +0.295 HD
ENDBRANCH  23  35
ENDBRANCH   1  24
TORSDOF 7
ENDMDL
MODEL 4
REMARK VINA RESULT:      -6.5     11.784     15.769
REMARK  Name = pdb/CHEMBL3952110.pdb
REMARK                            x       y       z     vdW  Elec       q    Type
REMARK                         _______ _______ _______ _____ _____    ______ ____
ROOT
ATOM      1  C   LIG    1      -26.492  76.722  32.102  0.00  0.00    +0.179 A 
ATOM      2  N   LIG    1      -26.065  76.754  33.443  0.00  0.00    -0.193 N 
ATOM      3  N   LIG    1      -25.427  77.790  34.116  0.00  0.00    -0.148 NA
ATOM      4  C   LIG    1      -25.158  77.550  35.379  0.00  0.00    +0.143 A 
ATOM      5  C   LIG    1      -25.363  76.187  35.982  0.00  0.00    +0.049 A 
ATOM      6  C   LIG    1      -26.007  75.246  35.292  0.00  0.00    +0.051 A 
ATOM      7  C   LIG    1      -26.441  75.541  33.997  0.00  0.00    +0.157 A 
ATOM      8  N   LIG    1      -27.162  74.807  33.188  0.00  0.00    -0.232 NA
ATOM      9  C   LIG    1      -27.217  75.535  32.039  0.00  0.00    +0.161 A 
ENDROOT
BRANCH   4  10
ATOM     10  N   LIG    1      -24.645  78.573  36.187  0.00  0.00    -0.307 N 
ATOM     11  C   LIG    1      -24.780  80.007  35.836  0.00  0.00    +0.108 C 
ATOM     12  C   LIG    1      -25.863  80.442  36.829  0.00  0.00    +0.029 C 
ATOM     13  C   LIG    1      -25.462  79.739  38.114  0.00  0.00    +0.021 C 
ATOM     14  C   LIG    1      -24.791  78.438  37.651  0.00  0.00    +0.107 C 
BRANCH  11  15
ATOM     15  C   LIG    1      -23.447  80.741  35.870  0.00  0.00    +0.011 A 
ATOM     16  C   LIG    1      -22.332  80.272  35.157  0.00  0.00    +0.129 A 
ATOM     17  F   LIG    1      -22.422  79.176  34.392  0.00  0.00    -0.205 F 
ATOM     18  C   LIG    1      -21.079  80.881  35.247  0.00  0.00    +0.041 A 
ATOM     19  C   LIG    1      -20.899  81.965  36.096  0.00  0.00    +0.041 A 
ATOM     20  C   LIG    1      -21.976  82.420  36.848  0.00  0.00    +0.124 A 
ATOM     21  F   LIG    1      -21.794  83.439  37.697  0.00  0.00    -0.205 F 
ATOM     22  C   LIG    1      -23.233  81.821  36.748  0.00  0.00    +0.046 A 
ENDBRANCH  11  15
ENDBRANCH   4  10
BRANCH   1  24
ATOM     23  C   LIG    1      -25.046  77.673  30.517  0.00  0.00    +0.286 C 
ATOM     24  N   LIG    1      -26.127  77.700  31.227  0.00  0.00    -0.178 NA
BRANCH  23  25
ATOM     25  N   LIG    1      -24.072  76.722  30.364  0.00  0.00    -0.269 N 
ATOM     26  H   LIG    1      -24.339  75.877  29.902  0.00  0.00    +0.157 HD
BRANCH  25  30
ATOM     27  C   LIG    1      -19.943  77.359  30.895  0.00  0.00    +0.120 A 
ATOM     28  C   LIG    1      -20.418  76.912  29.663  0.00  0.00    +0.047 A 
ATOM     29  C   LIG    1      -21.771  76.614  29.497  0.00  0.00    +0.027 A 
ATOM     30  C   LIG    1      -22.678  76.786  30.542  0.00  0.00    +0.035 A 
ATOM     31  C   LIG    1      -22.178  77.153  31.803  0.00  0.00    +0.027 A 
ATOM     32  C   LIG    1      -20.817  77.440  31.971  0.00  0.00    +0.047 A 
BRANCH  27  34
ATOM     33  C   LIG    1      -18.382  78.144  32.491  0.00  0.00    +0.277 C 
ATOM     34  O   LIG    1      -18.654  77.744  31.150  0.00  0.00    -0.495 OA
ENDBRANCH  27  34
ENDBRANCH  25  30
ENDBRANCH  23  25
BRANCH  23  35
ATOM     35  O   LIG    1      -24.778  78.835  29.881  0.00  0.00    -0.481 OA
ATOM     36  H   LIG    1      -23.823  78.964  29.814  0.00  0.00    +0.295 HD
ENDBRANCH  23  35
ENDBRANCH   1  24
TORSDOF 7
ENDMDL
MODEL 5
REMARK VINA RESULT:      -6.5     11.704     14.704
REMARK  Name = pdb/CHEMBL3952110.pdb
REMARK                            x       y       z     vdW  Elec       q    Type
REMARK                         _______ _______ _______ _____ _____    ______ ____
ROOT
ATOM      1  C   LIG    1      -24.155  77.122  30.135  0.00  0.00    +0.179 A 
ATOM      2  N   LIG    1      -24.823  76.048  30.753  0.00  0.00    -0.193 N 
ATOM      3  N   LIG    1      -24.437  74.714  30.808  0.00  0.00    -0.148 NA
ATOM      4  C   LIG    1      -25.252  73.926  31.473  0.00  0.00    +0.143 A 
ATOM      5  C   LIG    1      -26.586  74.413  31.969  0.00  0.00    +0.049 A 
ATOM      6  C   LIG    1      -26.883  75.711  31.912  0.00  0.00    +0.051 A 
ATOM      7  C   LIG    1      -25.954  76.588  31.347  0.00  0.00    +0.157 A 
ATOM      8  N   LIG    1      -26.000  77.894  31.273  0.00  0.00    -0.232 NA
ATOM      9  C   LIG    1      -24.891  78.226  30.556  0.00  0.00    +0.161 A 
ENDROOT
BRANCH   4  10
ATOM     10  N   LIG    1      -24.891  72.594  31.710  0.00  0.00    -0.307 N 
ATOM     11  C   LIG    1      -23.549  72.062  31.374  0.00  0.00    +0.108 C 
ATOM     12  C   LIG    1      -22.925  71.961  32.770  0.00  0.00    +0.029 C 
ATOM     13  C   LIG    1      -24.057  71.411  33.621  0.00  0.00    +0.021 C 
ATOM     14  C   LIG    1      -25.332  71.971  32.976  0.00  0.00    +0.107 C 
BRANCH  11  15
ATOM     15  C   LIG    1      -23.620  70.795  30.533  0.00  0.00    +0.011 A 
ATOM     16  C   LIG    1      -22.517  69.935  30.406  0.00  0.00    +0.129 A 
ATOM     17  F   LIG    1      -21.374  70.188  31.057  0.00  0.00    -0.205 F 
ATOM     18  C   LIG    1      -22.535  68.818  29.569  0.00  0.00    +0.041 A 
ATOM     19  C   LIG    1      -23.660  68.553  28.797  0.00  0.00    +0.041 A 
ATOM     20  C   LIG    1      -24.746  69.415  28.870  0.00  0.00    +0.124 A 
ATOM     21  F   LIG    1      -25.815  69.185  28.095  0.00  0.00    -0.205 F 
ATOM     22  C   LIG    1      -24.736  70.525  29.717  0.00  0.00    +0.046 A 
ENDBRANCH  11  15
ENDBRANCH   4  10
BRANCH   1  24
ATOM     23  C   LIG    1      -21.874  76.747  29.735  0.00  0.00    +0.286 C 
ATOM     24  N   LIG    1      -23.088  76.904  29.317  0.00  0.00    -0.178 NA
BRANCH  23  25
ATOM     25  N   LIG    1      -21.339  76.669  30.993  0.00  0.00    -0.269 N 
ATOM     26  H   LIG    1      -20.830  75.837  31.214  0.00  0.00    +0.157 HD
BRANCH  25  30
ATOM     27  C   LIG    1      -20.585  79.301  34.194  0.00  0.00    +0.120 A 
ATOM     28  C   LIG    1      -21.826  78.671  34.097  0.00  0.00    +0.047 A 
ATOM     29  C   LIG    1      -22.121  77.864  32.998  0.00  0.00    +0.027 A 
ATOM     30  C   LIG    1      -21.178  77.645  31.994  0.00  0.00    +0.035 A 
ATOM     31  C   LIG    1      -19.965  78.350  32.055  0.00  0.00    +0.027 A 
ATOM     32  C   LIG    1      -19.674  79.170  33.154  0.00  0.00    +0.047 A 
BRANCH  27  34
ATOM     33  C   LIG    1      -20.943  81.215  35.537  0.00  0.00    +0.277 C 
ATOM     34  O   LIG    1      -20.165  80.055  35.257  0.00  0.00    -0.495 OA
ENDBRANCH  27  34
ENDBRANCH  25  30
ENDBRANCH  23  25
BRANCH  23  35
ATOM     35  O   LIG    1      -20.948  76.756  28.749  0.00  0.00    -0.481 OA
ATOM     36  H   LIG    1      -20.577  75.871  28.635  0.00  0.00    +0.295 HD
ENDBRANCH  23  35
ENDBRANCH   1  24
TORSDOF 7
ENDMDL
MODEL 6
REMARK VINA RESULT:      -6.5     19.151     22.378
REMARK  Name = pdb/CHEMBL3952110.pdb
REMARK                            x       y       z     vdW  Elec       q    Type
REMARK                         _______ _______ _______ _____ _____    ______ ____
ROOT
ATOM      1  C   LIG    1      -22.809  86.232  13.803  0.00  0.00    +0.179 A 
ATOM      2  N   LIG    1      -22.476  84.914  13.435  0.00  0.00    -0.193 N 
ATOM      3  N   LIG    1      -22.076  83.868  14.258  0.00  0.00    -0.148 NA
ATOM      4  C   LIG    1      -21.843  82.732  13.640  0.00  0.00    +0.143 A 
ATOM      5  C   LIG    1      -21.833  82.641  12.138  0.00  0.00    +0.049 A 
ATOM      6  C   LIG    1      -22.255  83.673  11.408  0.00  0.00    +0.051 A 
ATOM      7  C   LIG    1      -22.658  84.840  12.063  0.00  0.00    +0.157 A 
ATOM      8  N   LIG    1      -23.186  85.924  11.554  0.00  0.00    -0.232 NA
ATOM      9  C   LIG    1      -23.303  86.767  12.617  0.00  0.00    +0.161 A 
ENDROOT
BRANCH   4  10
ATOM     10  N   LIG    1      -21.572  81.578  14.386  0.00  0.00    -0.307 N 
ATOM     11  C   LIG    1      -20.935  81.627  15.724  0.00  0.00    +0.108 C 
ATOM     12  C   LIG    1      -22.138  81.326  16.622  0.00  0.00    +0.029 C 
ATOM     13  C   LIG    1      -22.864  80.219  15.878  0.00  0.00    +0.021 C 
ATOM     14  C   LIG    1      -22.588  80.505  14.395  0.00  0.00    +0.107 C 
BRANCH  11  15
ATOM     15  C   LIG    1      -19.724  80.709  15.824  0.00  0.00    +0.011 A 
ATOM     16  C   LIG    1      -18.564  80.939  15.067  0.00  0.00    +0.129 A 
ATOM     17  F   LIG    1      -18.477  82.000  14.255  0.00  0.00    -0.205 F 
ATOM     18  C   LIG    1      -17.480  80.060  15.079  0.00  0.00    +0.041 A 
ATOM     19  C   LIG    1      -17.547  78.892  15.829  0.00  0.00    +0.041 A 
ATOM     20  C   LIG    1      -18.702  78.620  16.551  0.00  0.00    +0.124 A 
ATOM     21  F   LIG    1      -18.785  77.475  17.242  0.00  0.00    -0.205 F 
ATOM     22  C   LIG    1      -19.782  79.505  16.552  0.00  0.00    +0.046 A 
ENDBRANCH  11  15
ENDBRANCH   4  10
BRANCH   1  24
ATOM     23  C   LIG    1      -21.511  87.326  15.423  0.00  0.00    +0.286 C 
ATOM     24  N   LIG    1      -22.577  86.685  15.067  0.00  0.00    -0.178 NA
BRANCH  23  25
ATOM     25  N   LIG    1      -20.434  87.783  14.710  0.00  0.00    -0.269 N 
ATOM     26  H   LIG    1      -19.923  88.545  15.108  0.00  0.00    +0.157 HD
BRANCH  25  30
ATOM     27  C   LIG    1      -18.027  86.260  11.608  0.00  0.00    +0.120 A 
ATOM     28  C   LIG    1      -18.714  87.459  11.421  0.00  0.00    +0.047 A 
ATOM     29  C   LIG    1      -19.582  87.933  12.406  0.00  0.00    +0.027 A 
ATOM     30  C   LIG    1      -19.757  87.239  13.603  0.00  0.00    +0.035 A 
ATOM     31  C   LIG    1      -19.129  85.991  13.747  0.00  0.00    +0.027 A 
ATOM     32  C   LIG    1      -18.267  85.511  12.753  0.00  0.00    +0.047 A 
BRANCH  27  34
ATOM     33  C   LIG    1      -17.631  85.111   9.578  0.00  0.00    +0.277 C 
ATOM     34  O   LIG    1      -17.102  85.739  10.742  0.00  0.00    -0.495 OA
ENDBRANCH  27  34
ENDBRANCH  25  30
ENDBRANCH  23  25
BRANCH  23  35
ATOM     35  O   LIG    1      -21.392  87.495  16.759  0.00  0.00    -0.481 OA
ATOM     36  H   LIG    1      -20.711  88.151  16.951  0.00  0.00    +0.295 HD
ENDBRANCH  23  35
ENDBRANCH   1  24
TORSDOF 7
ENDMDL
MODEL 7
REMARK VINA RESULT:      -6.4      2.257      4.637
REMARK  Name = pdb/CHEMBL3952110.pdb
REMARK                            x       y       z     vdW  Elec       q    Type
REMARK                         _______ _______ _______ _____ _____    ______ ____
ROOT
ATOM      1  C   LIG    1      -33.823  76.531  27.790  0.00  0.00    +0.179 A 
ATOM      2  N   LIG    1      -35.189  76.256  27.591  0.00  0.00    -0.193 N 
ATOM      3  N   LIG    1      -35.929  76.384  26.421  0.00  0.00    -0.148 NA
ATOM      4  C   LIG    1      -37.192  76.037  26.520  0.00  0.00    +0.143 A 
ATOM      5  C   LIG    1      -37.815  75.708  27.850  0.00  0.00    +0.049 A 
ATOM      6  C   LIG    1      -37.044  75.572  28.929  0.00  0.00    +0.051 A 
ATOM      7  C   LIG    1      -35.669  75.786  28.803  0.00  0.00    +0.157 A 
ATOM      8  N   LIG    1      -34.729  75.620  29.699  0.00  0.00    -0.232 NA
ATOM      9  C   LIG    1      -33.597  76.050  29.076  0.00  0.00    +0.161 A 
ENDROOT
BRANCH   4  10
ATOM     10  N   LIG    1      -37.994  75.992  25.373  0.00  0.00    -0.307 N 
ATOM     11  C   LIG    1      -39.475  75.971  25.437  0.00  0.00    +0.108 C 
ATOM     12  C   LIG    1      -39.799  77.405  25.007  0.00  0.00    +0.029 C 
ATOM     13  C   LIG    1      -38.831  77.655  23.863  0.00  0.00    +0.021 C 
ATOM     14  C   LIG    1      -37.593  76.819  24.215  0.00  0.00    +0.107 C 
BRANCH  11  15
ATOM     15  C   LIG    1      -40.075  74.831  24.626  0.00  0.00    +0.011 A 
ATOM     16  C   LIG    1      -41.381  74.902  24.115  0.00  0.00    +0.129 A 
ATOM     17  F   LIG    1      -42.127  75.999  24.297  0.00  0.00    -0.205 F 
ATOM     18  C   LIG    1      -41.979  73.832  23.447  0.00  0.00    +0.041 A 
ATOM     19  C   LIG    1      -41.289  72.634  23.307  0.00  0.00    +0.041 A 
ATOM     20  C   LIG    1      -40.013  72.523  23.845  0.00  0.00    +0.124 A 
ATOM     21  F   LIG    1      -39.363  71.356  23.748  0.00  0.00    -0.205 F 
ATOM     22  C   LIG    1      -39.408  73.597  24.502  0.00  0.00    +0.046 A 
ENDBRANCH  11  15
ENDBRANCH   4  10
BRANCH   1  24
ATOM     23  C   LIG    1      -32.799  78.429  26.865  0.00  0.00    +0.286 C 
ATOM     24  N   LIG    1      -33.091  77.169  26.835  0.00  0.00    -0.178 NA
BRANCH  23  25
ATOM     25  N   LIG    1      -33.029  79.402  27.801  0.00  0.00    -0.269 N 
ATOM     26  H   LIG    1      -32.244  79.959  28.072  0.00  0.00    +0.157 HD
BRANCH  25  30
ATOM     27  C   LIG    1      -36.383  81.345  29.449  0.00  0.00    +0.120 A 
ATOM     28  C   LIG    1      -35.797  80.280  30.134  0.00  0.00    +0.047 A 
ATOM     29  C   LIG    1      -34.740  79.572  29.562  0.00  0.00    +0.027 A 
ATOM     30  C   LIG    1      -34.228  79.929  28.315  0.00  0.00    +0.035 A 
ATOM     31  C   LIG    1      -34.877  80.946  27.595  0.00  0.00    +0.027 A 
ATOM     32  C   LIG    1      -35.947  81.648  28.166  0.00  0.00    +0.047 A 
BRANCH  27  34
ATOM     33  C   LIG    1      -38.695  81.842  29.504  0.00  0.00    +0.277 C 
ATOM     34  O   LIG    1      -37.375  82.150  29.943  0.00  0.00    -0.495 OA
ENDBRANCH  27  34
ENDBRANCH  25  30
ENDBRANCH  23  25
BRANCH  23  35
ATOM     35  O   LIG    1      -32.250  78.893  25.720  0.00  0.00    -0.481 OA
ATOM     36  H   LIG    1      -32.590  78.397  24.964  0.00  0.00    +0.295 HD
ENDBRANCH  23  35
ENDBRANCH   1  24
TORSDOF 7
ENDMDL
MODEL 8
REMARK VINA RESULT:      -6.3      3.706      5.164
REMARK  Name = pdb/CHEMBL3952110.pdb
REMARK                            x       y       z     vdW  Elec       q    Type
REMARK                         _______ _______ _______ _____ _____    ______ ____
ROOT
ATOM      1  C   LIG    1      -34.359  80.374  27.999  0.00  0.00    +0.179 A 
ATOM      2  N   LIG    1      -35.217  81.486  27.901  0.00  0.00    -0.193 N 
ATOM      3  N   LIG    1      -35.708  82.092  26.750  0.00  0.00    -0.148 NA
ATOM      4  C   LIG    1      -36.511  83.112  26.957  0.00  0.00    +0.143 A 
ATOM      5  C   LIG    1      -36.720  83.680  28.335  0.00  0.00    +0.049 A 
ATOM      6  C   LIG    1      -36.245  83.033  29.399  0.00  0.00    +0.051 A 
ATOM      7  C   LIG    1      -35.520  81.856  29.202  0.00  0.00    +0.157 A 
ATOM      8  N   LIG    1      -35.048  81.025  30.096  0.00  0.00    -0.232 NA
ATOM      9  C   LIG    1      -34.361  80.105  29.365  0.00  0.00    +0.161 A 
ENDROOT
BRANCH   4  10
ATOM     10  N   LIG    1      -37.172  83.707  25.876  0.00  0.00    -0.307 N 
ATOM     11  C   LIG    1      -38.616  84.040  25.913  0.00  0.00    +0.108 C 
ATOM     12  C   LIG    1      -38.554  85.562  26.074  0.00  0.00    +0.029 C 
ATOM     13  C   LIG    1      -37.437  85.969  25.129  0.00  0.00    +0.021 C 
ATOM     14  C   LIG    1      -36.469  84.778  25.139  0.00  0.00    +0.107 C 
BRANCH  11  15
ATOM     15  C   LIG    1      -39.372  83.481  24.715  0.00  0.00    +0.011 A 
ATOM     16  C   LIG    1      -40.595  84.029  24.297  0.00  0.00    +0.129 A 
ATOM     17  F   LIG    1      -41.118  85.091  24.924  0.00  0.00    -0.205 F 
ATOM     18  C   LIG    1      -41.344  83.475  23.258  0.00  0.00    +0.041 A 
ATOM     19  C   LIG    1      -40.901  82.318  22.629  0.00  0.00    +0.041 A 
ATOM     20  C   LIG    1      -39.717  81.730  23.056  0.00  0.00    +0.124 A 
ATOM     21  F   LIG    1      -39.309  80.592  22.478  0.00  0.00    -0.205 F 
ATOM     22  C   LIG    1      -38.958  82.291  24.085  0.00  0.00    +0.046 A 
ENDBRANCH  11  15
ENDBRANCH   4  10
BRANCH   1  24
ATOM     23  C   LIG    1      -32.787  78.994  26.937  0.00  0.00    +0.286 C 
ATOM     24  N   LIG    1      -33.740  79.868  26.897  0.00  0.00    -0.178 NA
BRANCH  23  25
ATOM     25  N   LIG    1      -32.216  78.306  27.974  0.00  0.00    -0.269 N 
ATOM     26  H   LIG    1      -31.677  78.840  28.624  0.00  0.00    +0.157 HD
BRANCH  25  30
ATOM     27  C   LIG    1      -32.516  74.250  29.072  0.00  0.00    +0.120 A 
ATOM     28  C   LIG    1      -33.538  74.841  28.330  0.00  0.00    +0.047 A 
ATOM     29  C   LIG    1      -33.495  76.203  28.032  0.00  0.00    +0.027 A 
ATOM     30  C   LIG    1      -32.420  76.994  28.439  0.00  0.00    +0.035 A 
ATOM     31  C   LIG    1      -31.439  76.411  29.259  0.00  0.00    +0.027 A 
ATOM     32  C   LIG    1      -31.490  75.045  29.568  0.00  0.00    +0.047 A 
BRANCH  27  34
ATOM     33  C   LIG    1      -31.136  72.462  29.774  0.00  0.00    +0.277 C 
ATOM     34  O   LIG    1      -32.422  72.915  29.362  0.00  0.00    -0.495 OA
ENDBRANCH  27  34
ENDBRANCH  25  30
ENDBRANCH  23  25
BRANCH  23  35
ATOM     35  O   LIG    1      -32.178  78.791  25.747  0.00  0.00    -0.481 OA
ATOM     36  H   LIG    1      -32.146  79.616  25.246  0.00  0.00    +0.295 HD
ENDBRANCH  23  35
ENDBRANCH   1  24
TORSDOF 7
ENDMDL
MODEL 9
REMARK VINA RESULT:      -6.3      2.037      4.015
REMARK  Name = pdb/CHEMBL3952110.pdb
REMARK                            x       y       z     vdW  Elec       q    Type
REMARK                         _______ _______ _______ _____ _____    ______ ____
ROOT
ATOM      1  C   LIG    1      -33.207  78.603  27.184  0.00  0.00    +0.179 A 
ATOM      2  N   LIG    1      -34.029  77.476  27.377  0.00  0.00    -0.193 N 
ATOM      3  N   LIG    1      -35.385  77.346  27.102  0.00  0.00    -0.148 NA
ATOM      4  C   LIG    1      -35.896  76.164  27.367  0.00  0.00    +0.143 A 
ATOM      5  C   LIG    1      -35.102  75.109  28.087  0.00  0.00    +0.049 A 
ATOM      6  C   LIG    1      -33.797  75.285  28.294  0.00  0.00    +0.051 A 
ATOM      7  C   LIG    1      -33.205  76.479  27.873  0.00  0.00    +0.157 A 
ATOM      8  N   LIG    1      -31.941  76.818  27.894  0.00  0.00    -0.232 NA
ATOM      9  C   LIG    1      -31.935  78.105  27.451  0.00  0.00    +0.161 A 
ENDROOT
BRANCH   4  10
ATOM     10  N   LIG    1      -37.217  75.879  26.999  0.00  0.00    -0.307 N 
ATOM     11  C   LIG    1      -37.568  75.315  25.674  0.00  0.00    +0.108 C 
ATOM     12  C   LIG    1      -37.885  73.866  26.057  0.00  0.00    +0.029 C 
ATOM     13  C   LIG    1      -38.674  74.009  27.347  0.00  0.00    +0.021 C 
ATOM     14  C   LIG    1      -38.102  75.268  28.012  0.00  0.00    +0.107 C 
BRANCH  11  15
ATOM     15  C   LIG    1      -38.653  76.119  24.970  0.00  0.00    +0.011 A 
ATOM     16  C   LIG    1      -39.662  75.492  24.220  0.00  0.00    +0.129 A 
ATOM     17  F   LIG    1      -39.719  74.156  24.134  0.00  0.00    -0.205 F 
ATOM     18  C   LIG    1      -40.610  76.215  23.496  0.00  0.00    +0.041 A 
ATOM     19  C   LIG    1      -40.548  77.602  23.470  0.00  0.00    +0.041 A 
ATOM     20  C   LIG    1      -39.531  78.245  24.166  0.00  0.00    +0.124 A 
ATOM     21  F   LIG    1      -39.445  79.580  24.109  0.00  0.00    -0.205 F 
ATOM     22  C   LIG    1      -38.590  77.524  24.904  0.00  0.00    +0.046 A 
ENDBRANCH  11  15
ENDBRANCH   4  10
BRANCH   1  24
ATOM     23  C   LIG    1      -34.386  80.567  27.693  0.00  0.00    +0.286 C 
ATOM     24  N   LIG    1      -33.743  79.813  26.861  0.00  0.00    -0.178 NA
BRANCH  23  25
ATOM     25  N   LIG    1      -34.633  80.451  29.035  0.00  0.00    -0.269 N 
ATOM     26  H   LIG    1      -34.361  81.222  29.610  0.00  0.00    +0.157 HD
BRANCH  25  30
ATOM     27  C   LIG    1      -36.824  77.377  30.903  0.00  0.00    +0.120 A 
ATOM     28  C   LIG    1      -37.496  78.351  30.165  0.00  0.00    +0.047 A 
ATOM     29  C   LIG    1      -36.794  79.423  29.613  0.00  0.00    +0.027 A 
ATOM     30  C   LIG    1      -35.411  79.527  29.757  0.00  0.00    +0.035 A 
ATOM     31  C   LIG    1      -34.755  78.590  30.573  0.00  0.00    +0.027 A 
ATOM     32  C   LIG    1      -35.463  77.521  31.138  0.00  0.00    +0.047 A 
BRANCH  27  34
ATOM     33  C   LIG    1      -37.941  76.389  32.740  0.00  0.00    +0.277 C 
ATOM     34  O   LIG    1      -37.399  76.251  31.430  0.00  0.00    -0.495 OA
ENDBRANCH  27  34
ENDBRANCH  25  30
ENDBRANCH  23  25
BRANCH  23  35
ATOM     35  O   LIG    1      -35.010  81.617  27.112  0.00  0.00    -0.481 OA
ATOM     36  H   LIG    1      -35.334  81.368  26.238  0.00  0.00    +0.295 HD
ENDBRANCH  23  35
ENDBRANCH   1  24
TORSDOF 7
ENDMDL
