MODEL 1
REMARK VINA RESULT:      -6.1      0.000      0.000
REMARK  Name = pdb/CHEMBL176857.pdb
REMARK                            x       y       z     vdW  Elec       q    Type
REMARK                         _______ _______ _______ _____ _____    ______ ____
ROOT
ATOM      1  C   LIG    1      -39.687  73.450  24.880  0.00  0.00    +0.029 A 
ATOM      2  C   LIG    1      -40.420  72.957  25.986  0.00  0.00    +0.139 A 
ATOM      3  C   LIG    1      -40.337  71.609  26.387  0.00  0.00    +0.060 A 
ATOM      4 BR   LIG    1      -41.340  70.977  27.872  0.00  0.00    -0.046 Br
ATOM      5  C   LIG    1      -39.540  70.704  25.693  0.00  0.00    +0.027 A 
ATOM      6  C   LIG    1      -38.805  71.147  24.598  0.00  0.00    -0.022 A 
ATOM      7  C   LIG    1      -38.869  72.501  24.220  0.00  0.00    +0.020 A 
ENDROOT
BRANCH   6   8
ATOM      8  C   LIG    1      -38.022  70.196  23.800  0.00  0.00    +0.021 C 
ATOM      9  C   LIG    1      -38.428  69.567  22.687  0.00  0.00    +0.048 C 
ATOM     10  C   LIG    1      -37.641  68.599  21.919  0.00  0.00    +0.028 A 
ATOM     11  C   LIG    1      -36.375  68.057  22.050  0.00  0.00    +0.028 A 
ATOM     12  C   LIG    1      -35.979  67.124  21.090  0.00  0.00    +0.037 A 
ATOM     13 BR   LIG    1      -34.275  66.319  21.193  0.00  0.00    -0.049 Br
ATOM     14  C   LIG    1      -36.859  66.783  20.057  0.00  0.00    +0.128 A 
ATOM     15  N   LIG    1      -38.105  67.305  19.912  0.00  0.00    -0.238 NA
ATOM     16  C   LIG    1      -38.445  68.193  20.854  0.00  0.00    +0.133 A 
ATOM     17  N   LIG    1      -39.670  68.835  20.906  0.00  0.00    -0.266 N 
ATOM     18  H   LIG    1      -40.404  68.685  20.233  0.00  0.00    +0.157 HD
ATOM     19  C   LIG    1      -39.759  69.695  21.987  0.00  0.00    +0.250 C 
ATOM     20  O   LIG    1      -40.701  70.395  22.287  0.00  0.00    -0.270 OA
ENDBRANCH   6   8
BRANCH   1  22
ATOM     21  C   LIG    1      -38.702  75.829  24.611  0.00  0.00    +0.128 A 
ATOM     22  C   LIG    1      -39.747  74.884  24.416  0.00  0.00    +0.027 A 
ATOM     23  C   LIG    1      -40.893  75.360  23.736  0.00  0.00    +0.012 A 
ATOM     24  C   LIG    1      -41.001  76.670  23.254  0.00  0.00    +0.001 A 
ATOM     25  C   LIG    1      -39.972  77.571  23.470  0.00  0.00    +0.004 A 
ATOM     26  C   LIG    1      -38.834  77.156  24.156  0.00  0.00    +0.046 A 
BRANCH  21  28
ATOM     27  C   LIG    1      -37.090  76.320  26.299  0.00  0.00    +0.277 C 
ATOM     28  O   LIG    1      -37.589  75.427  25.311  0.00  0.00    -0.495 OA
ENDBRANCH  21  28
ENDBRANCH   1  22
BRANCH   2  29
ATOM     29  O   LIG    1      -41.256  73.796  26.687  0.00  0.00    -0.505 OA
ATOM     30  H   LIG    1      -42.133  73.373  26.726  0.00  0.00    +0.292 HD
ENDBRANCH   2  29
TORSDOF 4
ENDMDL
MODEL 2
REMARK VINA RESULT:      -6.0      1.930      2.207
REMARK  Name = pdb/CHEMBL176857.pdb
REMARK                            x       y       z     vdW  Elec       q    Type
REMARK                         _______ _______ _______ _____ _____    ______ ____
ROOT
ATOM      1  C   LIG    1      -40.277  73.066  24.594  0.00  0.00    +0.029 A 
ATOM      2  C   LIG    1      -41.084  72.538  25.628  0.00  0.00    +0.139 A 
ATOM      3  C   LIG    1      -41.109  71.160  25.917  0.00  0.00    +0.060 A 
ATOM      4 BR   LIG    1      -42.210  70.481  27.309  0.00  0.00    -0.046 Br
ATOM      5  C   LIG    1      -40.348  70.260  25.178  0.00  0.00    +0.027 A 
ATOM      6  C   LIG    1      -39.542  70.738  24.149  0.00  0.00    -0.022 A 
ATOM      7  C   LIG    1      -39.499  72.120  23.884  0.00  0.00    +0.020 A 
ENDROOT
BRANCH   6   8
ATOM      8  C   LIG    1      -38.793  69.802  23.301  0.00  0.00    +0.021 C 
ATOM      9  C   LIG    1      -37.565  69.318  23.541  0.00  0.00    +0.048 C 
ATOM     10  C   LIG    1      -36.823  68.405  22.669  0.00  0.00    +0.028 A 
ATOM     11  C   LIG    1      -37.081  67.803  21.451  0.00  0.00    +0.028 A 
ATOM     12  C   LIG    1      -36.083  66.985  20.920  0.00  0.00    +0.037 A 
ATOM     13 BR   LIG    1      -36.339  66.131  19.257  0.00  0.00    -0.049 Br
ATOM     14  C   LIG    1      -34.888  66.809  21.627  0.00  0.00    +0.128 A 
ATOM     15  N   LIG    1      -34.617  67.392  22.824  0.00  0.00    -0.238 NA
ATOM     16  C   LIG    1      -35.599  68.171  23.295  0.00  0.00    +0.133 A 
ATOM     17  N   LIG    1      -35.528  68.869  24.488  0.00  0.00    -0.266 N 
ATOM     18  H   LIG    1      -34.728  68.844  25.099  0.00  0.00    +0.157 HD
ATOM     19  C   LIG    1      -36.679  69.600  24.729  0.00  0.00    +0.250 C 
ATOM     20  O   LIG    1      -36.909  70.300  25.691  0.00  0.00    -0.270 OA
ENDBRANCH   6   8
BRANCH   1  22
ATOM     21  C   LIG    1      -39.150  75.398  24.610  0.00  0.00    +0.128 A 
ATOM     22  C   LIG    1      -40.221  74.535  24.250  0.00  0.00    +0.027 A 
ATOM     23  C   LIG    1      -41.277  75.131  23.519  0.00  0.00    +0.012 A 
ATOM     24  C   LIG    1      -41.274  76.479  23.144  0.00  0.00    +0.001 A 
ATOM     25  C   LIG    1      -40.223  77.297  23.520  0.00  0.00    +0.004 A 
ATOM     26  C   LIG    1      -39.172  76.762  24.260  0.00  0.00    +0.046 A 
BRANCH  21  28
ATOM     27  C   LIG    1      -37.278  75.802  26.031  0.00  0.00    +0.277 C 
ATOM     28  O   LIG    1      -38.124  74.876  25.363  0.00  0.00    -0.495 OA
ENDBRANCH  21  28
ENDBRANCH   1  22
BRANCH   2  29
ATOM     29  O   LIG    1      -41.889  73.374  26.368  0.00  0.00    -0.505 OA
ATOM     30  H   LIG    1      -42.814  73.114  26.206  0.00  0.00    +0.292 HD
ENDBRANCH   2  29
TORSDOF 4
ENDMDL
MODEL 3
REMARK VINA RESULT:      -6.0     20.608     23.029
REMARK  Name = pdb/CHEMBL176857.pdb
REMARK                            x       y       z     vdW  Elec       q    Type
REMARK                         _______ _______ _______ _____ _____    ______ ____
ROOT
ATOM      1  C   LIG    1      -21.704  79.498  14.989  0.00  0.00    +0.029 A 
ATOM      2  C   LIG    1      -23.016  78.992  15.142  0.00  0.00    +0.139 A 
ATOM      3  C   LIG    1      -24.150  79.777  14.859  0.00  0.00    +0.060 A 
ATOM      4 BR   LIG    1      -25.899  79.070  15.081  0.00  0.00    -0.046 Br
ATOM      5  C   LIG    1      -24.019  81.096  14.435  0.00  0.00    +0.027 A 
ATOM      6  C   LIG    1      -22.745  81.634  14.275  0.00  0.00    -0.022 A 
ATOM      7  C   LIG    1      -21.616  80.834  14.529  0.00  0.00    +0.020 A 
ENDROOT
BRANCH   6   8
ATOM      8  C   LIG    1      -22.580  83.046  13.908  0.00  0.00    +0.021 C 
ATOM      9  C   LIG    1      -22.523  84.087  14.753  0.00  0.00    +0.048 C 
ATOM     10  C   LIG    1      -22.385  85.493  14.365  0.00  0.00    +0.028 A 
ATOM     11  C   LIG    1      -22.285  86.161  13.159  0.00  0.00    +0.028 A 
ATOM     12  C   LIG    1      -22.180  87.552  13.207  0.00  0.00    +0.037 A 
ATOM     13 BR   LIG    1      -22.052  88.551  11.611  0.00  0.00    -0.049 Br
ATOM     14  C   LIG    1      -22.178  88.199  14.448  0.00  0.00    +0.128 A 
ATOM     15  N   LIG    1      -22.274  87.560  15.642  0.00  0.00    -0.238 NA
ATOM     16  C   LIG    1      -22.377  86.228  15.550  0.00  0.00    +0.133 A 
ATOM     17  N   LIG    1      -22.499  85.384  16.640  0.00  0.00    -0.266 N 
ATOM     18  H   LIG    1      -22.519  85.709  17.594  0.00  0.00    +0.157 HD
ATOM     19  C   LIG    1      -22.595  84.057  16.259  0.00  0.00    +0.250 C 
ATOM     20  O   LIG    1      -22.704  83.095  16.988  0.00  0.00    -0.270 OA
ENDBRANCH   6   8
BRANCH   1  22
ATOM     21  C   LIG    1      -20.064  77.544  14.540  0.00  0.00    +0.128 A 
ATOM     22  C   LIG    1      -20.462  78.691  15.281  0.00  0.00    +0.027 A 
ATOM     23  C   LIG    1      -19.609  79.067  16.346  0.00  0.00    +0.012 A 
ATOM     24  C   LIG    1      -18.428  78.380  16.652  0.00  0.00    +0.001 A 
ATOM     25  C   LIG    1      -18.074  77.260  15.921  0.00  0.00    +0.004 A 
ATOM     26  C   LIG    1      -18.893  76.837  14.878  0.00  0.00    +0.046 A 
BRANCH  21  28
ATOM     27  C   LIG    1      -20.662  75.798  13.031  0.00  0.00    +0.277 C 
ATOM     28  O   LIG    1      -20.887  77.111  13.527  0.00  0.00    -0.495 OA
ENDBRANCH  21  28
ENDBRANCH   1  22
BRANCH   2  29
ATOM     29  O   LIG    1      -23.209  77.707  15.596  0.00  0.00    -0.505 OA
ATOM     30  H   LIG    1      -23.467  77.159  14.833  0.00  0.00    +0.292 HD
ENDBRANCH   2  29
TORSDOF 4
ENDMDL
MODEL 4
REMARK VINA RESULT:      -6.0      2.211      2.942
REMARK  Name = pdb/CHEMBL176857.pdb
REMARK                            x       y       z     vdW  Elec       q    Type
REMARK                         _______ _______ _______ _____ _____    ______ ____
ROOT
ATOM      1  C   LIG    1      -40.397  73.346  24.510  0.00  0.00    +0.029 A 
ATOM      2  C   LIG    1      -41.375  72.860  25.409  0.00  0.00    +0.139 A 
ATOM      3  C   LIG    1      -41.526  71.484  25.666  0.00  0.00    +0.060 A 
ATOM      4 BR   LIG    1      -42.854  70.863  26.875  0.00  0.00    -0.046 Br
ATOM      5  C   LIG    1      -40.725  70.544  25.024  0.00  0.00    +0.027 A 
ATOM      6  C   LIG    1      -39.753  70.980  24.129  0.00  0.00    -0.022 A 
ATOM      7  C   LIG    1      -39.587  72.358  23.899  0.00  0.00    +0.020 A 
ENDROOT
BRANCH   6   8
ATOM      8  C   LIG    1      -38.951  70.006  23.377  0.00  0.00    +0.021 C 
ATOM      9  C   LIG    1      -37.718  69.580  23.691  0.00  0.00    +0.048 C 
ATOM     10  C   LIG    1      -36.922  68.627  22.913  0.00  0.00    +0.028 A 
ATOM     11  C   LIG    1      -37.125  67.927  21.737  0.00  0.00    +0.028 A 
ATOM     12  C   LIG    1      -36.087  67.102  21.300  0.00  0.00    +0.037 A 
ATOM     13 BR   LIG    1      -36.265  66.118  19.700  0.00  0.00    -0.049 Br
ATOM     14  C   LIG    1      -34.911  67.017  22.054  0.00  0.00    +0.128 A 
ATOM     15  N   LIG    1      -34.695  67.696  23.211  0.00  0.00    -0.238 NA
ATOM     16  C   LIG    1      -35.713  68.478  23.591  0.00  0.00    +0.133 A 
ATOM     17  N   LIG    1      -35.701  69.266  24.729  0.00  0.00    -0.266 N 
ATOM     18  H   LIG    1      -34.920  69.311  25.364  0.00  0.00    +0.157 HD
ATOM     19  C   LIG    1      -36.878  69.977  24.879  0.00  0.00    +0.250 C 
ATOM     20  O   LIG    1      -37.160  70.740  25.777  0.00  0.00    -0.270 OA
ENDBRANCH   6   8
BRANCH   1  22
ATOM     21  C   LIG    1      -41.157  75.619  23.529  0.00  0.00    +0.128 A 
ATOM     22  C   LIG    1      -40.201  74.811  24.205  0.00  0.00    +0.027 A 
ATOM     23  C   LIG    1      -39.010  75.463  24.603  0.00  0.00    +0.012 A 
ATOM     24  C   LIG    1      -38.778  76.824  24.377  0.00  0.00    +0.001 A 
ATOM     25  C   LIG    1      -39.721  77.582  23.705  0.00  0.00    +0.004 A 
ATOM     26  C   LIG    1      -40.899  76.980  23.273  0.00  0.00    +0.046 A 
BRANCH  21  28
ATOM     27  C   LIG    1      -43.528  75.718  23.295  0.00  0.00    +0.277 C 
ATOM     28  O   LIG    1      -42.309  75.018  23.079  0.00  0.00    -0.495 OA
ENDBRANCH  21  28
ENDBRANCH   1  22
BRANCH   2  29
ATOM     29  O   LIG    1      -42.223  73.739  26.044  0.00  0.00    -0.505 OA
ATOM     30  H   LIG    1      -42.427  73.370  26.923  0.00  0.00    +0.292 HD
ENDBRANCH   2  29
TORSDOF 4
ENDMDL
MODEL 5
REMARK VINA RESULT:      -6.0      3.277      7.985
REMARK  Name = pdb/CHEMBL176857.pdb
REMARK                            x       y       z     vdW  Elec       q    Type
REMARK                         _______ _______ _______ _____ _____    ______ ____
ROOT
ATOM      1  C   LIG    1      -38.654  68.365  22.725  0.00  0.00    +0.029 A 
ATOM      2  C   LIG    1      -38.853  67.641  23.924  0.00  0.00    +0.139 A 
ATOM      3  C   LIG    1      -39.480  68.221  25.043  0.00  0.00    +0.060 A 
ATOM      4 BR   LIG    1      -39.726  67.225  26.642  0.00  0.00    -0.046 Br
ATOM      5  C   LIG    1      -39.914  69.543  25.016  0.00  0.00    +0.027 A 
ATOM      6  C   LIG    1      -39.734  70.292  23.856  0.00  0.00    -0.022 A 
ATOM      7  C   LIG    1      -39.134  69.697  22.730  0.00  0.00    +0.020 A 
ENDROOT
BRANCH   6   8
ATOM      8  C   LIG    1      -40.108  71.711  23.828  0.00  0.00    +0.021 C 
ATOM      9  C   LIG    1      -39.349  72.742  24.230  0.00  0.00    +0.048 C 
ATOM     10  C   LIG    1      -39.750  74.151  24.220  0.00  0.00    +0.028 A 
ATOM     11  C   LIG    1      -40.896  74.830  23.849  0.00  0.00    +0.028 A 
ATOM     12  C   LIG    1      -40.894  76.217  24.008  0.00  0.00    +0.037 A 
ATOM     13 BR   LIG    1      -42.418  77.228  23.542  0.00  0.00    -0.049 Br
ATOM     14  C   LIG    1      -39.757  76.849  24.523  0.00  0.00    +0.128 A 
ATOM     15  N   LIG    1      -38.623  76.199  24.892  0.00  0.00    -0.238 NA
ATOM     16  C   LIG    1      -38.669  74.872  24.727  0.00  0.00    +0.133 A 
ATOM     17  N   LIG    1      -37.630  74.015  25.050  0.00  0.00    -0.266 N 
ATOM     18  H   LIG    1      -36.754  74.328  25.435  0.00  0.00    +0.157 HD
ATOM     19  C   LIG    1      -37.946  72.694  24.784  0.00  0.00    +0.250 C 
ATOM     20  O   LIG    1      -37.238  71.726  24.956  0.00  0.00    -0.270 OA
ENDBRANCH   6   8
BRANCH   1  22
ATOM     21  C   LIG    1      -36.578  67.659  21.347  0.00  0.00    +0.128 A 
ATOM     22  C   LIG    1      -37.986  67.783  21.503  0.00  0.00    +0.027 A 
ATOM     23  C   LIG    1      -38.772  67.315  20.423  0.00  0.00    +0.012 A 
ATOM     24  C   LIG    1      -38.217  66.739  19.274  0.00  0.00    +0.001 A 
ATOM     25  C   LIG    1      -36.843  66.643  19.146  0.00  0.00    +0.004 A 
ATOM     26  C   LIG    1      -36.027  67.112  20.172  0.00  0.00    +0.046 A 
BRANCH  21  28
ATOM     27  C   LIG    1      -34.875  67.225  22.960  0.00  0.00    +0.277 C 
ATOM     28  O   LIG    1      -35.771  68.145  22.350  0.00  0.00    -0.495 OA
ENDBRANCH  21  28
ENDBRANCH   1  22
BRANCH   2  29
ATOM     29  O   LIG    1      -38.409  66.342  24.026  0.00  0.00    -0.505 OA
ATOM     30  H   LIG    1      -38.450  66.088  24.966  0.00  0.00    +0.292 HD
ENDBRANCH   2  29
TORSDOF 4
ENDMDL
MODEL 6
REMARK VINA RESULT:      -5.8     21.570     25.941
REMARK  Name = pdb/CHEMBL176857.pdb
REMARK                            x       y       z     vdW  Elec       q    Type
REMARK                         _______ _______ _______ _____ _____    ______ ____
ROOT
ATOM      1  C   LIG    1      -23.791  90.373  36.715  0.00  0.00    +0.029 A 
ATOM      2  C   LIG    1      -23.988  89.932  38.045  0.00  0.00    +0.139 A 
ATOM      3  C   LIG    1      -25.242  89.477  38.496  0.00  0.00    +0.060 A 
ATOM      4 BR   LIG    1      -25.475  88.898  40.290  0.00  0.00    -0.046 Br
ATOM      5  C   LIG    1      -26.345  89.462  37.648  0.00  0.00    +0.027 A 
ATOM      6  C   LIG    1      -26.195  89.891  36.332  0.00  0.00    -0.022 A 
ATOM      7  C   LIG    1      -24.933  90.316  35.879  0.00  0.00    +0.020 A 
ENDROOT
BRANCH   6   8
ATOM      8  C   LIG    1      -27.360  89.963  35.442  0.00  0.00    +0.021 C 
ATOM      9  C   LIG    1      -27.878  88.954  34.725  0.00  0.00    +0.048 C 
ATOM     10  C   LIG    1      -29.026  89.051  33.820  0.00  0.00    +0.028 A 
ATOM     11  C   LIG    1      -29.866  90.077  33.428  0.00  0.00    +0.028 A 
ATOM     12  C   LIG    1      -30.865  89.764  32.505  0.00  0.00    +0.037 A 
ATOM     13 BR   LIG    1      -32.053  91.100  31.900  0.00  0.00    -0.049 Br
ATOM     14  C   LIG    1      -30.974  88.453  32.026  0.00  0.00    +0.128 A 
ATOM     15  N   LIG    1      -30.159  87.434  32.400  0.00  0.00    -0.238 NA
ATOM     16  C   LIG    1      -29.213  87.778  33.283  0.00  0.00    +0.133 A 
ATOM     17  N   LIG    1      -28.269  86.900  33.787  0.00  0.00    -0.266 N 
ATOM     18  H   LIG    1      -28.221  85.928  33.528  0.00  0.00    +0.157 HD
ATOM     19  C   LIG    1      -27.408  87.521  34.676  0.00  0.00    +0.250 C 
ATOM     20  O   LIG    1      -26.489  87.009  35.279  0.00  0.00    -0.270 OA
ENDBRANCH   6   8
BRANCH   1  22
ATOM     21  C   LIG    1      -21.961  92.180  36.413  0.00  0.00    +0.128 A 
ATOM     22  C   LIG    1      -22.466  90.869  36.191  0.00  0.00    +0.027 A 
ATOM     23  C   LIG    1      -21.639  90.008  35.429  0.00  0.00    +0.012 A 
ATOM     24  C   LIG    1      -20.388  90.396  34.938  0.00  0.00    +0.001 A 
ATOM     25  C   LIG    1      -19.929  91.683  35.160  0.00  0.00    +0.004 A 
ATOM     26  C   LIG    1      -20.717  92.574  35.883  0.00  0.00    +0.046 A 
BRANCH  21  28
ATOM     27  C   LIG    1      -23.406  94.076  36.345  0.00  0.00    +0.277 C 
ATOM     28  O   LIG    1      -22.751  93.068  37.105  0.00  0.00    -0.495 OA
ENDBRANCH  21  28
ENDBRANCH   1  22
BRANCH   2  29
ATOM     29  O   LIG    1      -22.944  89.961  38.941  0.00  0.00    -0.505 OA
ATOM     30  H   LIG    1      -23.323  90.051  39.834  0.00  0.00    +0.292 HD
ENDBRANCH   2  29
TORSDOF 4
ENDMDL
MODEL 7
REMARK VINA RESULT:      -5.7      3.221      8.010
REMARK  Name = pdb/CHEMBL176857.pdb
REMARK                            x       y       z     vdW  Elec       q    Type
REMARK                         _______ _______ _______ _____ _____    ______ ____
ROOT
ATOM      1  C   LIG    1      -37.628  67.870  22.057  0.00  0.00    +0.029 A 
ATOM      2  C   LIG    1      -38.098  66.887  22.959  0.00  0.00    +0.139 A 
ATOM      3  C   LIG    1      -38.623  67.230  24.220  0.00  0.00    +0.060 A 
ATOM      4 BR   LIG    1      -39.240  65.885  25.412  0.00  0.00    -0.046 Br
ATOM      5  C   LIG    1      -38.682  68.557  24.634  0.00  0.00    +0.027 A 
ATOM      6  C   LIG    1      -38.227  69.555  23.777  0.00  0.00    -0.022 A 
ATOM      7  C   LIG    1      -37.731  69.209  22.507  0.00  0.00    +0.020 A 
ENDROOT
BRANCH   6   8
ATOM      8  C   LIG    1      -38.202  70.954  24.221  0.00  0.00    +0.021 C 
ATOM      9  C   LIG    1      -39.177  71.860  24.054  0.00  0.00    +0.048 C 
ATOM     10  C   LIG    1      -39.122  73.261  24.480  0.00  0.00    +0.028 A 
ATOM     11  C   LIG    1      -38.176  74.045  25.114  0.00  0.00    +0.028 A 
ATOM     12  C   LIG    1      -38.504  75.383  25.338  0.00  0.00    +0.037 A 
ATOM     13 BR   LIG    1      -37.271  76.535  26.184  0.00  0.00    -0.049 Br
ATOM     14  C   LIG    1      -39.751  75.865  24.925  0.00  0.00    +0.128 A 
ATOM     15  N   LIG    1      -40.693  75.110  24.302  0.00  0.00    -0.238 NA
ATOM     16  C   LIG    1      -40.336  73.835  24.103  0.00  0.00    +0.133 A 
ATOM     17  N   LIG    1      -41.137  72.896  23.476  0.00  0.00    -0.266 N 
ATOM     18  H   LIG    1      -42.057  73.101  23.120  0.00  0.00    +0.157 HD
ATOM     19  C   LIG    1      -40.520  71.660  23.396  0.00  0.00    +0.250 C 
ATOM     20  O   LIG    1      -40.976  70.648  22.910  0.00  0.00    -0.270 OA
ENDBRANCH   6   8
BRANCH   1  22
ATOM     21  C   LIG    1      -35.731  67.082  20.480  0.00  0.00    +0.128 A 
ATOM     22  C   LIG    1      -37.057  67.547  20.698  0.00  0.00    +0.027 A 
ATOM     23  C   LIG    1      -37.858  67.697  19.540  0.00  0.00    +0.012 A 
ATOM     24  C   LIG    1      -37.400  67.388  18.255  0.00  0.00    +0.001 A 
ATOM     25  C   LIG    1      -36.100  66.949  18.074  0.00  0.00    +0.004 A 
ATOM     26  C   LIG    1      -35.266  66.809  19.179  0.00  0.00    +0.046 A 
BRANCH  21  28
ATOM     27  C   LIG    1      -34.478  65.657  21.925  0.00  0.00    +0.277 C 
ATOM     28  O   LIG    1      -34.899  66.968  21.570  0.00  0.00    -0.495 OA
ENDBRANCH  21  28
ENDBRANCH   1  22
BRANCH   2  29
ATOM     29  O   LIG    1      -38.029  65.554  22.622  0.00  0.00    -0.505 OA
ATOM     30  H   LIG    1      -38.436  65.450  21.743  0.00  0.00    +0.292 HD
ENDBRANCH   2  29
TORSDOF 4
ENDMDL
MODEL 8
REMARK VINA RESULT:      -5.6      2.987      4.415
REMARK  Name = pdb/CHEMBL176857.pdb
REMARK                            x       y       z     vdW  Elec       q    Type
REMARK                         _______ _______ _______ _____ _____    ______ ____
ROOT
ATOM      1  C   LIG    1      -40.384  70.210  23.387  0.00  0.00    +0.029 A 
ATOM      2  C   LIG    1      -41.203  69.258  24.038  0.00  0.00    +0.139 A 
ATOM      3  C   LIG    1      -40.981  67.874  23.902  0.00  0.00    +0.060 A 
ATOM      4 BR   LIG    1      -42.105  66.621  24.785  0.00  0.00    -0.046 Br
ATOM      5  C   LIG    1      -39.953  67.389  23.100  0.00  0.00    +0.027 A 
ATOM      6  C   LIG    1      -39.125  68.292  22.439  0.00  0.00    -0.022 A 
ATOM      7  C   LIG    1      -39.333  69.674  22.603  0.00  0.00    +0.020 A 
ENDROOT
BRANCH   6   8
ATOM      8  C   LIG    1      -38.086  67.807  21.523  0.00  0.00    +0.021 C 
ATOM      9  C   LIG    1      -36.810  67.536  21.839  0.00  0.00    +0.048 C 
ATOM     10  C   LIG    1      -35.779  67.078  20.904  0.00  0.00    +0.028 A 
ATOM     11  C   LIG    1      -35.751  66.805  19.549  0.00  0.00    +0.028 A 
ATOM     12  C   LIG    1      -34.533  66.392  19.007  0.00  0.00    +0.037 A 
ATOM     13 BR   LIG    1      -34.394  66.010  17.164  0.00  0.00    -0.049 Br
ATOM     14  C   LIG    1      -33.415  66.271  19.840  0.00  0.00    +0.128 A 
ATOM     15  N   LIG    1      -33.423  66.534  21.172  0.00  0.00    -0.238 NA
ATOM     16  C   LIG    1      -34.610  66.931  21.650  0.00  0.00    +0.133 A 
ATOM     17  N   LIG    1      -34.839  67.262  22.974  0.00  0.00    -0.266 N 
ATOM     18  H   LIG    1      -34.127  67.229  23.685  0.00  0.00    +0.157 HD
ATOM     19  C   LIG    1      -36.151  67.645  23.192  0.00  0.00    +0.250 C 
ATOM     20  O   LIG    1      -36.647  67.982  24.245  0.00  0.00    -0.270 OA
ENDBRANCH   6   8
BRANCH   1  22
ATOM     21  C   LIG    1      -41.728  72.392  23.014  0.00  0.00    +0.128 A 
ATOM     22  C   LIG    1      -40.585  71.701  23.505  0.00  0.00    +0.027 A 
ATOM     23  C   LIG    1      -39.604  72.499  24.140  0.00  0.00    +0.012 A 
ATOM     24  C   LIG    1      -39.742  73.882  24.307  0.00  0.00    +0.001 A 
ATOM     25  C   LIG    1      -40.860  74.528  23.808  0.00  0.00    +0.004 A 
ATOM     26  C   LIG    1      -41.841  73.789  23.154  0.00  0.00    +0.046 A 
BRANCH  21  28
ATOM     27  C   LIG    1      -42.789  71.873  20.943  0.00  0.00    +0.277 C 
ATOM     28  O   LIG    1      -42.685  71.665  22.346  0.00  0.00    -0.495 OA
ENDBRANCH  21  28
ENDBRANCH   1  22
BRANCH   2  29
ATOM     29  O   LIG    1      -42.261  69.676  24.813  0.00  0.00    -0.505 OA
ATOM     30  H   LIG    1      -42.248  69.156  25.637  0.00  0.00    +0.292 HD
ENDBRANCH   2  29
TORSDOF 4
ENDMDL
MODEL 9
REMARK VINA RESULT:      -5.6     16.314     19.445
REMARK  Name = pdb/CHEMBL176857.pdb
REMARK                            x       y       z     vdW  Elec       q    Type
REMARK                         _______ _______ _______ _____ _____    ______ ____
ROOT
ATOM      1  C   LIG    1      -21.765  78.178  33.297  0.00  0.00    +0.029 A 
ATOM      2  C   LIG    1      -21.009  77.983  32.117  0.00  0.00    +0.139 A 
ATOM      3  C   LIG    1      -21.407  77.064  31.127  0.00  0.00    +0.060 A 
ATOM      4 BR   LIG    1      -20.365  76.821  29.556  0.00  0.00    -0.046 Br
ATOM      5  C   LIG    1      -22.555  76.295  31.284  0.00  0.00    +0.027 A 
ATOM      6  C   LIG    1      -23.326  76.454  32.432  0.00  0.00    -0.022 A 
ATOM      7  C   LIG    1      -22.940  77.396  33.404  0.00  0.00    +0.020 A 
ENDROOT
BRANCH   6   8
ATOM      8  C   LIG    1      -24.497  75.597  32.659  0.00  0.00    +0.021 C 
ATOM      9  C   LIG    1      -25.754  75.846  32.263  0.00  0.00    +0.048 C 
ATOM     10  C   LIG    1      -26.916  74.992  32.524  0.00  0.00    +0.028 A 
ATOM     11  C   LIG    1      -27.108  73.793  33.185  0.00  0.00    +0.028 A 
ATOM     12  C   LIG    1      -28.410  73.292  33.230  0.00  0.00    +0.037 A 
ATOM     13 BR   LIG    1      -28.773  71.668  34.121  0.00  0.00    -0.049 Br
ATOM     14  C   LIG    1      -29.444  74.006  32.615  0.00  0.00    +0.128 A 
ATOM     15  N   LIG    1      -29.274  75.185  31.961  0.00  0.00    -0.238 NA
ATOM     16  C   LIG    1      -28.012  75.631  31.946  0.00  0.00    +0.133 A 
ATOM     17  N   LIG    1      -27.617  76.815  31.347  0.00  0.00    -0.266 N 
ATOM     18  H   LIG    1      -28.254  77.436  30.873  0.00  0.00    +0.157 HD
ATOM     19  C   LIG    1      -26.258  77.037  31.486  0.00  0.00    +0.250 C 
ATOM     20  O   LIG    1      -25.627  77.981  31.063  0.00  0.00    -0.270 OA
ENDBRANCH   6   8
BRANCH   1  22
ATOM     21  C   LIG    1      -20.162  79.079  35.120  0.00  0.00    +0.128 A 
ATOM     22  C   LIG    1      -21.376  79.151  34.384  0.00  0.00    +0.027 A 
ATOM     23  C   LIG    1      -22.242  80.219  34.720  0.00  0.00    +0.012 A 
ATOM     24  C   LIG    1      -21.929  81.171  35.696  0.00  0.00    +0.001 A 
ATOM     25  C   LIG    1      -20.745  81.068  36.405  0.00  0.00    +0.004 A 
ATOM     26  C   LIG    1      -19.872  80.021  36.127  0.00  0.00    +0.046 A 
BRANCH  21  28
ATOM     27  C   LIG    1      -17.918  78.317  34.847  0.00  0.00    +0.277 C 
ATOM     28  O   LIG    1      -19.311  78.030  34.863  0.00  0.00    -0.495 OA
ENDBRANCH  21  28
ENDBRANCH   1  22
BRANCH   2  29
ATOM     29  O   LIG    1      -19.841  78.686  31.924  0.00  0.00    -0.505 OA
ATOM     30  H   LIG    1      -19.120  78.039  31.825  0.00  0.00    +0.292 HD
ENDBRANCH   2  29
TORSDOF 4
ENDMDL
