MODEL 1
REMARK VINA RESULT:      -7.4      0.000      0.000
REMARK  Name = pdb/CHEMBL3671467.pdb
REMARK                            x       y       z     vdW  Elec       q    Type
REMARK                         _______ _______ _______ _____ _____    ______ ____
ROOT
ATOM      1  N   LIG    1      -26.038  77.700  31.421  0.00  0.00    -0.254 N 
ATOM      2  H   LIG    1      -26.430  78.596  31.197  0.00  0.00    +0.158 HD
ATOM      3  C   LIG    1      -26.898  76.597  31.637  0.00  0.00    +0.309 C 
ATOM      4  N   LIG    1      -28.203  76.899  31.379  0.00  0.00    -0.268 N 
ATOM      5  H   LIG    1      -28.443  77.839  31.075  0.00  0.00    +0.156 HD
ATOM      6  O   LIG    1      -26.445  75.537  32.044  0.00  0.00    -0.252 OA
ENDROOT
BRANCH   4   7
ATOM      7  C   LIG    1      -29.277  75.991  31.545  0.00  0.00    +0.054 A 
ATOM      8  C   LIG    1      -30.390  76.083  30.702  0.00  0.00    +0.038 A 
ATOM      9  C   LIG    1      -31.468  75.191  30.857  0.00  0.00    +0.042 A 
ATOM     10  C   LIG    1      -31.413  74.289  31.907  0.00  0.00    +0.122 A 
ATOM     11  N   LIG    1      -30.346  74.154  32.723  0.00  0.00    -0.261 NA
ATOM     12  C   LIG    1      -29.302  74.990  32.516  0.00  0.00    +0.134 A 
BRANCH   9  13
ATOM     13  C   LIG    1      -32.652  75.284  29.960  0.00  0.00    +0.197 C 
ATOM     14  O   LIG    1      -33.177  74.230  29.610  0.00  0.00    -0.287 OA
BRANCH  13  15
ATOM     15  C   LIG    1      -33.159  76.582  29.506  0.00  0.00    +0.051 A 
ATOM     16  C   LIG    1      -32.828  77.240  28.272  0.00  0.00    +0.048 A 
ATOM     17  C   LIG    1      -32.026  76.962  27.165  0.00  0.00    +0.124 A 
ATOM     18  N   LIG    1      -31.942  77.858  26.153  0.00  0.00    -0.243 NA
ATOM     19  C   LIG    1      -32.645  79.002  26.263  0.00  0.00    +0.223 A 
ATOM     20  N   LIG    1      -33.439  79.386  27.277  0.00  0.00    -0.218 NA
ATOM     21  C   LIG    1      -33.495  78.458  28.248  0.00  0.00    +0.144 A 
ATOM     22  N   LIG    1      -34.226  78.553  29.400  0.00  0.00    -0.334 N 
ATOM     23  C   LIG    1      -35.001  79.712  29.784  0.00  0.00    +0.150 C 
ATOM     24  C   LIG    1      -34.096  77.396  30.131  0.00  0.00    +0.099 A 
ENDBRANCH  13  15
ENDBRANCH   9  13
ENDBRANCH   4   7
BRANCH   1  26
ATOM     25  N   LIG    1      -23.891  78.057  32.688  0.00  0.00    -0.215 N 
ATOM     26  C   LIG    1      -24.649  77.622  31.601  0.00  0.00    +0.130 A 
ATOM     27  C   LIG    1      -23.747  77.103  30.701  0.00  0.00    +0.069 A 
ATOM     28  C   LIG    1      -22.480  77.194  31.307  0.00  0.00    +0.071 A 
ATOM     29  N   LIG    1      -22.565  77.803  32.497  0.00  0.00    -0.169 NA
BRANCH  25  34
ATOM     30  C   LIG    1      -24.700  80.924  36.661  0.00  0.00    +0.172 C 
ATOM     31  N   LIG    1      -24.766  79.897  35.649  0.00  0.00    -0.272 N 
ATOM     32  N   LIG    1      -25.677  78.918  35.735  0.00  0.00    -0.178 NA
ATOM     33  C   LIG    1      -25.450  78.168  34.652  0.00  0.00    +0.162 A 
ATOM     34  C   LIG    1      -24.372  78.654  33.886  0.00  0.00    +0.105 A 
ATOM     35  C   LIG    1      -23.958  79.790  34.548  0.00  0.00    +0.135 A 
ENDBRANCH  25  34
BRANCH  28  36
ATOM     36  C   LIG    1      -21.151  76.693  30.749  0.00  0.00    +0.006 C 
ATOM     37  C   LIG    1      -20.008  77.695  31.050  0.00  0.00    +0.017 C 
ATOM     38  C   LIG    1      -21.231  76.530  29.219  0.00  0.00    +0.017 C 
ATOM     39  C   LIG    1      -20.776  75.338  31.375  0.00  0.00    +0.017 C 
ENDBRANCH  28  36
ENDBRANCH   1  26
TORSDOF 6
ENDMDL
MODEL 2
REMARK VINA RESULT:      -7.1      5.024      8.940
REMARK  Name = pdb/CHEMBL3671467.pdb
REMARK                            x       y       z     vdW  Elec       q    Type
REMARK                         _______ _______ _______ _____ _____    ______ ____
ROOT
ATOM      1  N   LIG    1      -20.629  79.083  36.210  0.00  0.00    -0.254 N 
ATOM      2  H   LIG    1      -20.557  78.230  36.733  0.00  0.00    +0.158 HD
ATOM      3  C   LIG    1      -20.442  79.059  34.806  0.00  0.00    +0.309 C 
ATOM      4  N   LIG    1      -20.301  77.790  34.325  0.00  0.00    -0.268 N 
ATOM      5  H   LIG    1      -20.334  77.008  34.973  0.00  0.00    +0.156 HD
ATOM      6  O   LIG    1      -20.389  80.105  34.177  0.00  0.00    -0.252 OA
ENDROOT
BRANCH   4   7
ATOM      7  C   LIG    1      -20.068  77.479  32.964  0.00  0.00    +0.054 A 
ATOM      8  C   LIG    1      -21.132  77.044  32.167  0.00  0.00    +0.038 A 
ATOM      9  C   LIG    1      -20.917  76.726  30.813  0.00  0.00    +0.042 A 
ATOM     10  C   LIG    1      -19.617  76.787  30.334  0.00  0.00    +0.122 A 
ATOM     11  N   LIG    1      -18.572  77.227  31.066  0.00  0.00    -0.261 NA
ATOM     12  C   LIG    1      -18.819  77.576  32.349  0.00  0.00    +0.134 A 
BRANCH   9  13
ATOM     13  C   LIG    1      -22.048  76.265  29.962  0.00  0.00    +0.197 C 
ATOM     14  O   LIG    1      -21.950  76.445  28.751  0.00  0.00    -0.287 OA
BRANCH  13  15
ATOM     15  C   LIG    1      -23.232  75.635  30.551  0.00  0.00    +0.051 A 
ATOM     16  C   LIG    1      -24.474  76.286  30.866  0.00  0.00    +0.048 A 
ATOM     17  C   LIG    1      -24.993  77.575  30.753  0.00  0.00    +0.124 A 
ATOM     18  N   LIG    1      -26.250  77.835  31.185  0.00  0.00    -0.243 NA
ATOM     19  C   LIG    1      -26.957  76.820  31.720  0.00  0.00    +0.223 A 
ATOM     20  N   LIG    1      -26.565  75.546  31.891  0.00  0.00    -0.218 NA
ATOM     21  C   LIG    1      -25.316  75.341  31.438  0.00  0.00    +0.144 A 
ATOM     22  N   LIG    1      -24.645  74.149  31.462  0.00  0.00    -0.334 N 
ATOM     23  C   LIG    1      -25.159  72.933  32.053  0.00  0.00    +0.150 C 
ATOM     24  C   LIG    1      -23.418  74.292  30.859  0.00  0.00    +0.099 A 
ENDBRANCH  13  15
ENDBRANCH   9  13
ENDBRANCH   4   7
BRANCH   1  26
ATOM     25  N   LIG    1      -22.011  80.940  37.201  0.00  0.00    -0.215 N 
ATOM     26  C   LIG    1      -20.817  80.274  36.926  0.00  0.00    +0.130 A 
ATOM     27  C   LIG    1      -19.824  81.041  37.490  0.00  0.00    +0.069 A 
ATOM     28  C   LIG    1      -20.465  82.115  38.136  0.00  0.00    +0.071 A 
ATOM     29  N   LIG    1      -21.788  82.071  37.930  0.00  0.00    -0.169 NA
BRANCH  25  34
ATOM     30  C   LIG    1      -26.726  79.386  37.112  0.00  0.00    +0.172 C 
ATOM     31  N   LIG    1      -25.408  79.854  36.756  0.00  0.00    -0.272 N 
ATOM     32  N   LIG    1      -25.077  80.038  35.470  0.00  0.00    -0.178 NA
ATOM     33  C   LIG    1      -23.812  80.467  35.519  0.00  0.00    +0.162 A 
ATOM     34  C   LIG    1      -23.324  80.532  36.839  0.00  0.00    +0.105 A 
ATOM     35  C   LIG    1      -24.389  80.146  37.625  0.00  0.00    +0.135 A 
ENDBRANCH  25  34
BRANCH  28  36
ATOM     36  C   LIG    1      -19.813  83.215  38.969  0.00  0.00    +0.006 C 
ATOM     37  C   LIG    1      -18.485  82.723  39.598  0.00  0.00    +0.017 C 
ATOM     38  C   LIG    1      -20.739  83.645  40.122  0.00  0.00    +0.017 C 
ATOM     39  C   LIG    1      -19.501  84.444  38.096  0.00  0.00    +0.017 C 
ENDBRANCH  28  36
ENDBRANCH   1  26
TORSDOF 6
ENDMDL
MODEL 3
REMARK VINA RESULT:      -7.0      4.831      8.685
REMARK  Name = pdb/CHEMBL3671467.pdb
REMARK                            x       y       z     vdW  Elec       q    Type
REMARK                         _______ _______ _______ _____ _____    ______ ____
ROOT
ATOM      1  N   LIG    1      -23.262  79.714  36.006  0.00  0.00    -0.254 N 
ATOM      2  H   LIG    1      -22.582  79.505  36.714  0.00  0.00    +0.158 HD
ATOM      3  C   LIG    1      -22.964  79.435  34.650  0.00  0.00    +0.309 C 
ATOM      4  N   LIG    1      -21.778  78.776  34.504  0.00  0.00    -0.268 N 
ATOM      5  H   LIG    1      -21.230  78.555  35.332  0.00  0.00    +0.156 HD
ATOM      6  O   LIG    1      -23.722  79.810  33.767  0.00  0.00    -0.252 OA
ENDROOT
BRANCH   4   7
ATOM      7  C   LIG    1      -21.223  78.405  33.256  0.00  0.00    +0.054 A 
ATOM      8  C   LIG    1      -21.990  77.650  32.361  0.00  0.00    +0.038 A 
ATOM      9  C   LIG    1      -21.451  77.269  31.118  0.00  0.00    +0.042 A 
ATOM     10  C   LIG    1      -20.131  77.602  30.857  0.00  0.00    +0.122 A 
ATOM     11  N   LIG    1      -19.372  78.352  31.684  0.00  0.00    -0.261 NA
ATOM     12  C   LIG    1      -19.934  78.748  32.848  0.00  0.00    +0.134 A 
BRANCH   9  13
ATOM     13  C   LIG    1      -22.264  76.468  30.163  0.00  0.00    +0.197 C 
ATOM     14  O   LIG    1      -21.930  76.492  28.981  0.00  0.00    -0.287 OA
BRANCH  13  15
ATOM     15  C   LIG    1      -23.423  75.694  30.617  0.00  0.00    +0.051 A 
ATOM     16  C   LIG    1      -24.722  76.217  30.937  0.00  0.00    +0.048 A 
ATOM     17  C   LIG    1      -25.332  77.471  30.940  0.00  0.00    +0.124 A 
ATOM     18  N   LIG    1      -26.622  77.592  31.332  0.00  0.00    -0.243 NA
ATOM     19  C   LIG    1      -27.273  76.477  31.714  0.00  0.00    +0.223 A 
ATOM     20  N   LIG    1      -26.795  75.221  31.765  0.00  0.00    -0.218 NA
ATOM     21  C   LIG    1      -25.516  75.157  31.357  0.00  0.00    +0.144 A 
ATOM     22  N   LIG    1      -24.759  74.019  31.285  0.00  0.00    -0.334 N 
ATOM     23  C   LIG    1      -25.206  72.711  31.710  0.00  0.00    +0.150 C 
ATOM     24  C   LIG    1      -23.520  74.316  30.766  0.00  0.00    +0.099 A 
ENDBRANCH  13  15
ENDBRANCH   9  13
ENDBRANCH   4   7
BRANCH   1  26
ATOM     25  N   LIG    1      -25.718  79.830  36.548  0.00  0.00    -0.215 N 
ATOM     26  C   LIG    1      -24.439  80.365  36.403  0.00  0.00    +0.130 A 
ATOM     27  C   LIG    1      -24.555  81.700  36.712  0.00  0.00    +0.069 A 
ATOM     28  C   LIG    1      -25.896  81.908  37.088  0.00  0.00    +0.071 A 
ATOM     29  N   LIG    1      -26.607  80.781  36.955  0.00  0.00    -0.169 NA
BRANCH  25  34
ATOM     30  C   LIG    1      -26.978  75.054  37.059  0.00  0.00    +0.172 C 
ATOM     31  N   LIG    1      -26.676  76.365  36.537  0.00  0.00    -0.272 N 
ATOM     32  N   LIG    1      -26.723  76.599  35.219  0.00  0.00    -0.178 NA
ATOM     33  C   LIG    1      -26.394  77.890  35.106  0.00  0.00    +0.162 A 
ATOM     34  C   LIG    1      -26.109  78.476  36.355  0.00  0.00    +0.105 A 
ATOM     35  C   LIG    1      -26.318  77.467  37.270  0.00  0.00    +0.135 A 
ENDBRANCH  25  34
BRANCH  28  36
ATOM     36  C   LIG    1      -26.525  83.206  37.587  0.00  0.00    +0.006 C 
ATOM     37  C   LIG    1      -25.635  83.879  38.661  0.00  0.00    +0.017 C 
ATOM     38  C   LIG    1      -27.898  82.932  38.230  0.00  0.00    +0.017 C 
ATOM     39  C   LIG    1      -26.708  84.201  36.426  0.00  0.00    +0.017 C 
ENDBRANCH  28  36
ENDBRANCH   1  26
TORSDOF 6
ENDMDL
MODEL 4
REMARK VINA RESULT:      -7.0      1.620      2.127
REMARK  Name = pdb/CHEMBL3671467.pdb
REMARK                            x       y       z     vdW  Elec       q    Type
REMARK                         _______ _______ _______ _____ _____    ______ ____
ROOT
ATOM      1  N   LIG    1      -25.598  75.864  32.978  0.00  0.00    -0.254 N 
ATOM      2  H   LIG    1      -25.558  75.062  33.580  0.00  0.00    +0.158 HD
ATOM      3  C   LIG    1      -26.851  76.302  32.485  0.00  0.00    +0.309 C 
ATOM      4  N   LIG    1      -27.893  75.606  33.024  0.00  0.00    -0.268 N 
ATOM      5  H   LIG    1      -27.700  74.867  33.695  0.00  0.00    +0.156 HD
ATOM      6  O   LIG    1      -26.902  77.187  31.643  0.00  0.00    -0.252 OA
ENDROOT
BRANCH   4   7
ATOM      7  C   LIG    1      -29.250  75.815  32.682  0.00  0.00    +0.054 A 
ATOM      8  C   LIG    1      -29.724  75.361  31.446  0.00  0.00    +0.038 A 
ATOM      9  C   LIG    1      -31.070  75.565  31.088  0.00  0.00    +0.042 A 
ATOM     10  C   LIG    1      -31.868  76.288  31.962  0.00  0.00    +0.122 A 
ATOM     11  N   LIG    1      -31.452  76.716  33.172  0.00  0.00    -0.261 NA
ATOM     12  C   LIG    1      -30.169  76.459  33.511  0.00  0.00    +0.134 A 
BRANCH   9  13
ATOM     13  C   LIG    1      -31.578  75.082  29.775  0.00  0.00    +0.197 C 
ATOM     14  O   LIG    1      -31.386  73.901  29.497  0.00  0.00    -0.287 OA
BRANCH  13  15
ATOM     15  C   LIG    1      -32.267  75.986  28.850  0.00  0.00    +0.051 A 
ATOM     16  C   LIG    1      -33.611  75.843  28.364  0.00  0.00    +0.048 A 
ATOM     17  C   LIG    1      -34.658  74.940  28.545  0.00  0.00    +0.124 A 
ATOM     18  N   LIG    1      -35.827  75.123  27.886  0.00  0.00    -0.243 NA
ATOM     19  C   LIG    1      -35.929  76.185  27.064  0.00  0.00    +0.223 A 
ATOM     20  N   LIG    1      -34.993  77.114  26.799  0.00  0.00    -0.218 NA
ATOM     21  C   LIG    1      -33.859  76.891  27.486  0.00  0.00    +0.144 A 
ATOM     22  N   LIG    1      -32.734  77.666  27.438  0.00  0.00    -0.334 N 
ATOM     23  C   LIG    1      -32.568  78.816  26.575  0.00  0.00    +0.150 C 
ATOM     24  C   LIG    1      -31.793  77.178  28.315  0.00  0.00    +0.099 A 
ENDBRANCH  13  15
ENDBRANCH   9  13
ENDBRANCH   4   7
BRANCH   1  26
ATOM     25  N   LIG    1      -23.797  77.622  33.047  0.00  0.00    -0.215 N 
ATOM     26  C   LIG    1      -24.385  76.446  32.583  0.00  0.00    +0.130 A 
ATOM     27  C   LIG    1      -23.534  75.958  31.619  0.00  0.00    +0.069 A 
ATOM     28  C   LIG    1      -22.432  76.833  31.577  0.00  0.00    +0.071 A 
ATOM     29  N   LIG    1      -22.609  77.860  32.420  0.00  0.00    -0.169 NA
BRANCH  25  34
ATOM     30  C   LIG    1      -26.294  79.749  36.775  0.00  0.00    +0.172 C 
ATOM     31  N   LIG    1      -25.363  79.457  35.710  0.00  0.00    -0.272 N 
ATOM     32  N   LIG    1      -24.431  80.354  35.359  0.00  0.00    -0.178 NA
ATOM     33  C   LIG    1      -23.765  79.757  34.366  0.00  0.00    +0.162 A 
ATOM     34  C   LIG    1      -24.290  78.485  34.063  0.00  0.00    +0.105 A 
ATOM     35  C   LIG    1      -25.318  78.308  34.966  0.00  0.00    +0.135 A 
ENDBRANCH  25  34
BRANCH  28  36
ATOM     36  C   LIG    1      -21.176  76.699  30.720  0.00  0.00    +0.006 C 
ATOM     37  C   LIG    1      -20.265  77.943  30.870  0.00  0.00    +0.017 C 
ATOM     38  C   LIG    1      -21.547  76.574  29.230  0.00  0.00    +0.017 C 
ATOM     39  C   LIG    1      -20.365  75.460  31.138  0.00  0.00    +0.017 C 
ENDBRANCH  28  36
ENDBRANCH   1  26
TORSDOF 6
ENDMDL
MODEL 5
REMARK VINA RESULT:      -6.9      8.207     13.537
REMARK  Name = pdb/CHEMBL3671467.pdb
REMARK                            x       y       z     vdW  Elec       q    Type
REMARK                         _______ _______ _______ _____ _____    ______ ____
ROOT
ATOM      1  N   LIG    1      -35.542  67.946  25.282  0.00  0.00    -0.254 N 
ATOM      2  H   LIG    1      -36.165  67.433  25.876  0.00  0.00    +0.158 HD
ATOM      3  C   LIG    1      -34.685  68.923  25.847  0.00  0.00    +0.309 C 
ATOM      4  N   LIG    1      -34.750  68.942  27.209  0.00  0.00    -0.268 N 
ATOM      5  H   LIG    1      -35.375  68.296  27.685  0.00  0.00    +0.156 HD
ATOM      6  O   LIG    1      -34.023  69.650  25.122  0.00  0.00    -0.252 OA
ENDROOT
BRANCH   4   7
ATOM      7  C   LIG    1      -34.025  69.842  28.027  0.00  0.00    +0.054 A 
ATOM      8  C   LIG    1      -34.629  71.036  28.438  0.00  0.00    +0.038 A 
ATOM      9  C   LIG    1      -33.920  71.944  29.246  0.00  0.00    +0.042 A 
ATOM     10  C   LIG    1      -32.600  71.646  29.547  0.00  0.00    +0.122 A 
ATOM     11  N   LIG    1      -31.994  70.493  29.191  0.00  0.00    -0.261 NA
ATOM     12  C   LIG    1      -32.718  69.616  28.459  0.00  0.00    +0.134 A 
BRANCH   9  13
ATOM     13  C   LIG    1      -34.560  73.213  29.687  0.00  0.00    +0.197 C 
ATOM     14  O   LIG    1      -34.895  73.295  30.866  0.00  0.00    -0.287 OA
BRANCH  13  15
ATOM     15  C   LIG    1      -34.790  74.312  28.746  0.00  0.00    +0.051 A 
ATOM     16  C   LIG    1      -33.869  75.368  28.428  0.00  0.00    +0.048 A 
ATOM     17  C   LIG    1      -32.576  75.726  28.810  0.00  0.00    +0.124 A 
ATOM     18  N   LIG    1      -32.006  76.841  28.293  0.00  0.00    -0.243 NA
ATOM     19  C   LIG    1      -32.727  77.572  27.421  0.00  0.00    +0.223 A 
ATOM     20  N   LIG    1      -33.977  77.338  26.986  0.00  0.00    -0.218 NA
ATOM     21  C   LIG    1      -34.490  76.216  27.521  0.00  0.00    +0.144 A 
ATOM     22  N   LIG    1      -35.734  75.709  27.264  0.00  0.00    -0.334 N 
ATOM     23  C   LIG    1      -36.722  76.349  26.424  0.00  0.00    +0.150 C 
ATOM     24  C   LIG    1      -35.900  74.519  27.934  0.00  0.00    +0.099 A 
ENDBRANCH  13  15
ENDBRANCH   9  13
ENDBRANCH   4   7
BRANCH   1  26
ATOM     25  N   LIG    1      -36.528  68.284  22.989  0.00  0.00    -0.215 N 
ATOM     26  C   LIG    1      -35.629  67.728  23.899  0.00  0.00    +0.130 A 
ATOM     27  C   LIG    1      -34.831  66.881  23.165  0.00  0.00    +0.069 A 
ATOM     28  C   LIG    1      -35.245  67.003  21.825  0.00  0.00    +0.071 A 
ATOM     29  N   LIG    1      -36.296  67.828  21.726  0.00  0.00    -0.169 NA
BRANCH  25  34
ATOM     30  C   LIG    1      -40.772  70.836  23.359  0.00  0.00    +0.172 C 
ATOM     31  N   LIG    1      -39.401  70.393  23.454  0.00  0.00    -0.272 N 
ATOM     32  N   LIG    1      -38.484  71.152  24.069  0.00  0.00    -0.178 NA
ATOM     33  C   LIG    1      -37.356  70.442  23.969  0.00  0.00    +0.162 A 
ATOM     34  C   LIG    1      -37.547  69.237  23.264  0.00  0.00    +0.105 A 
ATOM     35  C   LIG    1      -38.892  69.222  22.957  0.00  0.00    +0.135 A 
ENDBRANCH  25  34
BRANCH  28  36
ATOM     36  C   LIG    1      -34.634  66.323  20.603  0.00  0.00    +0.006 C 
ATOM     37  C   LIG    1      -33.126  66.654  20.479  0.00  0.00    +0.017 C 
ATOM     38  C   LIG    1      -35.321  66.805  19.312  0.00  0.00    +0.017 C 
ATOM     39  C   LIG    1      -34.780  64.794  20.705  0.00  0.00    +0.017 C 
ENDBRANCH  28  36
ENDBRANCH   1  26
TORSDOF 6
ENDMDL
MODEL 6
REMARK VINA RESULT:      -6.8     17.181     22.523
REMARK  Name = pdb/CHEMBL3671467.pdb
REMARK                            x       y       z     vdW  Elec       q    Type
REMARK                         _______ _______ _______ _____ _____    ______ ____
ROOT
ATOM      1  N   LIG    1      -33.222  81.839  11.464  0.00  0.00    -0.254 N 
ATOM      2  H   LIG    1      -33.157  81.853  12.464  0.00  0.00    +0.158 HD
ATOM      3  C   LIG    1      -32.508  80.857  10.733  0.00  0.00    +0.309 C 
ATOM      4  N   LIG    1      -31.896  79.949  11.547  0.00  0.00    -0.268 N 
ATOM      5  H   LIG    1      -31.990  80.045  12.554  0.00  0.00    +0.156 HD
ATOM      6  O   LIG    1      -32.467  80.912   9.513  0.00  0.00    -0.252 OA
ENDROOT
BRANCH   4   7
ATOM      7  C   LIG    1      -31.089  78.883  11.082  0.00  0.00    +0.054 A 
ATOM      8  C   LIG    1      -29.698  79.029  11.070  0.00  0.00    +0.038 A 
ATOM      9  C   LIG    1      -28.882  77.980  10.606  0.00  0.00    +0.042 A 
ATOM     10  C   LIG    1      -29.507  76.851  10.101  0.00  0.00    +0.122 A 
ATOM     11  N   LIG    1      -30.844  76.665  10.122  0.00  0.00    -0.261 NA
ATOM     12  C   LIG    1      -31.599  77.668  10.622  0.00  0.00    +0.134 A 
BRANCH   9  13
ATOM     13  C   LIG    1      -27.401  78.132  10.594  0.00  0.00    +0.197 C 
ATOM     14  O   LIG    1      -26.772  77.451   9.788  0.00  0.00    -0.287 OA
BRANCH  13  15
ATOM     15  C   LIG    1      -26.725  79.047  11.518  0.00  0.00    +0.051 A 
ATOM     16  C   LIG    1      -26.456  78.806  12.908  0.00  0.00    +0.048 A 
ATOM     17  C   LIG    1      -26.678  77.769  13.814  0.00  0.00    +0.124 A 
ATOM     18  N   LIG    1      -26.284  77.904  15.102  0.00  0.00    -0.243 NA
ATOM     19  C   LIG    1      -25.689  79.058  15.463  0.00  0.00    +0.223 A 
ATOM     20  N   LIG    1      -25.430  80.127  14.691  0.00  0.00    -0.218 NA
ATOM     21  C   LIG    1      -25.832  79.936  13.422  0.00  0.00    +0.144 A 
ATOM     22  N   LIG    1      -25.696  80.835  12.400  0.00  0.00    -0.334 N 
ATOM     23  C   LIG    1      -25.159  82.170  12.550  0.00  0.00    +0.150 C 
ATOM     24  C   LIG    1      -26.158  80.282  11.228  0.00  0.00    +0.099 A 
ENDBRANCH  13  15
ENDBRANCH   9  13
ENDBRANCH   4   7
BRANCH   1  26
ATOM     25  N   LIG    1      -33.519  84.148  10.504  0.00  0.00    -0.215 N 
ATOM     26  C   LIG    1      -33.948  82.864  10.841  0.00  0.00    +0.130 A 
ATOM     27  C   LIG    1      -35.266  82.798  10.453  0.00  0.00    +0.069 A 
ATOM     28  C   LIG    1      -35.567  84.030   9.843  0.00  0.00    +0.071 A 
ATOM     29  N   LIG    1      -34.516  84.859   9.906  0.00  0.00    -0.169 NA
BRANCH  25  34
ATOM     30  C   LIG    1      -28.729  85.418  10.185  0.00  0.00    +0.172 C 
ATOM     31  N   LIG    1      -30.111  85.285  10.582  0.00  0.00    -0.272 N 
ATOM     32  N   LIG    1      -30.568  85.922  11.669  0.00  0.00    -0.178 NA
ATOM     33  C   LIG    1      -31.858  85.577  11.728  0.00  0.00    +0.162 A 
ATOM     34  C   LIG    1      -32.220  84.695  10.691  0.00  0.00    +0.105 A 
ATOM     35  C   LIG    1      -31.068  84.537   9.949  0.00  0.00    +0.135 A 
ENDBRANCH  25  34
BRANCH  28  36
ATOM     36  C   LIG    1      -36.881  84.439   9.183  0.00  0.00    +0.006 C 
ATOM     37  C   LIG    1      -38.024  83.469   9.573  0.00  0.00    +0.017 C 
ATOM     38  C   LIG    1      -36.751  84.407   7.649  0.00  0.00    +0.017 C 
ATOM     39  C   LIG    1      -37.289  85.857   9.620  0.00  0.00    +0.017 C 
ENDBRANCH  28  36
ENDBRANCH   1  26
TORSDOF 6
ENDMDL
MODEL 7
REMARK VINA RESULT:      -6.8      7.066     13.573
REMARK  Name = pdb/CHEMBL3671467.pdb
REMARK                            x       y       z     vdW  Elec       q    Type
REMARK                         _______ _______ _______ _____ _____    ______ ____
ROOT
ATOM      1  N   LIG    1      -37.402  75.363  24.972  0.00  0.00    -0.254 N 
ATOM      2  H   LIG    1      -36.772  75.592  24.227  0.00  0.00    +0.158 HD
ATOM      3  C   LIG    1      -37.062  75.707  26.303  0.00  0.00    +0.309 C 
ATOM      4  N   LIG    1      -35.918  76.447  26.371  0.00  0.00    -0.268 N 
ATOM      5  H   LIG    1      -35.426  76.677  25.512  0.00  0.00    +0.156 HD
ATOM      6  O   LIG    1      -37.750  75.312  27.233  0.00  0.00    -0.252 OA
ENDROOT
BRANCH   4   7
ATOM      7  C   LIG    1      -35.333  76.897  27.579  0.00  0.00    +0.054 A 
ATOM      8  C   LIG    1      -34.463  76.051  28.276  0.00  0.00    +0.038 A 
ATOM      9  C   LIG    1      -33.876  76.481  29.481  0.00  0.00    +0.042 A 
ATOM     10  C   LIG    1      -34.250  77.721  29.975  0.00  0.00    +0.122 A 
ATOM     11  N   LIG    1      -35.064  78.573  29.317  0.00  0.00    -0.261 NA
ATOM     12  C   LIG    1      -35.571  78.154  28.135  0.00  0.00    +0.134 A 
BRANCH   9  13
ATOM     13  C   LIG    1      -32.949  75.585  30.224  0.00  0.00    +0.197 C 
ATOM     14  O   LIG    1      -31.969  76.103  30.754  0.00  0.00    -0.287 OA
BRANCH  13  15
ATOM     15  C   LIG    1      -33.192  74.142  30.307  0.00  0.00    +0.051 A 
ATOM     16  C   LIG    1      -32.242  73.102  30.023  0.00  0.00    +0.048 A 
ATOM     17  C   LIG    1      -30.907  73.036  29.627  0.00  0.00    +0.124 A 
ATOM     18  N   LIG    1      -30.319  71.832  29.435  0.00  0.00    -0.243 NA
ATOM     19  C   LIG    1      -31.065  70.727  29.634  0.00  0.00    +0.223 A 
ATOM     20  N   LIG    1      -32.355  70.661  30.004  0.00  0.00    -0.218 NA
ATOM     21  C   LIG    1      -32.885  71.882  30.190  0.00  0.00    +0.144 A 
ATOM     22  N   LIG    1      -34.171  72.141  30.580  0.00  0.00    -0.334 N 
ATOM     23  C   LIG    1      -35.184  71.130  30.782  0.00  0.00    +0.150 C 
ATOM     24  C   LIG    1      -34.348  73.497  30.731  0.00  0.00    +0.099 A 
ENDBRANCH  13  15
ENDBRANCH   9  13
ENDBRANCH   4   7
BRANCH   1  26
ATOM     25  N   LIG    1      -38.720  73.236  24.681  0.00  0.00    -0.215 N 
ATOM     26  C   LIG    1      -38.549  74.621  24.654  0.00  0.00    +0.130 A 
ATOM     27  C   LIG    1      -39.748  75.136  24.222  0.00  0.00    +0.069 A 
ATOM     28  C   LIG    1      -40.619  74.043  24.059  0.00  0.00    +0.071 A 
ATOM     29  N   LIG    1      -39.984  72.889  24.304  0.00  0.00    -0.169 NA
BRANCH  25  34
ATOM     30  C   LIG    1      -35.476  70.374  27.119  0.00  0.00    +0.172 C 
ATOM     31  N   LIG    1      -36.328  70.971  26.118  0.00  0.00    -0.272 N 
ATOM     32  N   LIG    1      -36.336  70.499  24.864  0.00  0.00    -0.178 NA
ATOM     33  C   LIG    1      -37.222  71.273  24.231  0.00  0.00    +0.162 A 
ATOM     34  C   LIG    1      -37.764  72.261  25.077  0.00  0.00    +0.105 A 
ATOM     35  C   LIG    1      -37.178  72.030  26.304  0.00  0.00    +0.135 A 
ENDBRANCH  25  34
BRANCH  28  36
ATOM     36  C   LIG    1      -42.091  74.085  23.659  0.00  0.00    +0.006 C 
ATOM     37  C   LIG    1      -43.006  73.806  24.878  0.00  0.00    +0.017 C 
ATOM     38  C   LIG    1      -42.397  73.011  22.597  0.00  0.00    +0.017 C 
ATOM     39  C   LIG    1      -42.460  75.467  23.091  0.00  0.00    +0.017 C 
ENDBRANCH  28  36
ENDBRANCH   1  26
TORSDOF 6
ENDMDL
MODEL 8
REMARK VINA RESULT:      -6.7     10.671     15.105
REMARK  Name = pdb/CHEMBL3671467.pdb
REMARK                            x       y       z     vdW  Elec       q    Type
REMARK                         _______ _______ _______ _____ _____    ______ ____
ROOT
ATOM      1  N   LIG    1      -39.360  78.609  23.182  0.00  0.00    -0.254 N 
ATOM      2  H   LIG    1      -38.600  78.592  22.529  0.00  0.00    +0.158 HD
ATOM      3  C   LIG    1      -39.827  79.851  23.677  0.00  0.00    +0.309 C 
ATOM      4  N   LIG    1      -39.220  80.912  23.070  0.00  0.00    -0.268 N 
ATOM      5  H   LIG    1      -38.519  80.738  22.355  0.00  0.00    +0.156 HD
ATOM      6  O   LIG    1      -40.655  79.880  24.575  0.00  0.00    -0.252 OA
ENDROOT
BRANCH   4   7
ATOM      7  C   LIG    1      -39.474  82.266  23.396  0.00  0.00    +0.054 A 
ATOM      8  C   LIG    1      -38.478  83.017  24.030  0.00  0.00    +0.038 A 
ATOM      9  C   LIG    1      -38.715  84.363  24.366  0.00  0.00    +0.042 A 
ATOM     10  C   LIG    1      -39.977  84.878  24.115  0.00  0.00    +0.122 A 
ATOM     11  N   LIG    1      -40.952  84.192  23.481  0.00  0.00    -0.261 NA
ATOM     12  C   LIG    1      -40.677  82.917  23.122  0.00  0.00    +0.134 A 
BRANCH   9  13
ATOM     13  C   LIG    1      -37.658  85.165  25.039  0.00  0.00    +0.197 C 
ATOM     14  O   LIG    1      -36.993  85.923  24.337  0.00  0.00    -0.287 OA
BRANCH  13  15
ATOM     15  C   LIG    1      -37.414  85.042  26.479  0.00  0.00    +0.051 A 
ATOM     16  C   LIG    1      -36.729  83.964  27.137  0.00  0.00    +0.048 A 
ATOM     17  C   LIG    1      -36.101  82.781  26.747  0.00  0.00    +0.124 A 
ATOM     18  N   LIG    1      -35.554  81.969  27.682  0.00  0.00    -0.243 NA
ATOM     19  C   LIG    1      -35.645  82.343  28.973  0.00  0.00    +0.223 A 
ATOM     20  N   LIG    1      -36.230  83.445  29.472  0.00  0.00    -0.218 NA
ATOM     21  C   LIG    1      -36.747  84.219  28.502  0.00  0.00    +0.144 A 
ATOM     22  N   LIG    1      -37.393  85.410  28.692  0.00  0.00    -0.334 N 
ATOM     23  C   LIG    1      -37.683  85.985  29.987  0.00  0.00    +0.150 C 
ATOM     24  C   LIG    1      -37.732  85.956  27.477  0.00  0.00    +0.099 A 
ENDBRANCH  13  15
ENDBRANCH   9  13
ENDBRANCH   4   7
BRANCH   1  26
ATOM     25  N   LIG    1      -39.397  76.608  24.711  0.00  0.00    -0.215 N 
ATOM     26  C   LIG    1      -39.854  77.379  23.642  0.00  0.00    +0.130 A 
ATOM     27  C   LIG    1      -40.900  76.675  23.094  0.00  0.00    +0.069 A 
ATOM     28  C   LIG    1      -41.072  75.527  23.891  0.00  0.00    +0.071 A 
ATOM     29  N   LIG    1      -40.138  75.472  24.851  0.00  0.00    -0.169 NA
BRANCH  25  34
ATOM     30  C   LIG    1      -36.452  78.532  28.217  0.00  0.00    +0.172 C 
ATOM     31  N   LIG    1      -37.006  77.739  27.144  0.00  0.00    -0.272 N 
ATOM     32  N   LIG    1      -36.278  76.771  26.571  0.00  0.00    -0.178 NA
ATOM     33  C   LIG    1      -37.093  76.260  25.643  0.00  0.00    +0.162 A 
ATOM     34  C   LIG    1      -38.336  76.922  25.604  0.00  0.00    +0.105 A 
ATOM     35  C   LIG    1      -38.259  77.868  26.604  0.00  0.00    +0.135 A 
ENDBRANCH  25  34
BRANCH  28  36
ATOM     36  C   LIG    1      -42.145  74.453  23.746  0.00  0.00    +0.006 C 
ATOM     37  C   LIG    1      -42.880  74.215  25.088  0.00  0.00    +0.017 C 
ATOM     38  C   LIG    1      -41.517  73.112  23.319  0.00  0.00    +0.017 C 
ATOM     39  C   LIG    1      -43.191  74.870  22.697  0.00  0.00    +0.017 C 
ENDBRANCH  28  36
ENDBRANCH   1  26
TORSDOF 6
ENDMDL
MODEL 9
REMARK VINA RESULT:      -6.7      6.752     11.319
REMARK  Name = pdb/CHEMBL3671467.pdb
REMARK                            x       y       z     vdW  Elec       q    Type
REMARK                         _______ _______ _______ _____ _____    ______ ____
ROOT
ATOM      1  N   LIG    1      -35.352  76.560  26.469  0.00  0.00    -0.254 N 
ATOM      2  H   LIG    1      -35.086  77.108  25.672  0.00  0.00    +0.158 HD
ATOM      3  C   LIG    1      -36.541  75.793  26.421  0.00  0.00    +0.309 C 
ATOM      4  N   LIG    1      -37.125  75.817  25.188  0.00  0.00    -0.268 N 
ATOM      5  H   LIG    1      -36.689  76.355  24.445  0.00  0.00    +0.156 HD
ATOM      6  O   LIG    1      -36.949  75.233  27.428  0.00  0.00    -0.252 OA
ENDROOT
BRANCH   4   7
ATOM      7  C   LIG    1      -38.340  75.164  24.872  0.00  0.00    +0.054 A 
ATOM      8  C   LIG    1      -38.343  73.780  24.667  0.00  0.00    +0.038 A 
ATOM      9  C   LIG    1      -39.542  73.115  24.347  0.00  0.00    +0.042 A 
ATOM     10  C   LIG    1      -40.680  73.887  24.171  0.00  0.00    +0.122 A 
ATOM     11  N   LIG    1      -40.720  75.219  24.386  0.00  0.00    -0.261 NA
ATOM     12  C   LIG    1      -39.564  75.822  24.745  0.00  0.00    +0.134 A 
BRANCH   9  13
ATOM     13  C   LIG    1      -39.548  71.643  24.130  0.00  0.00    +0.197 C 
ATOM     14  O   LIG    1      -40.464  71.177  23.457  0.00  0.00    -0.287 OA
BRANCH  13  15
ATOM     15  C   LIG    1      -38.510  70.787  24.711  0.00  0.00    +0.051 A 
ATOM     16  C   LIG    1      -37.656  69.881  23.994  0.00  0.00    +0.048 A 
ATOM     17  C   LIG    1      -37.476  69.504  22.663  0.00  0.00    +0.124 A 
ATOM     18  N   LIG    1      -36.548  68.571  22.347  0.00  0.00    -0.243 NA
ATOM     19  C   LIG    1      -35.827  68.033  23.349  0.00  0.00    +0.223 A 
ATOM     20  N   LIG    1      -35.914  68.303  24.663  0.00  0.00    -0.218 NA
ATOM     21  C   LIG    1      -36.842  69.241  24.920  0.00  0.00    +0.144 A 
ATOM     22  N   LIG    1      -37.155  69.735  26.157  0.00  0.00    -0.334 N 
ATOM     23  C   LIG    1      -36.575  69.265  27.396  0.00  0.00    +0.150 C 
ATOM     24  C   LIG    1      -38.103  70.724  26.038  0.00  0.00    +0.099 A 
ENDBRANCH  13  15
ENDBRANCH   9  13
ENDBRANCH   4   7
BRANCH   1  26
ATOM     25  N   LIG    1      -34.479  77.739  28.516  0.00  0.00    -0.215 N 
ATOM     26  C   LIG    1      -34.568  76.668  27.627  0.00  0.00    +0.130 A 
ATOM     27  C   LIG    1      -33.700  75.714  28.103  0.00  0.00    +0.069 A 
ATOM     28  C   LIG    1      -33.159  76.225  29.298  0.00  0.00    +0.071 A 
ATOM     29  N   LIG    1      -33.607  77.467  29.528  0.00  0.00    -0.169 NA
BRANCH  25  34
ATOM     30  C   LIG    1      -36.008  82.408  27.795  0.00  0.00    +0.172 C 
ATOM     31  N   LIG    1      -35.917  81.013  28.156  0.00  0.00    -0.272 N 
ATOM     32  N   LIG    1      -36.936  80.405  28.777  0.00  0.00    -0.178 NA
ATOM     33  C   LIG    1      -36.509  79.150  28.949  0.00  0.00    +0.162 A 
ATOM     34  C   LIG    1      -35.201  78.962  28.460  0.00  0.00    +0.105 A 
ATOM     35  C   LIG    1      -34.847  80.187  27.932  0.00  0.00    +0.135 A 
ENDBRANCH  25  34
BRANCH  28  36
ATOM     36  C   LIG    1      -32.194  75.526  30.250  0.00  0.00    +0.006 C 
ATOM     37  C   LIG    1      -30.753  76.069  30.080  0.00  0.00    +0.017 C 
ATOM     38  C   LIG    1      -32.152  74.012  29.967  0.00  0.00    +0.017 C 
ATOM     39  C   LIG    1      -32.618  75.747  31.713  0.00  0.00    +0.017 C 
ENDBRANCH  28  36
ENDBRANCH   1  26
TORSDOF 6
ENDMDL
