MODEL 1
REMARK VINA RESULT:      -7.3      0.000      0.000
REMARK  Name = pdb/CHEMBL3661606.pdb
REMARK                            x       y       z     vdW  Elec       q    Type
REMARK                         _______ _______ _______ _____ _____    ______ ____
ROOT
ATOM      1  C   LIG    1      -34.293  71.611  28.275  0.00  0.00    +0.042 A 
ATOM      2  C   LIG    1      -35.304  71.833  27.331  0.00  0.00    +0.038 A 
ATOM      3  C   LIG    1      -35.575  70.885  26.339  0.00  0.00    +0.052 A 
ATOM      4  C   LIG    1      -34.819  69.716  26.354  0.00  0.00    +0.134 A 
ATOM      5  N   LIG    1      -33.794  69.493  27.214  0.00  0.00    -0.261 NA
ATOM      6  C   LIG    1      -33.532  70.462  28.123  0.00  0.00    +0.122 A 
ENDROOT
BRANCH   3   7
ATOM      7  N   LIG    1      -36.583  71.196  25.399  0.00  0.00    -0.284 N 
ATOM      8  H   LIG    1      -36.264  71.445  24.469  0.00  0.00    +0.155 HD
ATOM      9  C   LIG    1      -37.952  71.111  25.591  0.00  0.00    +0.222 C 
ATOM     10  O   LIG    1      -38.504  70.762  26.629  0.00  0.00    -0.275 OA
BRANCH   9  11
ATOM     11  C   LIG    1      -38.757  71.467  24.345  0.00  0.00    +0.131 C 
BRANCH  11  12
ATOM     12  C   LIG    1      -39.287  72.885  24.283  0.00  0.00    -0.038 A 
ATOM     13  C   LIG    1      -38.519  74.000  24.644  0.00  0.00    +0.016 A 
ATOM     14  C   LIG    1      -39.038  75.306  24.567  0.00  0.00    +0.055 A 
ATOM     15  C   LIG    1      -40.347  75.495  24.109  0.00  0.00    +0.012 A 
ATOM     16  C   LIG    1      -41.123  74.397  23.737  0.00  0.00    +0.001 A 
ATOM     17  C   LIG    1      -40.597  73.105  23.825  0.00  0.00    +0.004 A 
BRANCH  14  18
ATOM     18  C   LIG    1      -38.167  76.466  24.982  0.00  0.00    +0.417 C 
ATOM     19  F   LIG    1      -37.918  77.324  23.955  0.00  0.00    -0.166 F 
ATOM     20  F   LIG    1      -36.947  76.056  25.430  0.00  0.00    -0.166 F 
ATOM     21  F   LIG    1      -38.696  77.222  25.984  0.00  0.00    -0.166 F 
ENDBRANCH  14  18
ENDBRANCH  11  12
ENDBRANCH   9  11
ENDBRANCH   3   7
BRANCH   1  22
ATOM     22  C   LIG    1      -34.081  72.612  29.355  0.00  0.00    +0.197 C 
ATOM     23  O   LIG    1      -34.360  72.272  30.507  0.00  0.00    -0.287 OA
BRANCH  22  31
ATOM     24  N   LIG    1      -33.053  75.968  28.234  0.00  0.00    -0.326 N 
ATOM     25  C   LIG    1      -32.120  75.753  29.207  0.00  0.00    +0.147 A 
ATOM     26  N   LIG    1      -31.143  76.606  29.541  0.00  0.00    -0.197 NA
ATOM     27  C   LIG    1      -30.379  76.162  30.539  0.00  0.00    +0.214 A 
ATOM     28  N   LIG    1      -30.547  75.016  31.216  0.00  0.00    -0.222 NA
ATOM     29  C   LIG    1      -31.544  74.175  30.844  0.00  0.00    +0.126 A 
ATOM     30  C   LIG    1      -32.380  74.520  29.784  0.00  0.00    +0.048 A 
ATOM     31  C   LIG    1      -33.485  73.925  29.079  0.00  0.00    +0.051 A 
ATOM     32  C   LIG    1      -33.804  74.827  28.072  0.00  0.00    +0.100 A 
BRANCH  27  33
ATOM     33  N   LIG    1      -29.348  76.990  30.936  0.00  0.00    -0.327 N 
ATOM     34  H   LIG    1      -29.515  77.924  30.592  0.00  0.00    +0.145 HD
ATOM     35  H   LIG    1      -29.192  76.882  31.928  0.00  0.00    +0.145 HD
ENDBRANCH  27  33
BRANCH  24  37
ATOM     36  C   LIG    1      -33.504  78.398  28.396  0.00  0.00    +0.033 C 
ATOM     37  C   LIG    1      -33.246  77.203  27.474  0.00  0.00    +0.111 C 
BRANCH  37  38
ATOM     38  C   LIG    1      -32.086  77.495  26.515  0.00  0.00    +0.180 C 
BRANCH  38  39
ATOM     39  O   LIG    1      -32.361  78.618  25.681  0.00  0.00    -0.393 OA
ATOM     40  H   LIG    1      -33.331  78.696  25.620  0.00  0.00    +0.209 HD
ENDBRANCH  38  39
ENDBRANCH  37  38
ENDBRANCH  24  37
ENDBRANCH  22  31
ENDBRANCH   1  22
TORSDOF 10
ENDMDL
MODEL 2
REMARK VINA RESULT:      -7.2      2.779      4.053
REMARK  Name = pdb/CHEMBL3661606.pdb
REMARK                            x       y       z     vdW  Elec       q    Type
REMARK                         _______ _______ _______ _____ _____    ______ ____
ROOT
ATOM      1  C   LIG    1      -32.879  74.378  29.054  0.00  0.00    +0.042 A 
ATOM      2  C   LIG    1      -33.762  73.982  28.040  0.00  0.00    +0.038 A 
ATOM      3  C   LIG    1      -34.251  72.672  27.991  0.00  0.00    +0.052 A 
ATOM      4  C   LIG    1      -33.843  71.804  29.001  0.00  0.00    +0.134 A 
ATOM      5  N   LIG    1      -32.945  72.136  29.962  0.00  0.00    -0.261 NA
ATOM      6  C   LIG    1      -32.456  73.398  29.938  0.00  0.00    +0.122 A 
ENDROOT
BRANCH   3   7
ATOM      7  N   LIG    1      -35.105  72.336  26.918  0.00  0.00    -0.284 N 
ATOM      8  H   LIG    1      -34.652  72.122  26.037  0.00  0.00    +0.155 HD
ATOM      9  C   LIG    1      -36.481  72.184  26.969  0.00  0.00    +0.222 C 
ATOM     10  O   LIG    1      -37.177  72.337  27.967  0.00  0.00    -0.275 OA
BRANCH   9  11
ATOM     11  C   LIG    1      -37.089  71.758  25.636  0.00  0.00    +0.131 C 
BRANCH  11  12
ATOM     12  C   LIG    1      -38.161  72.670  25.076  0.00  0.00    -0.038 A 
ATOM     13  C   LIG    1      -38.044  74.067  25.069  0.00  0.00    +0.016 A 
ATOM     14  C   LIG    1      -39.056  74.886  24.535  0.00  0.00    +0.055 A 
ATOM     15  C   LIG    1      -40.199  74.292  23.988  0.00  0.00    +0.012 A 
ATOM     16  C   LIG    1      -40.329  72.903  23.979  0.00  0.00    +0.001 A 
ATOM     17  C   LIG    1      -39.320  72.102  24.520  0.00  0.00    +0.004 A 
BRANCH  14  18
ATOM     18  C   LIG    1      -38.877  76.385  24.566  0.00  0.00    +0.417 C 
ATOM     19  F   LIG    1      -39.425  76.951  25.677  0.00  0.00    -0.166 F 
ATOM     20  F   LIG    1      -39.474  76.994  23.504  0.00  0.00    -0.166 F 
ATOM     21  F   LIG    1      -37.576  76.785  24.543  0.00  0.00    -0.166 F 
ENDBRANCH  14  18
ENDBRANCH  11  12
ENDBRANCH   9  11
ENDBRANCH   3   7
BRANCH   1  22
ATOM     22  C   LIG    1      -32.436  75.797  29.111  0.00  0.00    +0.197 C 
ATOM     23  O   LIG    1      -31.267  76.040  28.803  0.00  0.00    -0.287 OA
BRANCH  22  31
ATOM     24  N   LIG    1      -34.890  78.189  30.467  0.00  0.00    -0.326 N 
ATOM     25  C   LIG    1      -34.554  78.832  29.311  0.00  0.00    +0.147 A 
ATOM     26  N   LIG    1      -35.070  79.997  28.899  0.00  0.00    -0.197 NA
ATOM     27  C   LIG    1      -34.554  80.419  27.744  0.00  0.00    +0.214 A 
ATOM     28  N   LIG    1      -33.582  79.816  27.043  0.00  0.00    -0.222 NA
ATOM     29  C   LIG    1      -33.088  78.634  27.490  0.00  0.00    +0.126 A 
ATOM     30  C   LIG    1      -33.585  78.078  28.667  0.00  0.00    +0.048 A 
ATOM     31  C   LIG    1      -33.371  76.881  29.438  0.00  0.00    +0.051 A 
ATOM     32  C   LIG    1      -34.270  76.961  30.494  0.00  0.00    +0.100 A 
BRANCH  27  33
ATOM     33  N   LIG    1      -35.042  81.614  27.256  0.00  0.00    -0.327 N 
ATOM     34  H   LIG    1      -34.307  82.106  26.770  0.00  0.00    +0.145 HD
ATOM     35  H   LIG    1      -35.900  81.446  26.750  0.00  0.00    +0.145 HD
ENDBRANCH  27  33
BRANCH  24  37
ATOM     36  C   LIG    1      -36.477  77.567  32.264  0.00  0.00    +0.033 C 
ATOM     37  C   LIG    1      -35.762  78.701  31.524  0.00  0.00    +0.111 C 
BRANCH  37  38
ATOM     38  C   LIG    1      -35.023  79.614  32.510  0.00  0.00    +0.180 C 
BRANCH  38  39
ATOM     39  O   LIG    1      -34.767  80.898  31.947  0.00  0.00    -0.393 OA
ATOM     40  H   LIG    1      -34.267  81.407  32.613  0.00  0.00    +0.209 HD
ENDBRANCH  38  39
ENDBRANCH  37  38
ENDBRANCH  24  37
ENDBRANCH  22  31
ENDBRANCH   1  22
TORSDOF 10
ENDMDL
MODEL 3
REMARK VINA RESULT:      -7.1     11.552     16.287
REMARK  Name = pdb/CHEMBL3661606.pdb
REMARK                            x       y       z     vdW  Elec       q    Type
REMARK                         _______ _______ _______ _____ _____    ______ ____
ROOT
ATOM      1  C   LIG    1      -20.185  76.887  30.611  0.00  0.00    +0.042 A 
ATOM      2  C   LIG    1      -20.253  77.724  31.733  0.00  0.00    +0.038 A 
ATOM      3  C   LIG    1      -19.085  78.204  32.335  0.00  0.00    +0.052 A 
ATOM      4  C   LIG    1      -17.873  77.837  31.755  0.00  0.00    +0.134 A 
ATOM      5  N   LIG    1      -17.769  76.982  30.707  0.00  0.00    -0.261 NA
ATOM      6  C   LIG    1      -18.923  76.499  30.190  0.00  0.00    +0.122 A 
ENDROOT
BRANCH   3   7
ATOM      7  N   LIG    1      -19.230  79.010  33.486  0.00  0.00    -0.284 N 
ATOM      8  H   LIG    1      -19.607  79.940  33.334  0.00  0.00    +0.155 HD
ATOM      9  C   LIG    1      -18.997  78.634  34.798  0.00  0.00    +0.222 C 
ATOM     10  O   LIG    1      -18.607  77.529  35.162  0.00  0.00    -0.275 OA
BRANCH   9  11
ATOM     11  C   LIG    1      -19.310  79.736  35.805  0.00  0.00    +0.131 C 
BRANCH  11  12
ATOM     12  C   LIG    1      -20.726  80.275  35.778  0.00  0.00    -0.038 A 
ATOM     13  C   LIG    1      -21.819  79.517  35.337  0.00  0.00    +0.016 A 
ATOM     14  C   LIG    1      -23.124  80.045  35.331  0.00  0.00    +0.055 A 
ATOM     15  C   LIG    1      -23.335  81.351  35.787  0.00  0.00    +0.012 A 
ATOM     16  C   LIG    1      -22.259  82.117  36.237  0.00  0.00    +0.001 A 
ATOM     17  C   LIG    1      -20.968  81.583  36.231  0.00  0.00    +0.004 A 
BRANCH  14  18
ATOM     18  C   LIG    1      -24.260  79.184  34.833  0.00  0.00    +0.417 C 
ATOM     19  F   LIG    1      -25.473  79.616  35.276  0.00  0.00    -0.166 F 
ATOM     20  F   LIG    1      -24.146  77.893  35.253  0.00  0.00    -0.166 F 
ATOM     21  F   LIG    1      -24.353  79.127  33.476  0.00  0.00    -0.166 F 
ENDBRANCH  14  18
ENDBRANCH  11  12
ENDBRANCH   9  11
ENDBRANCH   3   7
BRANCH   1  22
ATOM     22  C   LIG    1      -21.450  76.453  29.959  0.00  0.00    +0.197 C 
ATOM     23  O   LIG    1      -21.505  76.513  28.728  0.00  0.00    -0.287 OA
BRANCH  22  31
ATOM     24  N   LIG    1      -23.824  74.612  32.093  0.00  0.00    -0.326 N 
ATOM     25  C   LIG    1      -24.631  75.629  31.674  0.00  0.00    +0.147 A 
ATOM     26  N   LIG    1      -25.919  75.780  32.008  0.00  0.00    -0.197 NA
ATOM     27  C   LIG    1      -26.473  76.872  31.479  0.00  0.00    +0.214 A 
ATOM     28  N   LIG    1      -25.851  77.790  30.726  0.00  0.00    -0.222 NA
ATOM     29  C   LIG    1      -24.546  77.600  30.403  0.00  0.00    +0.126 A 
ATOM     30  C   LIG    1      -23.878  76.470  30.868  0.00  0.00    +0.048 A 
ATOM     31  C   LIG    1      -22.564  75.896  30.737  0.00  0.00    +0.051 A 
ATOM     32  C   LIG    1      -22.615  74.701  31.443  0.00  0.00    +0.100 A 
BRANCH  27  33
ATOM     33  N   LIG    1      -27.802  77.090  31.779  0.00  0.00    -0.327 N 
ATOM     34  H   LIG    1      -28.376  76.439  31.264  0.00  0.00    +0.145 HD
ATOM     35  H   LIG    1      -27.920  77.120  32.782  0.00  0.00    +0.145 HD
ENDBRANCH  27  33
BRANCH  24  37
ATOM     36  C   LIG    1      -23.309  72.326  32.896  0.00  0.00    +0.033 C 
ATOM     37  C   LIG    1      -24.163  73.583  33.077  0.00  0.00    +0.111 C 
BRANCH  37  38
ATOM     38  C   LIG    1      -24.082  74.095  34.520  0.00  0.00    +0.180 C 
BRANCH  38  39
ATOM     39  O   LIG    1      -25.315  74.667  34.947  0.00  0.00    -0.393 OA
ATOM     40  H   LIG    1      -25.972  74.483  34.249  0.00  0.00    +0.209 HD
ENDBRANCH  38  39
ENDBRANCH  37  38
ENDBRANCH  24  37
ENDBRANCH  22  31
ENDBRANCH   1  22
TORSDOF 10
ENDMDL
MODEL 4
REMARK VINA RESULT:      -7.0      1.867      2.869
REMARK  Name = pdb/CHEMBL3661606.pdb
REMARK                            x       y       z     vdW  Elec       q    Type
REMARK                         _______ _______ _______ _____ _____    ______ ____
ROOT
ATOM      1  C   LIG    1      -33.514  72.193  28.794  0.00  0.00    +0.042 A 
ATOM      2  C   LIG    1      -34.469  72.257  27.770  0.00  0.00    +0.038 A 
ATOM      3  C   LIG    1      -34.882  71.097  27.107  0.00  0.00    +0.052 A 
ATOM      4  C   LIG    1      -34.326  69.892  27.528  0.00  0.00    +0.134 A 
ATOM      5  N   LIG    1      -33.357  69.800  28.473  0.00  0.00    -0.261 NA
ATOM      6  C   LIG    1      -32.948  70.954  29.050  0.00  0.00    +0.122 A 
ENDROOT
BRANCH   3   7
ATOM      7  N   LIG    1      -35.819  71.244  26.060  0.00  0.00    -0.284 N 
ATOM      8  H   LIG    1      -35.433  71.426  25.139  0.00  0.00    +0.155 HD
ATOM      9  C   LIG    1      -37.191  71.079  26.144  0.00  0.00    +0.222 C 
ATOM     10  O   LIG    1      -37.812  70.791  27.162  0.00  0.00    -0.275 OA
BRANCH   9  11
ATOM     11  C   LIG    1      -37.902  71.257  24.806  0.00  0.00    +0.131 C 
BRANCH  11  12
ATOM     12  C   LIG    1      -38.606  72.583  24.601  0.00  0.00    -0.038 A 
ATOM     13  C   LIG    1      -38.025  73.812  24.942  0.00  0.00    +0.016 A 
ATOM     14  C   LIG    1      -38.702  75.028  24.731  0.00  0.00    +0.055 A 
ATOM     15  C   LIG    1      -39.980  75.008  24.160  0.00  0.00    +0.012 A 
ATOM     16  C   LIG    1      -40.569  73.794  23.807  0.00  0.00    +0.001 A 
ATOM     17  C   LIG    1      -39.889  72.594  24.028  0.00  0.00    +0.004 A 
BRANCH  14  18
ATOM     18  C   LIG    1      -38.030  76.319  25.129  0.00  0.00    +0.417 C 
ATOM     19  F   LIG    1      -38.670  76.945  26.155  0.00  0.00    -0.166 F 
ATOM     20  F   LIG    1      -37.999  77.216  24.105  0.00  0.00    -0.166 F 
ATOM     21  F   LIG    1      -36.738  76.167  25.530  0.00  0.00    -0.166 F 
ENDBRANCH  14  18
ENDBRANCH  11  12
ENDBRANCH   9  11
ENDBRANCH   3   7
BRANCH   1  22
ATOM     22  C   LIG    1      -33.152  73.440  29.521  0.00  0.00    +0.197 C 
ATOM     23  O   LIG    1      -32.315  73.349  30.422  0.00  0.00    -0.287 OA
BRANCH  22  31
ATOM     24  N   LIG    1      -33.953  76.824  28.302  0.00  0.00    -0.326 N 
ATOM     25  C   LIG    1      -35.168  76.467  28.811  0.00  0.00    +0.147 A 
ATOM     26  N   LIG    1      -36.260  77.244  28.818  0.00  0.00    -0.197 NA
ATOM     27  C   LIG    1      -37.323  76.646  29.356  0.00  0.00    +0.214 A 
ATOM     28  N   LIG    1      -37.378  75.387  29.815  0.00  0.00    -0.222 NA
ATOM     29  C   LIG    1      -36.250  74.634  29.797  0.00  0.00    +0.126 A 
ATOM     30  C   LIG    1      -35.067  75.171  29.293  0.00  0.00    +0.048 A 
ATOM     31  C   LIG    1      -33.702  74.744  29.131  0.00  0.00    +0.051 A 
ATOM     32  C   LIG    1      -33.038  75.839  28.594  0.00  0.00    +0.100 A 
BRANCH  27  33
ATOM     33  N   LIG    1      -38.486  77.390  29.399  0.00  0.00    -0.327 N 
ATOM     34  H   LIG    1      -38.751  77.656  28.462  0.00  0.00    +0.145 HD
ATOM     35  H   LIG    1      -39.175  76.905  29.956  0.00  0.00    +0.145 HD
ENDBRANCH  27  33
BRANCH  24  37
ATOM     36  C   LIG    1      -33.656  79.277  28.470  0.00  0.00    +0.033 C 
ATOM     37  C   LIG    1      -33.648  78.047  27.559  0.00  0.00    +0.111 C 
BRANCH  37  38
ATOM     38  C   LIG    1      -32.330  77.952  26.781  0.00  0.00    +0.180 C 
BRANCH  38  39
ATOM     39  O   LIG    1      -32.347  78.770  25.614  0.00  0.00    -0.393 OA
ATOM     40  H   LIG    1      -33.274  79.032  25.463  0.00  0.00    +0.209 HD
ENDBRANCH  38  39
ENDBRANCH  37  38
ENDBRANCH  24  37
ENDBRANCH  22  31
ENDBRANCH   1  22
TORSDOF 10
ENDMDL
MODEL 5
REMARK VINA RESULT:      -7.0      5.628      7.963
REMARK  Name = pdb/CHEMBL3661606.pdb
REMARK                            x       y       z     vdW  Elec       q    Type
REMARK                         _______ _______ _______ _____ _____    ______ ____
ROOT
ATOM      1  C   LIG    1      -38.639  77.425  26.038  0.00  0.00    +0.042 A 
ATOM      2  C   LIG    1      -38.760  78.601  25.287  0.00  0.00    +0.038 A 
ATOM      3  C   LIG    1      -39.338  78.577  24.013  0.00  0.00    +0.052 A 
ATOM      4  C   LIG    1      -39.803  77.349  23.549  0.00  0.00    +0.134 A 
ATOM      5  N   LIG    1      -39.648  76.182  24.223  0.00  0.00    -0.261 NA
ATOM      6  C   LIG    1      -39.034  76.245  25.428  0.00  0.00    +0.122 A 
ENDROOT
BRANCH   3   7
ATOM      7  N   LIG    1      -39.391  79.795  23.299  0.00  0.00    -0.284 N 
ATOM      8  H   LIG    1      -38.810  79.852  22.470  0.00  0.00    +0.155 HD
ATOM      9  C   LIG    1      -40.214  80.877  23.564  0.00  0.00    +0.222 C 
ATOM     10  O   LIG    1      -41.023  80.947  24.483  0.00  0.00    -0.275 OA
BRANCH   9  11
ATOM     11  C   LIG    1      -40.056  82.013  22.558  0.00  0.00    +0.131 C 
BRANCH  11  12
ATOM     12  C   LIG    1      -39.300  83.231  23.049  0.00  0.00    -0.038 A 
ATOM     13  C   LIG    1      -38.291  83.160  24.019  0.00  0.00    +0.016 A 
ATOM     14  C   LIG    1      -37.602  84.310  24.449  0.00  0.00    +0.055 A 
ATOM     15  C   LIG    1      -37.926  85.549  23.886  0.00  0.00    +0.012 A 
ATOM     16  C   LIG    1      -38.921  85.638  22.913  0.00  0.00    +0.001 A 
ATOM     17  C   LIG    1      -39.603  84.489  22.501  0.00  0.00    +0.004 A 
BRANCH  14  18
ATOM     18  C   LIG    1      -36.534  84.171  25.505  0.00  0.00    +0.417 C 
ATOM     19  F   LIG    1      -35.424  84.907  25.223  0.00  0.00    -0.166 F 
ATOM     20  F   LIG    1      -36.105  82.884  25.634  0.00  0.00    -0.166 F 
ATOM     21  F   LIG    1      -36.935  84.556  26.748  0.00  0.00    -0.166 F 
ENDBRANCH  14  18
ENDBRANCH  11  12
ENDBRANCH   9  11
ENDBRANCH   3   7
BRANCH   1  22
ATOM     22  C   LIG    1      -38.082  77.503  27.416  0.00  0.00    +0.197 C 
ATOM     23  O   LIG    1      -38.750  77.011  28.328  0.00  0.00    -0.287 OA
BRANCH  22  31
ATOM     24  N   LIG    1      -34.530  78.338  27.932  0.00  0.00    -0.326 N 
ATOM     25  C   LIG    1      -35.092  79.561  28.163  0.00  0.00    +0.147 A 
ATOM     26  N   LIG    1      -34.417  80.669  28.498  0.00  0.00    -0.197 NA
ATOM     27  C   LIG    1      -35.203  81.736  28.646  0.00  0.00    +0.214 A 
ATOM     28  N   LIG    1      -36.529  81.777  28.445  0.00  0.00    -0.222 NA
ATOM     29  C   LIG    1      -37.178  80.633  28.112  0.00  0.00    +0.126 A 
ATOM     30  C   LIG    1      -36.460  79.447  27.971  0.00  0.00    +0.048 A 
ATOM     31  C   LIG    1      -36.752  78.069  27.676  0.00  0.00    +0.051 A 
ATOM     32  C   LIG    1      -35.531  77.412  27.753  0.00  0.00    +0.100 A 
BRANCH  27  33
ATOM     33  N   LIG    1      -34.576  82.914  28.994  0.00  0.00    -0.327 N 
ATOM     34  H   LIG    1      -33.657  82.943  28.578  0.00  0.00    +0.145 HD
ATOM     35  H   LIG    1      -35.193  83.692  28.810  0.00  0.00    +0.145 HD
ENDBRANCH  27  33
BRANCH  24  37
ATOM     36  C   LIG    1      -32.712  76.952  28.885  0.00  0.00    +0.033 C 
ATOM     37  C   LIG    1      -33.100  78.036  27.876  0.00  0.00    +0.111 C 
BRANCH  37  38
ATOM     38  C   LIG    1      -32.630  77.662  26.465  0.00  0.00    +0.180 C 
BRANCH  38  39
ATOM     39  O   LIG    1      -32.343  78.818  25.681  0.00  0.00    -0.393 OA
ATOM     40  H   LIG    1      -31.863  79.441  26.258  0.00  0.00    +0.209 HD
ENDBRANCH  38  39
ENDBRANCH  37  38
ENDBRANCH  24  37
ENDBRANCH  22  31
ENDBRANCH   1  22
TORSDOF 10
ENDMDL
MODEL 6
REMARK VINA RESULT:      -6.9      3.612      6.262
REMARK  Name = pdb/CHEMBL3661606.pdb
REMARK                            x       y       z     vdW  Elec       q    Type
REMARK                         _______ _______ _______ _____ _____    ______ ____
ROOT
ATOM      1  C   LIG    1      -38.408  79.693  27.257  0.00  0.00    +0.042 A 
ATOM      2  C   LIG    1      -38.950  78.815  26.308  0.00  0.00    +0.038 A 
ATOM      3  C   LIG    1      -39.622  79.307  25.183  0.00  0.00    +0.052 A 
ATOM      4  C   LIG    1      -39.698  80.691  25.043  0.00  0.00    +0.134 A 
ATOM      5  N   LIG    1      -39.237  81.567  25.971  0.00  0.00    -0.261 NA
ATOM      6  C   LIG    1      -38.643  81.046  27.069  0.00  0.00    +0.122 A 
ENDROOT
BRANCH   3   7
ATOM      7  N   LIG    1      -40.176  78.363  24.291  0.00  0.00    -0.284 N 
ATOM      8  H   LIG    1      -39.662  78.207  23.431  0.00  0.00    +0.155 HD
ATOM      9  C   LIG    1      -41.290  77.569  24.509  0.00  0.00    +0.222 C 
ATOM     10  O   LIG    1      -41.984  77.580  25.521  0.00  0.00    -0.275 OA
BRANCH   9  11
ATOM     11  C   LIG    1      -41.581  76.612  23.358  0.00  0.00    +0.131 C 
BRANCH  11  12
ATOM     12  C   LIG    1      -41.131  75.179  23.558  0.00  0.00    -0.038 A 
ATOM     13  C   LIG    1      -39.918  74.843  24.174  0.00  0.00    +0.016 A 
ATOM     14  C   LIG    1      -39.532  73.501  24.352  0.00  0.00    +0.055 A 
ATOM     15  C   LIG    1      -40.384  72.481  23.913  0.00  0.00    +0.012 A 
ATOM     16  C   LIG    1      -41.599  72.798  23.306  0.00  0.00    +0.001 A 
ATOM     17  C   LIG    1      -41.967  74.134  23.129  0.00  0.00    +0.004 A 
BRANCH  14  18
ATOM     18  C   LIG    1      -38.209  73.201  25.012  0.00  0.00    +0.417 C 
ATOM     19  F   LIG    1      -37.502  72.243  24.351  0.00  0.00    -0.166 F 
ATOM     20  F   LIG    1      -38.364  72.739  26.284  0.00  0.00    -0.166 F 
ATOM     21  F   LIG    1      -37.383  74.280  25.106  0.00  0.00    -0.166 F 
ENDBRANCH  14  18
ENDBRANCH  11  12
ENDBRANCH   9  11
ENDBRANCH   3   7
BRANCH   1  22
ATOM     22  C   LIG    1      -37.643  79.132  28.403  0.00  0.00    +0.197 C 
ATOM     23  O   LIG    1      -38.120  79.278  29.530  0.00  0.00    -0.287 OA
BRANCH  22  31
ATOM     24  N   LIG    1      -34.257  77.763  27.908  0.00  0.00    -0.326 N 
ATOM     25  C   LIG    1      -34.975  76.602  27.932  0.00  0.00    +0.147 A 
ATOM     26  N   LIG    1      -34.461  75.374  27.782  0.00  0.00    -0.197 NA
ATOM     27  C   LIG    1      -35.378  74.410  27.868  0.00  0.00    +0.214 A 
ATOM     28  N   LIG    1      -36.683  74.577  28.126  0.00  0.00    -0.222 NA
ATOM     29  C   LIG    1      -37.168  75.837  28.266  0.00  0.00    +0.126 A 
ATOM     30  C   LIG    1      -36.305  76.926  28.154  0.00  0.00    +0.048 A 
ATOM     31  C   LIG    1      -36.410  78.361  28.199  0.00  0.00    +0.051 A 
ATOM     32  C   LIG    1      -35.126  78.829  27.951  0.00  0.00    +0.100 A 
BRANCH  27  33
ATOM     33  N   LIG    1      -34.920  73.116  27.720  0.00  0.00    -0.327 N 
ATOM     34  H   LIG    1      -34.167  73.100  27.048  0.00  0.00    +0.145 HD
ATOM     35  H   LIG    1      -34.738  72.717  28.630  0.00  0.00    +0.145 HD
ENDBRANCH  27  33
BRANCH  24  37
ATOM     36  C   LIG    1      -32.118  76.970  28.873  0.00  0.00    +0.033 C 
ATOM     37  C   LIG    1      -32.800  77.882  27.849  0.00  0.00    +0.111 C 
BRANCH  37  38
ATOM     38  C   LIG    1      -32.243  77.634  26.442  0.00  0.00    +0.180 C 
BRANCH  38  39
ATOM     39  O   LIG    1      -32.303  78.809  25.637  0.00  0.00    -0.393 OA
ATOM     40  H   LIG    1      -32.305  78.517  24.707  0.00  0.00    +0.209 HD
ENDBRANCH  38  39
ENDBRANCH  37  38
ENDBRANCH  24  37
ENDBRANCH  22  31
ENDBRANCH   1  22
TORSDOF 10
ENDMDL
MODEL 7
REMARK VINA RESULT:      -6.7      2.166      3.066
REMARK  Name = pdb/CHEMBL3661606.pdb
REMARK                            x       y       z     vdW  Elec       q    Type
REMARK                         _______ _______ _______ _____ _____    ______ ____
ROOT
ATOM      1  C   LIG    1      -34.733  73.148  29.639  0.00  0.00    +0.042 A 
ATOM      2  C   LIG    1      -35.706  72.921  28.657  0.00  0.00    +0.038 A 
ATOM      3  C   LIG    1      -35.860  71.653  28.085  0.00  0.00    +0.052 A 
ATOM      4  C   LIG    1      -35.029  70.639  28.553  0.00  0.00    +0.134 A 
ATOM      5  N   LIG    1      -34.037  70.837  29.458  0.00  0.00    -0.261 NA
ATOM      6  C   LIG    1      -33.889  72.092  29.944  0.00  0.00    +0.122 A 
ENDROOT
BRANCH   3   7
ATOM      7  N   LIG    1      -36.836  71.510  27.073  0.00  0.00    -0.284 N 
ATOM      8  H   LIG    1      -37.790  71.729  27.339  0.00  0.00    +0.155 HD
ATOM      9  C   LIG    1      -36.613  71.189  25.745  0.00  0.00    +0.222 C 
ATOM     10  O   LIG    1      -35.517  70.962  25.242  0.00  0.00    -0.275 OA
BRANCH   9  11
ATOM     11  C   LIG    1      -37.888  71.174  24.907  0.00  0.00    +0.131 C 
BRANCH  11  12
ATOM     12  C   LIG    1      -38.550  72.518  24.685  0.00  0.00    -0.038 A 
ATOM     13  C   LIG    1      -37.899  73.735  24.926  0.00  0.00    +0.016 A 
ATOM     14  C   LIG    1      -38.539  74.968  24.701  0.00  0.00    +0.055 A 
ATOM     15  C   LIG    1      -39.852  74.978  24.216  0.00  0.00    +0.012 A 
ATOM     16  C   LIG    1      -40.513  73.776  23.963  0.00  0.00    +0.001 A 
ATOM     17  C   LIG    1      -39.867  72.558  24.197  0.00  0.00    +0.004 A 
BRANCH  14  18
ATOM     18  C   LIG    1      -37.790  76.246  24.991  0.00  0.00    +0.417 C 
ATOM     19  F   LIG    1      -36.834  76.084  25.946  0.00  0.00    -0.166 F 
ATOM     20  F   LIG    1      -38.614  77.230  25.449  0.00  0.00    -0.166 F 
ATOM     21  F   LIG    1      -37.153  76.769  23.907  0.00  0.00    -0.166 F 
ENDBRANCH  14  18
ENDBRANCH  11  12
ENDBRANCH   9  11
ENDBRANCH   3   7
BRANCH   1  22
ATOM     22  C   LIG    1      -34.647  74.492  30.271  0.00  0.00    +0.197 C 
ATOM     23  O   LIG    1      -34.262  74.545  31.441  0.00  0.00    -0.287 OA
BRANCH  22  31
ATOM     24  N   LIG    1      -35.918  77.552  28.659  0.00  0.00    -0.326 N 
ATOM     25  C   LIG    1      -34.663  77.512  28.123  0.00  0.00    +0.147 A 
ATOM     26  N   LIG    1      -34.170  78.397  27.246  0.00  0.00    -0.197 NA
ATOM     27  C   LIG    1      -32.909  78.139  26.897  0.00  0.00    +0.214 A 
ATOM     28  N   LIG    1      -32.141  77.148  27.372  0.00  0.00    -0.222 NA
ATOM     29  C   LIG    1      -32.678  76.268  28.255  0.00  0.00    +0.126 A 
ATOM     30  C   LIG    1      -34.003  76.417  28.659  0.00  0.00    +0.048 A 
ATOM     31  C   LIG    1      -34.928  75.717  29.513  0.00  0.00    +0.051 A 
ATOM     32  C   LIG    1      -36.124  76.414  29.404  0.00  0.00    +0.100 A 
BRANCH  27  33
ATOM     33  N   LIG    1      -32.336  79.010  25.992  0.00  0.00    -0.327 N 
ATOM     34  H   LIG    1      -32.186  78.535  25.115  0.00  0.00    +0.145 HD
ATOM     35  H   LIG    1      -32.866  79.870  25.970  0.00  0.00    +0.145 HD
ENDBRANCH  27  33
BRANCH  24  37
ATOM     36  C   LIG    1      -38.335  78.087  28.561  0.00  0.00    +0.033 C 
ATOM     37  C   LIG    1      -36.902  78.621  28.488  0.00  0.00    +0.111 C 
BRANCH  37  38
ATOM     38  C   LIG    1      -36.698  79.776  29.476  0.00  0.00    +0.180 C 
BRANCH  38  39
ATOM     39  O   LIG    1      -35.317  80.074  29.661  0.00  0.00    -0.393 OA
ATOM     40  H   LIG    1      -34.948  80.275  28.781  0.00  0.00    +0.209 HD
ENDBRANCH  38  39
ENDBRANCH  37  38
ENDBRANCH  24  37
ENDBRANCH  22  31
ENDBRANCH   1  22
TORSDOF 10
ENDMDL
MODEL 8
REMARK VINA RESULT:      -6.4     11.017     16.655
REMARK  Name = pdb/CHEMBL3661606.pdb
REMARK                            x       y       z     vdW  Elec       q    Type
REMARK                         _______ _______ _______ _____ _____    ______ ____
ROOT
ATOM      1  C   LIG    1      -21.720  77.128  30.906  0.00  0.00    +0.042 A 
ATOM      2  C   LIG    1      -20.961  77.795  31.877  0.00  0.00    +0.038 A 
ATOM      3  C   LIG    1      -19.681  77.342  32.217  0.00  0.00    +0.052 A 
ATOM      4  C   LIG    1      -19.198  76.229  31.533  0.00  0.00    +0.134 A 
ATOM      5  N   LIG    1      -19.928  75.525  30.631  0.00  0.00    -0.261 NA
ATOM      6  C   LIG    1      -21.181  75.968  30.373  0.00  0.00    +0.122 A 
ENDROOT
BRANCH   3   7
ATOM      7  N   LIG    1      -18.992  78.041  33.232  0.00  0.00    -0.284 N 
ATOM      8  H   LIG    1      -18.464  78.854  32.934  0.00  0.00    +0.155 HD
ATOM      9  C   LIG    1      -19.034  77.785  34.592  0.00  0.00    +0.222 C 
ATOM     10  O   LIG    1      -19.676  76.886  35.127  0.00  0.00    -0.275 OA
BRANCH   9  11
ATOM     11  C   LIG    1      -18.213  78.772  35.417  0.00  0.00    +0.131 C 
BRANCH  11  12
ATOM     12  C   LIG    1      -19.003  79.692  36.325  0.00  0.00    -0.038 A 
ATOM     13  C   LIG    1      -20.204  80.298  35.935  0.00  0.00    +0.016 A 
ATOM     14  C   LIG    1      -20.918  81.143  36.807  0.00  0.00    +0.055 A 
ATOM     15  C   LIG    1      -20.421  81.372  38.095  0.00  0.00    +0.012 A 
ATOM     16  C   LIG    1      -19.230  80.770  38.502  0.00  0.00    +0.001 A 
ATOM     17  C   LIG    1      -18.528  79.940  37.625  0.00  0.00    +0.004 A 
BRANCH  14  18
ATOM     18  C   LIG    1      -22.200  81.776  36.325  0.00  0.00    +0.417 C 
ATOM     19  F   LIG    1      -23.304  81.209  36.885  0.00  0.00    -0.166 F 
ATOM     20  F   LIG    1      -22.359  81.652  34.978  0.00  0.00    -0.166 F 
ATOM     21  F   LIG    1      -22.288  83.109  36.589  0.00  0.00    -0.166 F 
ENDBRANCH  14  18
ENDBRANCH  11  12
ENDBRANCH   9  11
ENDBRANCH   3   7
BRANCH   1  22
ATOM     22  C   LIG    1      -23.047  77.681  30.524  0.00  0.00    +0.197 C 
ATOM     23  O   LIG    1      -23.130  78.262  29.440  0.00  0.00    -0.287 OA
BRANCH  22  31
ATOM     24  N   LIG    1      -26.220  76.769  32.161  0.00  0.00    -0.326 N 
ATOM     25  C   LIG    1      -25.698  77.597  33.113  0.00  0.00    +0.147 A 
ATOM     26  N   LIG    1      -26.296  77.918  34.268  0.00  0.00    -0.197 NA
ATOM     27  C   LIG    1      -25.561  78.729  35.029  0.00  0.00    +0.214 A 
ATOM     28  N   LIG    1      -24.326  79.173  34.752  0.00  0.00    -0.222 NA
ATOM     29  C   LIG    1      -23.756  78.831  33.569  0.00  0.00    +0.126 A 
ATOM     30  C   LIG    1      -24.452  78.019  32.676  0.00  0.00    +0.048 A 
ATOM     31  C   LIG    1      -24.235  77.474  31.361  0.00  0.00    +0.051 A 
ATOM     32  C   LIG    1      -25.400  76.782  31.056  0.00  0.00    +0.100 A 
BRANCH  27  33
ATOM     33  N   LIG    1      -26.116  79.105  36.235  0.00  0.00    -0.327 N 
ATOM     34  H   LIG    1      -27.117  79.188  36.135  0.00  0.00    +0.145 HD
ATOM     35  H   LIG    1      -25.772  78.500  36.967  0.00  0.00    +0.145 HD
ENDBRANCH  27  33
BRANCH  24  37
ATOM     36  C   LIG    1      -27.356  74.953  33.405  0.00  0.00    +0.033 C 
ATOM     37  C   LIG    1      -27.448  75.981  32.274  0.00  0.00    +0.111 C 
BRANCH  37  38
ATOM     38  C   LIG    1      -28.698  76.855  32.432  0.00  0.00    +0.180 C 
BRANCH  38  39
ATOM     39  O   LIG    1      -28.825  77.790  31.364  0.00  0.00    -0.393 OA
ATOM     40  H   LIG    1      -29.320  78.556  31.713  0.00  0.00    +0.209 HD
ENDBRANCH  38  39
ENDBRANCH  37  38
ENDBRANCH  24  37
ENDBRANCH  22  31
ENDBRANCH   1  22
TORSDOF 10
ENDMDL
MODEL 9
REMARK VINA RESULT:      -6.3      5.769      9.622
REMARK  Name = pdb/CHEMBL3661606.pdb
REMARK                            x       y       z     vdW  Elec       q    Type
REMARK                         _______ _______ _______ _____ _____    ______ ____
ROOT
ATOM      1  C   LIG    1      -34.731  82.921  29.701  0.00  0.00    +0.042 A 
ATOM      2  C   LIG    1      -35.599  83.389  28.706  0.00  0.00    +0.038 A 
ATOM      3  C   LIG    1      -35.454  84.678  28.181  0.00  0.00    +0.052 A 
ATOM      4  C   LIG    1      -34.403  85.449  28.671  0.00  0.00    +0.134 A 
ATOM      5  N   LIG    1      -33.582  85.051  29.675  0.00  0.00    -0.261 NA
ATOM      6  C   LIG    1      -33.793  83.817  30.190  0.00  0.00    +0.122 A 
ENDROOT
BRANCH   3   7
ATOM      7  N   LIG    1      -36.391  85.094  27.209  0.00  0.00    -0.284 N 
ATOM      8  H   LIG    1      -37.157  85.667  27.545  0.00  0.00    +0.155 HD
ATOM      9  C   LIG    1      -36.322  84.876  25.843  0.00  0.00    +0.222 C 
ATOM     10  O   LIG    1      -35.429  84.264  25.265  0.00  0.00    -0.275 OA
BRANCH   9  11
ATOM     11  C   LIG    1      -37.474  85.513  25.073  0.00  0.00    +0.131 C 
BRANCH  11  12
ATOM     12  C   LIG    1      -38.212  84.602  24.113  0.00  0.00    -0.038 A 
ATOM     13  C   LIG    1      -38.559  83.283  24.431  0.00  0.00    +0.016 A 
ATOM     14  C   LIG    1      -39.251  82.465  23.519  0.00  0.00    +0.055 A 
ATOM     15  C   LIG    1      -39.610  82.985  22.271  0.00  0.00    +0.012 A 
ATOM     16  C   LIG    1      -39.280  84.300  21.940  0.00  0.00    +0.001 A 
ATOM     17  C   LIG    1      -38.586  85.099  22.852  0.00  0.00    +0.004 A 
BRANCH  14  18
ATOM     18  C   LIG    1      -39.587  81.047  23.915  0.00  0.00    +0.417 C 
ATOM     19  F   LIG    1      -39.104  80.132  23.031  0.00  0.00    -0.166 F 
ATOM     20  F   LIG    1      -40.932  80.837  23.974  0.00  0.00    -0.166 F 
ATOM     21  F   LIG    1      -39.100  80.686  25.134  0.00  0.00    -0.166 F 
ENDBRANCH  14  18
ENDBRANCH  11  12
ENDBRANCH   9  11
ENDBRANCH   3   7
BRANCH   1  22
ATOM     22  C   LIG    1      -34.875  81.522  30.184  0.00  0.00    +0.197 C 
ATOM     23  O   LIG    1      -34.969  81.347  31.401  0.00  0.00    -0.287 OA
BRANCH  22  31
ATOM     24  N   LIG    1      -34.519  78.655  27.896  0.00  0.00    -0.326 N 
ATOM     25  C   LIG    1      -35.876  78.797  27.880  0.00  0.00    +0.147 A 
ATOM     26  N   LIG    1      -36.722  78.044  27.165  0.00  0.00    -0.197 NA
ATOM     27  C   LIG    1      -38.000  78.378  27.345  0.00  0.00    +0.214 A 
ATOM     28  N   LIG    1      -38.463  79.322  28.177  0.00  0.00    -0.222 NA
ATOM     29  C   LIG    1      -37.575  80.069  28.881  0.00  0.00    +0.126 A 
ATOM     30  C   LIG    1      -36.209  79.833  28.738  0.00  0.00    +0.048 A 
ATOM     31  C   LIG    1      -34.985  80.394  29.250  0.00  0.00    +0.051 A 
ATOM     32  C   LIG    1      -33.969  79.683  28.626  0.00  0.00    +0.100 A 
BRANCH  27  33
ATOM     33  N   LIG    1      -38.930  77.644  26.636  0.00  0.00    -0.327 N 
ATOM     34  H   LIG    1      -38.492  77.245  25.818  0.00  0.00    +0.145 HD
ATOM     35  H   LIG    1      -39.408  77.011  27.262  0.00  0.00    +0.145 HD
ENDBRANCH  27  33
BRANCH  24  37
ATOM     36  C   LIG    1      -32.268  77.955  27.136  0.00  0.00    +0.033 C 
ATOM     37  C   LIG    1      -33.750  77.589  27.254  0.00  0.00    +0.111 C 
BRANCH  37  38
ATOM     38  C   LIG    1      -33.922  76.233  27.951  0.00  0.00    +0.180 C 
BRANCH  38  39
ATOM     39  O   LIG    1      -34.878  75.415  27.282  0.00  0.00    -0.393 OA
ATOM     40  H   LIG    1      -35.740  75.578  27.706  0.00  0.00    +0.209 HD
ENDBRANCH  38  39
ENDBRANCH  37  38
ENDBRANCH  24  37
ENDBRANCH  22  31
ENDBRANCH   1  22
TORSDOF 10
ENDMDL
