MODEL 1
REMARK VINA RESULT:      -5.8      0.000      0.000
REMARK  Name = pdb/CHEMBL3678289.pdb
REMARK                            x       y       z     vdW  Elec       q    Type
REMARK                         _______ _______ _______ _____ _____    ______ ____
ROOT
ATOM      1  C   LIG    1      -30.690  87.481  33.452  0.00  0.00    +0.161 C 
ENDROOT
BRANCH   1   2
ATOM      2  N   LIG    1      -30.935  87.075  32.089  0.00  0.00    -0.293 N 
ATOM      3  C   LIG    1      -31.973  86.265  31.716  0.00  0.00    +0.162 A 
ATOM      4  N   LIG    1      -33.003  85.847  32.480  0.00  0.00    -0.234 NA
ATOM      5  C   LIG    1      -33.789  84.958  31.826  0.00  0.00    +0.130 A 
ATOM      6  C   LIG    1      -33.577  84.482  30.529  0.00  0.00    +0.045 A 
ATOM      7  C   LIG    1      -32.519  84.989  29.775  0.00  0.00    +0.050 A 
ATOM      8  C   LIG    1      -31.691  85.921  30.402  0.00  0.00    +0.111 A 
ATOM      9  N   LIG    1      -30.570  86.567  29.957  0.00  0.00    -0.213 NA
ATOM     10  C   LIG    1      -30.135  87.256  30.985  0.00  0.00    +0.195 A 
BRANCH  10  11
ATOM     11  N   LIG    1      -29.049  88.039  30.969  0.00  0.00    -0.329 N 
ATOM     12  H   LIG    1      -28.712  88.321  31.885  0.00  0.00    +0.145 HD
ATOM     13  H   LIG    1      -28.886  88.736  30.254  0.00  0.00    +0.145 HD
ENDBRANCH  10  11
BRANCH   6  14
ATOM     14  C   LIG    1      -34.363  83.417  30.029  0.00  0.00    -0.065 C 
ATOM     15  C   LIG    1      -34.936  82.471  29.511  0.00  0.00    -0.095 C 
BRANCH  15  16
ATOM     16  C   LIG    1      -35.503  81.306  28.840  0.00  0.00    +0.117 C 
BRANCH  16  17
ATOM     17  C   LIG    1      -34.404  80.352  28.366  0.00  0.00    +0.168 C 
BRANCH  17  18
ATOM     18  O   LIG    1      -34.097  80.553  26.988  0.00  0.00    -0.394 OA
ATOM     19  H   LIG    1      -33.929  79.674  26.604  0.00  0.00    +0.209 HD
ENDBRANCH  17  18
ENDBRANCH  16  17
ENDBRANCH  15  16
ENDBRANCH   6  14
ENDBRANCH   1   2
BRANCH   1  23
ATOM     20  C   LIG    1      -27.457  85.577  35.619  0.00  0.00    +0.162 A 
ATOM     21  C   LIG    1      -27.360  86.901  35.180  0.00  0.00    +0.162 A 
ATOM     22  C   LIG    1      -28.425  87.440  34.437  0.00  0.00    +0.054 A 
ATOM     23  C   LIG    1      -29.607  86.737  34.169  0.00  0.00    -0.024 A 
ATOM     24  C   LIG    1      -29.664  85.419  34.541  0.00  0.00    +0.009 A 
ATOM     25  C   LIG    1      -28.548  84.859  35.142  0.00  0.00    +0.050 A 
BRANCH  21  26
ATOM     26  O   LIG    1      -26.258  87.658  35.496  0.00  0.00    -0.491 OA
ATOM     27  C   LIG    1      -26.552  88.992  35.928  0.00  0.00    +0.277 C 
ENDBRANCH  21  26
BRANCH  20  28
ATOM     28  O   LIG    1      -26.484  84.996  36.385  0.00  0.00    -0.484 OA
BRANCH  28  29
ATOM     29  C   LIG    1      -26.672  83.719  37.073  0.00  0.00    +0.266 C 
BRANCH  29  33
ATOM     30  C   LIG    1      -23.924  80.518  36.597  0.00  0.00    +0.214 A 
ATOM     31  N   LIG    1      -25.140  80.266  37.125  0.00  0.00    -0.221 NA
ATOM     32  C   LIG    1      -25.953  81.325  37.331  0.00  0.00    +0.121 A 
ATOM     33  C   LIG    1      -25.593  82.646  37.089  0.00  0.00    +0.008 A 
ATOM     34  C   LIG    1      -24.279  82.880  36.639  0.00  0.00    +0.013 A 
ATOM     35  C   LIG    1      -23.464  81.792  36.310  0.00  0.00    +0.067 A 
BRANCH  30  37
ATOM     36  C   LIG    1      -23.185  78.367  37.109  0.00  0.00    +0.279 C 
ATOM     37  O   LIG    1      -23.133  79.463  36.201  0.00  0.00    -0.480 OA
ENDBRANCH  30  37
ENDBRANCH  29  33
ENDBRANCH  28  29
ENDBRANCH  20  28
ENDBRANCH   1  23
TORSDOF 12
ENDMDL
MODEL 2
REMARK VINA RESULT:      -5.8     11.886     19.227
REMARK  Name = pdb/CHEMBL3678289.pdb
REMARK                            x       y       z     vdW  Elec       q    Type
REMARK                         _______ _______ _______ _____ _____    ______ ____
ROOT
ATOM      1  C   LIG    1      -41.138  74.963  23.941  0.00  0.00    +0.161 C 
ENDROOT
BRANCH   1   2
ATOM      2  N   LIG    1      -40.660  75.450  25.213  0.00  0.00    -0.293 N 
ATOM      3  C   LIG    1      -39.377  75.875  25.427  0.00  0.00    +0.162 A 
ATOM      4  N   LIG    1      -38.411  76.065  24.506  0.00  0.00    -0.234 NA
ATOM      5  C   LIG    1      -37.222  76.378  25.077  0.00  0.00    +0.130 A 
ATOM      6  C   LIG    1      -36.977  76.471  26.449  0.00  0.00    +0.045 A 
ATOM      7  C   LIG    1      -38.031  76.309  27.349  0.00  0.00    +0.050 A 
ATOM      8  C   LIG    1      -39.279  76.002  26.806  0.00  0.00    +0.111 A 
ATOM      9  N   LIG    1      -40.482  75.750  27.407  0.00  0.00    -0.213 NA
ATOM     10  C   LIG    1      -41.296  75.425  26.432  0.00  0.00    +0.195 A 
BRANCH  10  11
ATOM     11  N   LIG    1      -42.586  75.105  26.596  0.00  0.00    -0.329 N 
ATOM     12  H   LIG    1      -42.756  74.139  26.867  0.00  0.00    +0.145 HD
ATOM     13  H   LIG    1      -43.324  75.492  26.023  0.00  0.00    +0.145 HD
ENDBRANCH  10  11
BRANCH   6  14
ATOM     14  C   LIG    1      -35.653  76.621  26.922  0.00  0.00    -0.065 C 
ATOM     15  C   LIG    1      -34.468  76.727  27.200  0.00  0.00    -0.095 C 
BRANCH  15  16
ATOM     16  C   LIG    1      -33.028  76.863  27.403  0.00  0.00    +0.117 C 
BRANCH  16  17
ATOM     17  C   LIG    1      -32.557  78.282  27.078  0.00  0.00    +0.168 C 
BRANCH  17  18
ATOM     18  O   LIG    1      -32.534  78.515  25.671  0.00  0.00    -0.394 OA
ATOM     19  H   LIG    1      -33.013  79.348  25.514  0.00  0.00    +0.209 HD
ENDBRANCH  17  18
ENDBRANCH  16  17
ENDBRANCH  15  16
ENDBRANCH   6  14
ENDBRANCH   1   2
BRANCH   1  23
ATOM     20  C   LIG    1      -40.672  70.772  22.948  0.00  0.00    +0.162 A 
ATOM     21  C   LIG    1      -41.745  71.521  22.458  0.00  0.00    +0.162 A 
ATOM     22  C   LIG    1      -41.864  72.863  22.863  0.00  0.00    +0.054 A 
ATOM     23  C   LIG    1      -40.925  73.505  23.681  0.00  0.00    -0.024 A 
ATOM     24  C   LIG    1      -39.916  72.743  24.211  0.00  0.00    +0.009 A 
ATOM     25  C   LIG    1      -39.896  71.389  23.922  0.00  0.00    +0.050 A 
BRANCH  21  26
ATOM     26  O   LIG    1      -42.642  70.961  21.582  0.00  0.00    -0.491 OA
ATOM     27  C   LIG    1      -43.101  71.841  20.549  0.00  0.00    +0.277 C 
ENDBRANCH  21  26
BRANCH  20  28
ATOM     28  O   LIG    1      -40.462  69.475  22.566  0.00  0.00    -0.484 OA
BRANCH  28  29
ATOM     29  C   LIG    1      -39.666  69.112  21.394  0.00  0.00    +0.266 C 
BRANCH  29  33
ATOM     30  C   LIG    1      -35.686  67.794  22.059  0.00  0.00    +0.214 A 
ATOM     31  N   LIG    1      -36.275  68.590  22.976  0.00  0.00    -0.221 NA
ATOM     32  C   LIG    1      -37.512  69.048  22.687  0.00  0.00    +0.121 A 
ATOM     33  C   LIG    1      -38.180  68.802  21.493  0.00  0.00    +0.008 A 
ATOM     34  C   LIG    1      -37.490  68.056  20.516  0.00  0.00    +0.013 A 
ATOM     35  C   LIG    1      -36.260  67.476  20.841  0.00  0.00    +0.067 A 
BRANCH  30  37
ATOM     36  C   LIG    1      -34.507  65.783  22.002  0.00  0.00    +0.279 C 
ATOM     37  O   LIG    1      -34.508  67.156  22.382  0.00  0.00    -0.480 OA
ENDBRANCH  30  37
ENDBRANCH  29  33
ENDBRANCH  28  29
ENDBRANCH  20  28
ENDBRANCH   1  23
TORSDOF 12
ENDMDL
MODEL 3
REMARK VINA RESULT:      -5.7     18.938     23.948
REMARK  Name = pdb/CHEMBL3678289.pdb
REMARK                            x       y       z     vdW  Elec       q    Type
REMARK                         _______ _______ _______ _____ _____    ______ ____
ROOT
ATOM      1  C   LIG    1      -28.071  77.695  10.882  0.00  0.00    +0.161 C 
ENDROOT
BRANCH   1   2
ATOM      2  N   LIG    1      -27.754  77.650  12.290  0.00  0.00    -0.293 N 
ATOM      3  C   LIG    1      -26.893  78.521  12.900  0.00  0.00    +0.162 A 
ATOM      4  N   LIG    1      -26.332  79.626  12.370  0.00  0.00    -0.234 NA
ATOM      5  C   LIG    1      -25.435  80.193  13.214  0.00  0.00    +0.130 A 
ATOM      6  C   LIG    1      -25.082  79.705  14.475  0.00  0.00    +0.045 A 
ATOM      7  C   LIG    1      -25.734  78.582  14.985  0.00  0.00    +0.050 A 
ATOM      8  C   LIG    1      -26.679  77.974  14.157  0.00  0.00    +0.111 A 
ATOM      9  N   LIG    1      -27.449  76.858  14.343  0.00  0.00    -0.213 NA
ATOM     10  C   LIG    1      -28.089  76.685  13.211  0.00  0.00    +0.195 A 
BRANCH  10  11
ATOM     11  N   LIG    1      -28.957  75.694  12.975  0.00  0.00    -0.329 N 
ATOM     12  H   LIG    1      -29.874  75.820  13.396  0.00  0.00    +0.145 HD
ATOM     13  H   LIG    1      -28.678  74.723  12.913  0.00  0.00    +0.145 HD
ENDBRANCH  10  11
BRANCH   6  14
ATOM     14  C   LIG    1      -24.000  80.281  15.178  0.00  0.00    -0.065 C 
ATOM     15  C   LIG    1      -23.153  80.796  15.892  0.00  0.00    -0.095 C 
BRANCH  15  16
ATOM     16  C   LIG    1      -22.223  81.393  16.847  0.00  0.00    +0.117 C 
BRANCH  16  17
ATOM     17  C   LIG    1      -22.447  82.903  16.965  0.00  0.00    +0.168 C 
BRANCH  17  18
ATOM     18  O   LIG    1      -22.751  83.282  18.305  0.00  0.00    -0.394 OA
ATOM     19  H   LIG    1      -23.701  83.118  18.438  0.00  0.00    +0.209 HD
ENDBRANCH  17  18
ENDBRANCH  16  17
ENDBRANCH  15  16
ENDBRANCH   6  14
ENDBRANCH   1   2
BRANCH   1  23
ATOM     20  C   LIG    1      -31.628  79.973   9.923  0.00  0.00    +0.162 A 
ATOM     21  C   LIG    1      -31.687  78.597  10.159  0.00  0.00    +0.162 A 
ATOM     22  C   LIG    1      -30.486  77.910  10.413  0.00  0.00    +0.054 A 
ATOM     23  C   LIG    1      -29.242  78.547  10.506  0.00  0.00    -0.024 A 
ATOM     24  C   LIG    1      -29.186  79.884  10.203  0.00  0.00    +0.009 A 
ATOM     25  C   LIG    1      -30.353  80.515   9.810  0.00  0.00    +0.050 A 
BRANCH  21  26
ATOM     26  O   LIG    1      -32.895  77.944  10.168  0.00  0.00    -0.491 OA
ATOM     27  C   LIG    1      -32.856  76.618  10.710  0.00  0.00    +0.277 C 
ENDBRANCH  21  26
BRANCH  20  28
ATOM     28  O   LIG    1      -32.756  80.719   9.712  0.00  0.00    -0.484 OA
BRANCH  28  29
ATOM     29  C   LIG    1      -33.521  81.326  10.801  0.00  0.00    +0.266 C 
BRANCH  29  33
ATOM     30  C   LIG    1      -34.509  85.405  11.438  0.00  0.00    +0.214 A 
ATOM     31  N   LIG    1      -35.477  84.472  11.542  0.00  0.00    -0.221 NA
ATOM     32  C   LIG    1      -35.136  83.197  11.255  0.00  0.00    +0.121 A 
ATOM     33  C   LIG    1      -33.880  82.804  10.807  0.00  0.00    +0.008 A 
ATOM     34  C   LIG    1      -32.924  83.821  10.608  0.00  0.00    +0.013 A 
ATOM     35  C   LIG    1      -33.221  85.127  11.010  0.00  0.00    +0.067 A 
BRANCH  30  37
ATOM     36  C   LIG    1      -33.570  87.354  12.308  0.00  0.00    +0.279 C 
ATOM     37  O   LIG    1      -34.755  86.682  11.892  0.00  0.00    -0.480 OA
ENDBRANCH  30  37
ENDBRANCH  29  33
ENDBRANCH  28  29
ENDBRANCH  20  28
ENDBRANCH   1  23
TORSDOF 12
ENDMDL
MODEL 4
REMARK VINA RESULT:      -5.7     18.891     22.677
REMARK  Name = pdb/CHEMBL3678289.pdb
REMARK                            x       y       z     vdW  Elec       q    Type
REMARK                         _______ _______ _______ _____ _____    ______ ____
ROOT
ATOM      1  C   LIG    1      -36.130  66.006  20.096  0.00  0.00    +0.161 C 
ENDROOT
BRANCH   1   2
ATOM      2  N   LIG    1      -35.348  66.398  18.948  0.00  0.00    -0.293 N 
ATOM      3  C   LIG    1      -33.995  66.602  18.989  0.00  0.00    +0.162 A 
ATOM      4  N   LIG    1      -33.155  66.335  20.008  0.00  0.00    -0.234 NA
ATOM      5  C   LIG    1      -31.897  66.771  19.755  0.00  0.00    +0.130 A 
ATOM      6  C   LIG    1      -31.485  67.447  18.604  0.00  0.00    +0.045 A 
ATOM      7  C   LIG    1      -32.394  67.652  17.565  0.00  0.00    +0.050 A 
ATOM      8  C   LIG    1      -33.699  67.204  17.774  0.00  0.00    +0.111 A 
ATOM      9  N   LIG    1      -34.812  67.284  16.983  0.00  0.00    -0.213 NA
ATOM     10  C   LIG    1      -35.789  66.791  17.707  0.00  0.00    +0.195 A 
BRANCH  10  11
ATOM     11  N   LIG    1      -37.058  66.684  17.295  0.00  0.00    -0.329 N 
ATOM     12  H   LIG    1      -37.588  67.551  17.313  0.00  0.00    +0.145 HD
ATOM     13  H   LIG    1      -37.626  65.866  17.477  0.00  0.00    +0.145 HD
ENDBRANCH  10  11
BRANCH   6  14
ATOM     14  C   LIG    1      -30.191  68.013  18.541  0.00  0.00    -0.065 C 
ATOM     15  C   LIG    1      -29.135  68.621  18.450  0.00  0.00    -0.095 C 
BRANCH  15  16
ATOM     16  C   LIG    1      -27.945  69.459  18.341  0.00  0.00    +0.117 C 
BRANCH  16  17
ATOM     17  C   LIG    1      -27.470  69.925  19.719  0.00  0.00    +0.168 C 
BRANCH  17  18
ATOM     18  O   LIG    1      -28.550  70.441  20.495  0.00  0.00    -0.394 OA
ATOM     19  H   LIG    1      -28.681  71.366  20.220  0.00  0.00    +0.209 HD
ENDBRANCH  17  18
ENDBRANCH  16  17
ENDBRANCH  15  16
ENDBRANCH   6  14
ENDBRANCH   1   2
BRANCH   1  23
ATOM     20  C   LIG    1      -36.995  69.220  22.870  0.00  0.00    +0.162 A 
ATOM     21  C   LIG    1      -35.910  68.362  23.066  0.00  0.00    +0.162 A 
ATOM     22  C   LIG    1      -35.718  67.307  22.155  0.00  0.00    +0.054 A 
ATOM     23  C   LIG    1      -36.522  67.112  21.025  0.00  0.00    -0.024 A 
ATOM     24  C   LIG    1      -37.625  67.916  20.881  0.00  0.00    +0.009 A 
ATOM     25  C   LIG    1      -37.884  68.854  21.865  0.00  0.00    +0.050 A 
BRANCH  21  26
ATOM     26  O   LIG    1      -35.041  68.567  24.109  0.00  0.00    -0.491 OA
ATOM     27  C   LIG    1      -34.815  67.420  24.936  0.00  0.00    +0.277 C 
ENDBRANCH  21  26
BRANCH  20  28
ATOM     28  O   LIG    1      -37.223  70.295  23.685  0.00  0.00    -0.484 OA
BRANCH  28  29
ATOM     29  C   LIG    1      -38.500  70.524  24.359  0.00  0.00    +0.266 C 
BRANCH  29  33
ATOM     30  C   LIG    1      -41.644  73.227  23.448  0.00  0.00    +0.214 A 
ATOM     31  N   LIG    1      -41.725  71.955  23.006  0.00  0.00    -0.221 NA
ATOM     32  C   LIG    1      -40.668  71.151  23.251  0.00  0.00    +0.121 A 
ATOM     33  C   LIG    1      -39.494  71.567  23.871  0.00  0.00    +0.008 A 
ATOM     34  C   LIG    1      -39.404  72.929  24.222  0.00  0.00    +0.013 A 
ATOM     35  C   LIG    1      -40.530  73.747  24.083  0.00  0.00    +0.067 A 
BRANCH  30  37
ATOM     36  C   LIG    1      -43.501  73.849  22.182  0.00  0.00    +0.279 C 
ATOM     37  O   LIG    1      -42.761  74.031  23.385  0.00  0.00    -0.480 OA
ENDBRANCH  30  37
ENDBRANCH  29  33
ENDBRANCH  28  29
ENDBRANCH  20  28
ENDBRANCH   1  23
TORSDOF 12
ENDMDL
MODEL 5
REMARK VINA RESULT:      -5.5      8.232     12.978
REMARK  Name = pdb/CHEMBL3678289.pdb
REMARK                            x       y       z     vdW  Elec       q    Type
REMARK                         _______ _______ _______ _____ _____    ______ ____
ROOT
ATOM      1  C   LIG    1      -22.375  78.276  36.056  0.00  0.00    +0.161 C 
ENDROOT
BRANCH   1   2
ATOM      2  N   LIG    1      -22.663  79.689  36.112  0.00  0.00    -0.293 N 
ATOM      3  C   LIG    1      -21.766  80.627  36.545  0.00  0.00    +0.162 A 
ATOM      4  N   LIG    1      -20.461  80.445  36.832  0.00  0.00    -0.234 NA
ATOM      5  C   LIG    1      -19.895  81.563  37.348  0.00  0.00    +0.130 A 
ATOM      6  C   LIG    1      -20.554  82.769  37.599  0.00  0.00    +0.045 A 
ATOM      7  C   LIG    1      -21.895  82.908  37.237  0.00  0.00    +0.050 A 
ATOM      8  C   LIG    1      -22.516  81.787  36.685  0.00  0.00    +0.111 A 
ATOM      9  N   LIG    1      -23.804  81.589  36.268  0.00  0.00    -0.213 NA
ATOM     10  C   LIG    1      -23.868  80.324  35.925  0.00  0.00    +0.195 A 
BRANCH  10  11
ATOM     11  N   LIG    1      -24.966  79.721  35.454  0.00  0.00    -0.329 N 
ATOM     12  H   LIG    1      -25.099  79.800  34.449  0.00  0.00    +0.145 HD
ATOM     13  H   LIG    1      -25.837  79.688  35.968  0.00  0.00    +0.145 HD
ENDBRANCH  10  11
BRANCH   6  14
ATOM     14  C   LIG    1      -19.899  83.799  38.312  0.00  0.00    -0.065 C 
ATOM     15  C   LIG    1      -19.279  84.588  39.008  0.00  0.00    -0.095 C 
BRANCH  15  16
ATOM     16  C   LIG    1      -18.470  85.429  39.886  0.00  0.00    +0.117 C 
BRANCH  16  17
ATOM     17  C   LIG    1      -17.284  86.034  39.131  0.00  0.00    +0.168 C 
BRANCH  17  18
ATOM     18  O   LIG    1      -17.646  86.404  37.802  0.00  0.00    -0.394 OA
ATOM     19  H   LIG    1      -17.509  85.618  37.243  0.00  0.00    +0.209 HD
ENDBRANCH  17  18
ENDBRANCH  16  17
ENDBRANCH  15  16
ENDBRANCH   6  14
ENDBRANCH   1   2
BRANCH   1  23
ATOM     20  C   LIG    1      -20.947  76.585  32.331  0.00  0.00    +0.162 A 
ATOM     21  C   LIG    1      -21.359  75.771  33.390  0.00  0.00    +0.162 A 
ATOM     22  C   LIG    1      -21.762  76.386  34.589  0.00  0.00    +0.054 A 
ATOM     23  C   LIG    1      -21.831  77.774  34.754  0.00  0.00    -0.024 A 
ATOM     24  C   LIG    1      -21.358  78.563  33.737  0.00  0.00    +0.009 A 
ATOM     25  C   LIG    1      -20.827  77.940  32.619  0.00  0.00    +0.050 A 
BRANCH  21  26
ATOM     26  O   LIG    1      -21.394  74.406  33.244  0.00  0.00    -0.491 OA
ATOM     27  C   LIG    1      -22.630  73.793  33.631  0.00  0.00    +0.277 C 
ENDBRANCH  21  26
BRANCH  20  28
ATOM     28  O   LIG    1      -20.584  76.066  31.119  0.00  0.00    -0.484 OA
BRANCH  28  29
ATOM     29  C   LIG    1      -21.456  76.104  29.946  0.00  0.00    +0.266 C 
BRANCH  29  33
ATOM     30  C   LIG    1      -25.465  77.181  30.837  0.00  0.00    +0.214 A 
ATOM     31  N   LIG    1      -25.093  75.889  30.946  0.00  0.00    -0.221 NA
ATOM     32  C   LIG    1      -23.831  75.578  30.578  0.00  0.00    +0.121 A 
ATOM     33  C   LIG    1      -22.924  76.489  30.045  0.00  0.00    +0.008 A 
ATOM     34  C   LIG    1      -23.383  77.807  29.847  0.00  0.00    +0.013 A 
ATOM     35  C   LIG    1      -24.643  78.173  30.329  0.00  0.00    +0.067 A 
BRANCH  30  37
ATOM     36  C   LIG    1      -27.079  76.774  32.469  0.00  0.00    +0.279 C 
ATOM     37  O   LIG    1      -26.672  77.579  31.367  0.00  0.00    -0.480 OA
ENDBRANCH  30  37
ENDBRANCH  29  33
ENDBRANCH  28  29
ENDBRANCH  20  28
ENDBRANCH   1  23
TORSDOF 12
ENDMDL
MODEL 6
REMARK VINA RESULT:      -5.4      6.515     11.602
REMARK  Name = pdb/CHEMBL3678289.pdb
REMARK                            x       y       z     vdW  Elec       q    Type
REMARK                         _______ _______ _______ _____ _____    ______ ____
ROOT
ATOM      1  C   LIG    1      -33.303  78.158  27.666  0.00  0.00    +0.161 C 
ENDROOT
BRANCH   1   2
ATOM      2  N   LIG    1      -33.722  76.799  27.914  0.00  0.00    -0.293 N 
ATOM      3  C   LIG    1      -32.950  75.877  28.566  0.00  0.00    +0.162 A 
ATOM      4  N   LIG    1      -31.785  76.090  29.209  0.00  0.00    -0.234 NA
ATOM      5  C   LIG    1      -31.227  74.933  29.642  0.00  0.00    +0.130 A 
ATOM      6  C   LIG    1      -31.747  73.652  29.441  0.00  0.00    +0.045 A 
ATOM      7  C   LIG    1      -32.982  73.503  28.807  0.00  0.00    +0.050 A 
ATOM      8  C   LIG    1      -33.602  74.670  28.359  0.00  0.00    +0.111 A 
ATOM      9  N   LIG    1      -34.776  74.858  27.682  0.00  0.00    -0.213 NA
ATOM     10  C   LIG    1      -34.829  76.144  27.429  0.00  0.00    +0.195 A 
BRANCH  10  11
ATOM     11  N   LIG    1      -35.831  76.748  26.778  0.00  0.00    -0.329 N 
ATOM     12  H   LIG    1      -36.125  76.286  25.922  0.00  0.00    +0.145 HD
ATOM     13  H   LIG    1      -35.934  77.754  26.741  0.00  0.00    +0.145 HD
ENDBRANCH  10  11
BRANCH   6  14
ATOM     14  C   LIG    1      -30.978  72.515  29.779  0.00  0.00    -0.065 C 
ATOM     15  C   LIG    1      -30.411  71.505  30.166  0.00  0.00    -0.095 C 
BRANCH  15  16
ATOM     16  C   LIG    1      -29.845  70.266  30.691  0.00  0.00    +0.117 C 
BRANCH  16  17
ATOM     17  C   LIG    1      -28.315  70.321  30.706  0.00  0.00    +0.168 C 
BRANCH  17  18
ATOM     18  O   LIG    1      -27.746  69.200  30.033  0.00  0.00    -0.394 OA
ATOM     19  H   LIG    1      -28.208  68.408  30.362  0.00  0.00    +0.209 HD
ENDBRANCH  17  18
ENDBRANCH  16  17
ENDBRANCH  15  16
ENDBRANCH   6  14
ENDBRANCH   1   2
BRANCH   1  23
ATOM     20  C   LIG    1      -35.283  81.071  30.189  0.00  0.00    +0.162 A 
ATOM     21  C   LIG    1      -35.079  79.756  30.617  0.00  0.00    +0.162 A 
ATOM     22  C   LIG    1      -34.476  78.849  29.727  0.00  0.00    +0.054 A 
ATOM     23  C   LIG    1      -34.013  79.213  28.457  0.00  0.00    -0.024 A 
ATOM     24  C   LIG    1      -34.281  80.485  28.020  0.00  0.00    +0.009 A 
ATOM     25  C   LIG    1      -35.006  81.323  28.850  0.00  0.00    +0.050 A 
BRANCH  21  26
ATOM     26  O   LIG    1      -35.435  79.375  31.888  0.00  0.00    -0.491 OA
ATOM     27  C   LIG    1      -34.338  79.005  32.732  0.00  0.00    +0.277 C 
ENDBRANCH  21  26
BRANCH  20  28
ATOM     28  O   LIG    1      -35.821  82.023  31.011  0.00  0.00    -0.484 OA
BRANCH  28  29
ATOM     29  C   LIG    1      -35.876  83.440  30.655  0.00  0.00    +0.266 C 
BRANCH  29  33
ATOM     30  C   LIG    1      -32.085  85.323  30.320  0.00  0.00    +0.214 A 
ATOM     31  N   LIG    1      -32.391  84.663  31.456  0.00  0.00    -0.221 NA
ATOM     32  C   LIG    1      -33.636  84.146  31.551  0.00  0.00    +0.121 A 
ATOM     33  C   LIG    1      -34.624  84.303  30.586  0.00  0.00    +0.008 A 
ATOM     34  C   LIG    1      -34.302  85.089  29.461  0.00  0.00    +0.013 A 
ATOM     35  C   LIG    1      -32.987  85.533  29.290  0.00  0.00    +0.067 A 
BRANCH  30  37
ATOM     36  C   LIG    1      -30.531  87.052  30.499  0.00  0.00    +0.279 C 
ATOM     37  O   LIG    1      -30.781  85.708  30.098  0.00  0.00    -0.480 OA
ENDBRANCH  30  37
ENDBRANCH  29  33
ENDBRANCH  28  29
ENDBRANCH  20  28
ENDBRANCH   1  23
TORSDOF 12
ENDMDL
MODEL 7
REMARK VINA RESULT:      -5.4      7.979     11.174
REMARK  Name = pdb/CHEMBL3678289.pdb
REMARK                            x       y       z     vdW  Elec       q    Type
REMARK                         _______ _______ _______ _____ _____    ______ ____
ROOT
ATOM      1  C   LIG    1      -20.235  79.458  35.953  0.00  0.00    +0.161 C 
ENDROOT
BRANCH   1   2
ATOM      2  N   LIG    1      -21.544  80.064  35.942  0.00  0.00    -0.293 N 
ATOM      3  C   LIG    1      -22.710  79.348  35.986  0.00  0.00    +0.162 A 
ATOM      4  N   LIG    1      -22.852  78.025  36.199  0.00  0.00    -0.234 NA
ATOM      5  C   LIG    1      -24.140  77.626  36.060  0.00  0.00    +0.130 A 
ATOM      6  C   LIG    1      -25.214  78.447  35.708  0.00  0.00    +0.045 A 
ATOM      7  C   LIG    1      -25.008  79.818  35.546  0.00  0.00    +0.050 A 
ATOM      8  C   LIG    1      -23.699  80.278  35.697  0.00  0.00    +0.111 A 
ATOM      9  N   LIG    1      -23.169  81.533  35.570  0.00  0.00    -0.213 NA
ATOM     10  C   LIG    1      -21.875  81.381  35.725  0.00  0.00    +0.195 A 
BRANCH  10  11
ATOM     11  N   LIG    1      -20.984  82.378  35.676  0.00  0.00    -0.329 N 
ATOM     12  H   LIG    1      -20.872  82.895  36.544  0.00  0.00    +0.145 HD
ATOM     13  H   LIG    1      -20.846  82.951  34.852  0.00  0.00    +0.145 HD
ENDBRANCH  10  11
BRANCH   6  14
ATOM     14  C   LIG    1      -26.474  77.876  35.412  0.00  0.00    -0.065 C 
ATOM     15  C   LIG    1      -27.607  77.514  35.135  0.00  0.00    -0.095 C 
BRANCH  15  16
ATOM     16  C   LIG    1      -28.981  77.201  34.754  0.00  0.00    +0.117 C 
BRANCH  16  17
ATOM     17  C   LIG    1      -29.071  76.823  33.274  0.00  0.00    +0.168 C 
BRANCH  17  18
ATOM     18  O   LIG    1      -29.430  77.945  32.470  0.00  0.00    -0.394 OA
ATOM     19  H   LIG    1      -29.258  77.696  31.544  0.00  0.00    +0.209 HD
ENDBRANCH  17  18
ENDBRANCH  16  17
ENDBRANCH  15  16
ENDBRANCH   6  14
ENDBRANCH   1   2
BRANCH   1  23
ATOM     20  C   LIG    1      -19.094  77.322  32.361  0.00  0.00    +0.162 A 
ATOM     21  C   LIG    1      -19.184  76.673  33.595  0.00  0.00    +0.162 A 
ATOM     22  C   LIG    1      -19.509  77.438  34.731  0.00  0.00    +0.054 A 
ATOM     23  C   LIG    1      -19.809  78.805  34.675  0.00  0.00    -0.024 A 
ATOM     24  C   LIG    1      -19.650  79.445  33.473  0.00  0.00    +0.009 A 
ATOM     25  C   LIG    1      -19.186  78.709  32.396  0.00  0.00    +0.050 A 
BRANCH  21  26
ATOM     26  O   LIG    1      -18.986  75.317  33.685  0.00  0.00    -0.491 OA
ATOM     27  C   LIG    1      -20.004  74.609  34.403  0.00  0.00    +0.277 C 
ENDBRANCH  21  26
BRANCH  20  28
ATOM     28  O   LIG    1      -18.828  76.641  31.204  0.00  0.00    -0.484 OA
BRANCH  28  29
ATOM     29  C   LIG    1      -19.858  76.314  30.220  0.00  0.00    +0.266 C 
BRANCH  29  33
ATOM     30  C   LIG    1      -24.073  76.800  30.389  0.00  0.00    +0.214 A 
ATOM     31  N   LIG    1      -23.325  77.761  29.808  0.00  0.00    -0.221 NA
ATOM     32  C   LIG    1      -21.984  77.603  29.846  0.00  0.00    +0.121 A 
ATOM     33  C   LIG    1      -21.336  76.554  30.490  0.00  0.00    +0.008 A 
ATOM     34  C   LIG    1      -22.146  75.628  31.177  0.00  0.00    +0.013 A 
ATOM     35  C   LIG    1      -23.537  75.709  31.052  0.00  0.00    +0.067 A 
BRANCH  30  37
ATOM     36  C   LIG    1      -26.146  76.617  31.440  0.00  0.00    +0.279 C 
ATOM     37  O   LIG    1      -25.440  76.820  30.220  0.00  0.00    -0.480 OA
ENDBRANCH  30  37
ENDBRANCH  29  33
ENDBRANCH  28  29
ENDBRANCH  20  28
ENDBRANCH   1  23
TORSDOF 12
ENDMDL
MODEL 8
REMARK VINA RESULT:      -5.4     12.498     18.754
REMARK  Name = pdb/CHEMBL3678289.pdb
REMARK                            x       y       z     vdW  Elec       q    Type
REMARK                         _______ _______ _______ _____ _____    ______ ____
ROOT
ATOM      1  C   LIG    1      -38.996  72.268  25.556  0.00  0.00    +0.161 C 
ENDROOT
BRANCH   1   2
ATOM      2  N   LIG    1      -38.158  71.397  24.767  0.00  0.00    -0.293 N 
ATOM      3  C   LIG    1      -38.631  70.604  23.757  0.00  0.00    +0.162 A 
ATOM      4  N   LIG    1      -39.870  70.603  23.226  0.00  0.00    -0.234 NA
ATOM      5  C   LIG    1      -40.033  69.607  22.321  0.00  0.00    +0.130 A 
ATOM      6  C   LIG    1      -39.070  68.656  21.975  0.00  0.00    +0.045 A 
ATOM      7  C   LIG    1      -37.791  68.740  22.526  0.00  0.00    +0.050 A 
ATOM      8  C   LIG    1      -37.572  69.761  23.452  0.00  0.00    +0.111 A 
ATOM      9  N   LIG    1      -36.463  70.085  24.184  0.00  0.00    -0.213 NA
ATOM     10  C   LIG    1      -36.837  71.071  24.964  0.00  0.00    +0.195 A 
BRANCH  10  11
ATOM     11  N   LIG    1      -36.038  71.687  25.844  0.00  0.00    -0.329 N 
ATOM     12  H   LIG    1      -36.327  71.603  26.815  0.00  0.00    +0.145 HD
ATOM     13  H   LIG    1      -35.572  72.562  25.643  0.00  0.00    +0.145 HD
ENDBRANCH  10  11
BRANCH   6  14
ATOM     14  C   LIG    1      -39.423  67.558  21.157  0.00  0.00    -0.065 C 
ATOM     15  C   LIG    1      -39.649  66.667  20.352  0.00  0.00    -0.095 C 
BRANCH  15  16
ATOM     16  C   LIG    1      -39.819  65.650  19.318  0.00  0.00    +0.117 C 
BRANCH  16  17
ATOM     17  C   LIG    1      -41.215  65.026  19.383  0.00  0.00    +0.168 C 
BRANCH  17  18
ATOM     18  O   LIG    1      -42.197  65.984  19.773  0.00  0.00    -0.394 OA
ATOM     19  H   LIG    1      -43.052  65.670  19.427  0.00  0.00    +0.209 HD
ENDBRANCH  17  18
ENDBRANCH  16  17
ENDBRANCH  15  16
ENDBRANCH   6  14
ENDBRANCH   1   2
BRANCH   1  23
ATOM     20  C   LIG    1      -38.958  76.398  24.248  0.00  0.00    +0.162 A 
ATOM     21  C   LIG    1      -37.973  75.896  25.103  0.00  0.00    +0.162 A 
ATOM     22  C   LIG    1      -38.075  74.560  25.530  0.00  0.00    +0.054 A 
ATOM     23  C   LIG    1      -39.079  73.688  25.091  0.00  0.00    -0.024 A 
ATOM     24  C   LIG    1      -40.079  74.208  24.309  0.00  0.00    +0.009 A 
ATOM     25  C   LIG    1      -40.044  75.562  24.017  0.00  0.00    +0.050 A 
BRANCH  21  26
ATOM     26  O   LIG    1      -36.919  76.688  25.489  0.00  0.00    -0.491 OA
ATOM     27  C   LIG    1      -36.294  76.296  26.717  0.00  0.00    +0.277 C 
ENDBRANCH  21  26
BRANCH  20  28
ATOM     28  O   LIG    1      -38.905  77.672  23.752  0.00  0.00    -0.484 OA
BRANCH  28  29
ATOM     29  C   LIG    1      -39.998  78.630  23.907  0.00  0.00    +0.266 C 
BRANCH  29  33
ATOM     30  C   LIG    1      -38.723  82.493  25.123  0.00  0.00    +0.214 A 
ATOM     31  N   LIG    1      -39.002  81.568  26.064  0.00  0.00    -0.221 NA
ATOM     32  C   LIG    1      -39.478  80.379  25.636  0.00  0.00    +0.121 A 
ATOM     33  C   LIG    1      -39.751  80.078  24.306  0.00  0.00    +0.008 A 
ATOM     34  C   LIG    1      -39.548  81.105  23.363  0.00  0.00    +0.013 A 
ATOM     35  C   LIG    1      -38.946  82.299  23.770  0.00  0.00    +0.067 A 
BRANCH  30  37
ATOM     36  C   LIG    1      -36.652  83.539  25.361  0.00  0.00    +0.279 C 
ATOM     37  O   LIG    1      -38.067  83.648  25.490  0.00  0.00    -0.480 OA
ENDBRANCH  30  37
ENDBRANCH  29  33
ENDBRANCH  28  29
ENDBRANCH  20  28
ENDBRANCH   1  23
TORSDOF 12
ENDMDL
MODEL 9
REMARK VINA RESULT:      -5.3      9.641     15.635
REMARK  Name = pdb/CHEMBL3678289.pdb
REMARK                            x       y       z     vdW  Elec       q    Type
REMARK                         _______ _______ _______ _____ _____    ______ ____
ROOT
ATOM      1  C   LIG    1      -28.013  69.974  31.859  0.00  0.00    +0.161 C 
ENDROOT
BRANCH   1   2
ATOM      2  N   LIG    1      -26.757  70.206  31.187  0.00  0.00    -0.293 N 
ATOM      3  C   LIG    1      -25.949  71.280  31.444  0.00  0.00    +0.162 A 
ATOM      4  N   LIG    1      -26.081  72.189  32.431  0.00  0.00    -0.234 NA
ATOM      5  C   LIG    1      -25.173  73.189  32.323  0.00  0.00    +0.130 A 
ATOM      6  C   LIG    1      -24.219  73.318  31.310  0.00  0.00    +0.045 A 
ATOM      7  C   LIG    1      -24.104  72.318  30.343  0.00  0.00    +0.050 A 
ATOM      8  C   LIG    1      -25.008  71.258  30.424  0.00  0.00    +0.111 A 
ATOM      9  N   LIG    1      -25.179  70.161  29.624  0.00  0.00    -0.213 NA
ATOM     10  C   LIG    1      -26.232  69.543  30.103  0.00  0.00    +0.195 A 
BRANCH  10  11
ATOM     11  N   LIG    1      -26.738  68.409  29.603  0.00  0.00    -0.329 N 
ATOM     12  H   LIG    1      -26.046  67.743  29.270  0.00  0.00    +0.145 HD
ATOM     13  H   LIG    1      -27.603  68.379  29.078  0.00  0.00    +0.145 HD
ENDBRANCH  10  11
BRANCH   6  14
ATOM     14  C   LIG    1      -23.454  74.502  31.205  0.00  0.00    -0.065 C 
ATOM     15  C   LIG    1      -22.698  75.461  31.194  0.00  0.00    -0.095 C 
BRANCH  15  16
ATOM     16  C   LIG    1      -21.701  76.528  31.229  0.00  0.00    +0.117 C 
BRANCH  16  17
ATOM     17  C   LIG    1      -21.769  77.387  29.964  0.00  0.00    +0.168 C 
BRANCH  17  18
ATOM     18  O   LIG    1      -21.747  76.584  28.786  0.00  0.00    -0.394 OA
ATOM     19  H   LIG    1      -22.674  76.436  28.527  0.00  0.00    +0.209 HD
ENDBRANCH  17  18
ENDBRANCH  16  17
ENDBRANCH  15  16
ENDBRANCH   6  14
ENDBRANCH   1   2
BRANCH   1  23
ATOM     20  C   LIG    1      -31.554  71.809  30.166  0.00  0.00    +0.162 A 
ATOM     21  C   LIG    1      -31.145  70.528  29.785  0.00  0.00    +0.162 A 
ATOM     22  C   LIG    1      -29.957  70.014  30.335  0.00  0.00    +0.054 A 
ATOM     23  C   LIG    1      -29.197  70.695  31.295  0.00  0.00    -0.024 A 
ATOM     24  C   LIG    1      -29.568  71.978  31.609  0.00  0.00    +0.009 A 
ATOM     25  C   LIG    1      -30.655  72.525  30.948  0.00  0.00    +0.050 A 
BRANCH  21  26
ATOM     26  O   LIG    1      -31.905  69.785  28.915  0.00  0.00    -0.491 OA
ATOM     27  C   LIG    1      -32.436  68.574  29.467  0.00  0.00    +0.277 C 
ENDBRANCH  21  26
BRANCH  20  28
ATOM     28  O   LIG    1      -32.720  72.361  29.710  0.00  0.00    -0.484 OA
BRANCH  28  29
ATOM     29  C   LIG    1      -33.125  73.731  30.021  0.00  0.00    +0.266 C 
BRANCH  29  33
ATOM     30  C   LIG    1      -33.322  77.110  27.458  0.00  0.00    +0.214 A 
ATOM     31  N   LIG    1      -34.157  76.072  27.241  0.00  0.00    -0.221 NA
ATOM     32  C   LIG    1      -34.007  74.987  28.031  0.00  0.00    +0.121 A 
ATOM     33  C   LIG    1      -33.019  74.854  29.000  0.00  0.00    +0.008 A 
ATOM     34  C   LIG    1      -32.098  75.913  29.125  0.00  0.00    +0.013 A 
ATOM     35  C   LIG    1      -32.308  77.091  28.400  0.00  0.00    +0.067 A 
BRANCH  30  37
ATOM     36  C   LIG    1      -32.359  79.059  26.618  0.00  0.00    +0.279 C 
ATOM     37  O   LIG    1      -33.550  78.303  26.808  0.00  0.00    -0.480 OA
ENDBRANCH  30  37
ENDBRANCH  29  33
ENDBRANCH  28  29
ENDBRANCH  20  28
ENDBRANCH   1  23
TORSDOF 12
ENDMDL
