MODEL 1
REMARK VINA RESULT:      -6.2      0.000      0.000
REMARK  Name = pdb/CHEMBL3671137.pdb
REMARK                            x       y       z     vdW  Elec       q    Type
REMARK                         _______ _______ _______ _____ _____    ______ ____
ROOT
ATOM      1  C   LIG    1      -34.846  70.639  26.468  0.00  0.00    +0.100 A 
ATOM      2  C   LIG    1      -35.980  70.658  25.668  0.00  0.00    +0.170 A 
ATOM      3  N   LIG    1      -37.089  71.473  25.624  0.00  0.00    -0.212 NA
ATOM      4  C   LIG    1      -38.039  71.189  24.754  0.00  0.00    +0.126 A 
ATOM      5  C   LIG    1      -37.958  69.968  23.860  0.00  0.00    +0.063 A 
ATOM      6  C   LIG    1      -36.845  69.235  23.920  0.00  0.00    +0.118 A 
ATOM      7  N   LIG    1      -35.836  69.573  24.797  0.00  0.00    -0.221 N 
ATOM      8  N   LIG    1      -34.651  68.939  24.944  0.00  0.00    -0.173 NA
ATOM      9  C   LIG    1      -34.065  69.583  25.949  0.00  0.00    +0.150 A 
ENDROOT
BRANCH   4  10
ATOM     10  N   LIG    1      -39.148  72.022  24.660  0.00  0.00    -0.308 N 
ATOM     11  C   LIG    1      -39.603  72.953  25.711  0.00  0.00    +0.108 C 
ATOM     12  C   LIG    1      -41.131  72.973  25.531  0.00  0.00    +0.029 C 
ATOM     13  C   LIG    1      -41.301  72.796  24.033  0.00  0.00    +0.021 C 
ATOM     14  C   LIG    1      -40.225  71.768  23.698  0.00  0.00    +0.107 C 
BRANCH  11  15
ATOM     15  C   LIG    1      -38.977  74.332  25.583  0.00  0.00    +0.011 A 
ATOM     16  C   LIG    1      -38.050  74.752  26.548  0.00  0.00    +0.129 A 
ATOM     17  F   LIG    1      -37.725  73.930  27.557  0.00  0.00    -0.205 F 
ATOM     18  C   LIG    1      -37.441  76.005  26.493  0.00  0.00    +0.041 A 
ATOM     19  C   LIG    1      -37.736  76.866  25.440  0.00  0.00    +0.041 A 
ATOM     20  C   LIG    1      -38.634  76.459  24.462  0.00  0.00    +0.124 A 
ATOM     21  F   LIG    1      -38.906  77.278  23.438  0.00  0.00    -0.205 F 
ATOM     22  C   LIG    1      -39.256  75.214  24.525  0.00  0.00    +0.046 A 
ENDBRANCH  11  15
ENDBRANCH   4  10
BRANCH   1  25
ATOM     23  N   LIG    1      -34.530  72.827  27.393  0.00  0.00    -0.305 N 
ATOM     24  H   LIG    1      -34.869  73.142  26.485  0.00  0.00    +0.150 HD
ATOM     25  C   LIG    1      -34.453  71.469  27.588  0.00  0.00    +0.250 C 
ATOM     26  O   LIG    1      -34.055  70.962  28.627  0.00  0.00    -0.270 OA
BRANCH  23  28
ATOM     27  C   LIG    1      -32.734  73.413  28.970  0.00  0.00    +0.032 C 
ATOM     28  C   LIG    1      -34.112  73.822  28.397  0.00  0.00    +0.042 C 
ATOM     29  C   LIG    1      -35.115  73.802  29.564  0.00  0.00    +0.032 C 
BRANCH  28  30
ATOM     30  C   LIG    1      -33.988  75.285  27.818  0.00  0.00    +0.109 C 
BRANCH  30  31
ATOM     31  N   LIG    1      -33.411  76.352  28.674  0.00  0.00    -0.296 NA
ATOM     32  C   LIG    1      -34.363  77.420  29.056  0.00  0.00    +0.112 C 
ATOM     33  C   LIG    1      -34.766  78.362  27.909  0.00  0.00    +0.175 C 
ATOM     34  O   LIG    1      -33.611  78.973  27.315  0.00  0.00    -0.377 OA
ATOM     35  C   LIG    1      -32.711  77.968  26.834  0.00  0.00    +0.175 C 
ATOM     36  C   LIG    1      -32.280  77.018  27.969  0.00  0.00    +0.112 C 
ENDBRANCH  30  31
ENDBRANCH  28  30
ENDBRANCH  23  28
ENDBRANCH   1  25
TORSDOF 6
ENDMDL
MODEL 2
REMARK VINA RESULT:      -6.0     11.816     16.980
REMARK  Name = pdb/CHEMBL3671137.pdb
REMARK                            x       y       z     vdW  Elec       q    Type
REMARK                         _______ _______ _______ _____ _____    ______ ____
ROOT
ATOM      1  C   LIG    1      -23.172  76.838  30.819  0.00  0.00    +0.100 A 
ATOM      2  C   LIG    1      -22.109  77.321  31.568  0.00  0.00    +0.170 A 
ATOM      3  N   LIG    1      -21.970  77.672  32.892  0.00  0.00    -0.212 NA
ATOM      4  C   LIG    1      -20.809  78.154  33.293  0.00  0.00    +0.126 A 
ATOM      5  C   LIG    1      -19.666  78.380  32.324  0.00  0.00    +0.063 A 
ATOM      6  C   LIG    1      -19.844  77.989  31.061  0.00  0.00    +0.118 A 
ATOM      7  N   LIG    1      -21.045  77.436  30.666  0.00  0.00    -0.221 N 
ATOM      8  N   LIG    1      -21.353  76.975  29.433  0.00  0.00    -0.173 NA
ATOM      9  C   LIG    1      -22.630  76.621  29.533  0.00  0.00    +0.150 A 
ENDROOT
BRANCH   4  10
ATOM     10  N   LIG    1      -20.631  78.474  34.634  0.00  0.00    -0.308 N 
ATOM     11  C   LIG    1      -20.469  79.841  35.167  0.00  0.00    +0.108 C 
ATOM     12  C   LIG    1      -19.543  79.643  36.379  0.00  0.00    +0.029 C 
ATOM     13  C   LIG    1      -19.944  78.273  36.895  0.00  0.00    +0.021 C 
ATOM     14  C   LIG    1      -20.158  77.485  35.607  0.00  0.00    +0.107 C 
BRANCH  11  15
ATOM     15  C   LIG    1      -21.795  80.485  35.538  0.00  0.00    +0.011 A 
ATOM     16  C   LIG    1      -21.806  81.815  35.983  0.00  0.00    +0.129 A 
ATOM     17  F   LIG    1      -20.654  82.497  36.063  0.00  0.00    -0.205 F 
ATOM     18  C   LIG    1      -22.987  82.465  36.342  0.00  0.00    +0.041 A 
ATOM     19  C   LIG    1      -24.201  81.791  36.239  0.00  0.00    +0.041 A 
ATOM     20  C   LIG    1      -24.213  80.481  35.779  0.00  0.00    +0.124 A 
ATOM     21  F   LIG    1      -25.380  79.836  35.661  0.00  0.00    -0.205 F 
ATOM     22  C   LIG    1      -23.032  79.825  35.435  0.00  0.00    +0.046 A 
ENDBRANCH  11  15
ENDBRANCH   4  10
BRANCH   1  25
ATOM     23  N   LIG    1      -24.771  76.156  32.469  0.00  0.00    -0.305 N 
ATOM     24  H   LIG    1      -23.954  76.081  33.073  0.00  0.00    +0.150 HD
ATOM     25  C   LIG    1      -24.550  76.573  31.179  0.00  0.00    +0.250 C 
ATOM     26  O   LIG    1      -25.443  76.696  30.351  0.00  0.00    -0.270 OA
BRANCH  23  28
ATOM     27  C   LIG    1      -27.102  76.916  32.683  0.00  0.00    +0.032 C 
ATOM     28  C   LIG    1      -26.097  75.780  32.991  0.00  0.00    +0.042 C 
ATOM     29  C   LIG    1      -26.010  75.651  34.523  0.00  0.00    +0.032 C 
BRANCH  28  30
ATOM     30  C   LIG    1      -26.662  74.444  32.369  0.00  0.00    +0.109 C 
BRANCH  30  31
ATOM     31  N   LIG    1      -26.257  73.145  32.962  0.00  0.00    -0.296 NA
ATOM     32  C   LIG    1      -25.052  72.536  32.354  0.00  0.00    +0.112 C 
ATOM     33  C   LIG    1      -25.259  71.984  30.932  0.00  0.00    +0.175 C 
ATOM     34  O   LIG    1      -26.320  71.018  30.906  0.00  0.00    -0.377 OA
ATOM     35  C   LIG    1      -27.535  71.602  31.389  0.00  0.00    +0.175 C 
ATOM     36  C   LIG    1      -27.359  72.152  32.819  0.00  0.00    +0.112 C 
ENDBRANCH  30  31
ENDBRANCH  28  30
ENDBRANCH  23  28
ENDBRANCH   1  25
TORSDOF 6
ENDMDL
MODEL 3
REMARK VINA RESULT:      -6.0     13.192     18.151
REMARK  Name = pdb/CHEMBL3671137.pdb
REMARK                            x       y       z     vdW  Elec       q    Type
REMARK                         _______ _______ _______ _____ _____    ______ ____
ROOT
ATOM      1  C   LIG    1      -19.621  77.088  30.812  0.00  0.00    +0.100 A 
ATOM      2  C   LIG    1      -19.108  77.651  31.972  0.00  0.00    +0.170 A 
ATOM      3  N   LIG    1      -19.690  78.236  33.074  0.00  0.00    -0.212 NA
ATOM      4  C   LIG    1      -18.901  78.730  34.010  0.00  0.00    +0.126 A 
ATOM      5  C   LIG    1      -17.393  78.717  33.864  0.00  0.00    +0.063 A 
ATOM      6  C   LIG    1      -16.883  78.106  32.794  0.00  0.00    +0.118 A 
ATOM      7  N   LIG    1      -17.719  77.547  31.849  0.00  0.00    -0.221 N 
ATOM      8  N   LIG    1      -17.341  76.879  30.735  0.00  0.00    -0.173 NA
ATOM      9  C   LIG    1      -18.488  76.611  30.119  0.00  0.00    +0.150 A 
ENDROOT
BRANCH   4  10
ATOM     10  N   LIG    1      -19.465  79.285  35.153  0.00  0.00    -0.308 N 
ATOM     11  C   LIG    1      -20.642  80.175  35.174  0.00  0.00    +0.108 C 
ATOM     12  C   LIG    1      -20.366  81.102  36.370  0.00  0.00    +0.029 C 
ATOM     13  C   LIG    1      -19.620  80.200  37.336  0.00  0.00    +0.021 C 
ATOM     14  C   LIG    1      -18.713  79.399  36.407  0.00  0.00    +0.107 C 
BRANCH  11  15
ATOM     15  C   LIG    1      -21.950  79.413  35.308  0.00  0.00    +0.011 A 
ATOM     16  C   LIG    1      -23.160  80.101  35.135  0.00  0.00    +0.129 A 
ATOM     17  F   LIG    1      -23.143  81.411  34.847  0.00  0.00    -0.205 F 
ATOM     18  C   LIG    1      -24.395  79.464  35.247  0.00  0.00    +0.041 A 
ATOM     19  C   LIG    1      -24.442  78.098  35.516  0.00  0.00    +0.041 A 
ATOM     20  C   LIG    1      -23.254  77.395  35.667  0.00  0.00    +0.124 A 
ATOM     21  F   LIG    1      -23.295  76.079  35.907  0.00  0.00    -0.205 F 
ATOM     22  C   LIG    1      -22.019  78.035  35.571  0.00  0.00    +0.046 A 
ENDBRANCH  11  15
ENDBRANCH   4  10
BRANCH   1  25
ATOM     23  N   LIG    1      -21.972  77.322  31.219  0.00  0.00    -0.305 N 
ATOM     24  H   LIG    1      -21.671  77.665  32.130  0.00  0.00    +0.150 HD
ATOM     25  C   LIG    1      -20.984  76.960  30.336  0.00  0.00    +0.250 C 
ATOM     26  O   LIG    1      -21.211  76.524  29.216  0.00  0.00    -0.270 OA
BRANCH  23  28
ATOM     27  C   LIG    1      -23.702  77.803  29.536  0.00  0.00    +0.032 C 
ATOM     28  C   LIG    1      -23.411  77.197  30.930  0.00  0.00    +0.042 C 
ATOM     29  C   LIG    1      -24.199  78.026  31.961  0.00  0.00    +0.032 C 
BRANCH  28  30
ATOM     30  C   LIG    1      -23.926  75.705  30.932  0.00  0.00    +0.109 C 
BRANCH  30  31
ATOM     31  N   LIG    1      -24.643  75.190  32.126  0.00  0.00    -0.296 NA
ATOM     32  C   LIG    1      -23.809  74.389  33.050  0.00  0.00    +0.112 C 
ATOM     33  C   LIG    1      -23.411  73.002  32.516  0.00  0.00    +0.175 C 
ATOM     34  O   LIG    1      -24.571  72.233  32.167  0.00  0.00    -0.377 OA
ATOM     35  C   LIG    1      -25.352  72.930  31.190  0.00  0.00    +0.175 C 
ATOM     36  C   LIG    1      -25.777  74.320  31.706  0.00  0.00    +0.112 C 
ENDBRANCH  30  31
ENDBRANCH  28  30
ENDBRANCH  23  28
ENDBRANCH   1  25
TORSDOF 6
ENDMDL
MODEL 4
REMARK VINA RESULT:      -6.0      2.828      5.573
REMARK  Name = pdb/CHEMBL3671137.pdb
REMARK                            x       y       z     vdW  Elec       q    Type
REMARK                         _______ _______ _______ _____ _____    ______ ____
ROOT
ATOM      1  C   LIG    1      -38.308  75.264  25.591  0.00  0.00    +0.100 A 
ATOM      2  C   LIG    1      -38.557  73.973  25.146  0.00  0.00    +0.170 A 
ATOM      3  N   LIG    1      -37.852  72.794  25.230  0.00  0.00    -0.212 NA
ATOM      4  C   LIG    1      -38.353  71.722  24.646  0.00  0.00    +0.126 A 
ATOM      5  C   LIG    1      -39.640  71.782  23.848  0.00  0.00    +0.063 A 
ATOM      6  C   LIG    1      -40.299  72.941  23.830  0.00  0.00    +0.118 A 
ATOM      7  N   LIG    1      -39.790  74.041  24.490  0.00  0.00    -0.221 N 
ATOM      8  N   LIG    1      -40.361  75.263  24.576  0.00  0.00    -0.173 NA
ATOM      9  C   LIG    1      -39.465  75.990  25.236  0.00  0.00    +0.150 A 
ENDROOT
BRANCH   4  10
ATOM     10  N   LIG    1      -37.682  70.509  24.754  0.00  0.00    -0.308 N 
ATOM     11  C   LIG    1      -38.319  69.179  24.719  0.00  0.00    +0.108 C 
ATOM     12  C   LIG    1      -37.426  68.332  25.641  0.00  0.00    +0.029 C 
ATOM     13  C   LIG    1      -36.047  68.925  25.420  0.00  0.00    +0.021 C 
ATOM     14  C   LIG    1      -36.340  70.420  25.338  0.00  0.00    +0.107 C 
BRANCH  11  15
ATOM     15  C   LIG    1      -38.417  68.614  23.311  0.00  0.00    +0.011 A 
ATOM     16  C   LIG    1      -39.265  67.522  23.073  0.00  0.00    +0.129 A 
ATOM     17  F   LIG    1      -39.979  67.004  24.083  0.00  0.00    -0.205 F 
ATOM     18  C   LIG    1      -39.399  66.953  21.806  0.00  0.00    +0.041 A 
ATOM     19  C   LIG    1      -38.692  67.490  20.734  0.00  0.00    +0.041 A 
ATOM     20  C   LIG    1      -37.866  68.586  20.946  0.00  0.00    +0.124 A 
ATOM     21  F   LIG    1      -37.199  69.117  19.913  0.00  0.00    -0.205 F 
ATOM     22  C   LIG    1      -37.718  69.145  22.214  0.00  0.00    +0.046 A 
ENDBRANCH  11  15
ENDBRANCH   4  10
BRANCH   1  25
ATOM     23  N   LIG    1      -36.431  74.966  27.052  0.00  0.00    -0.305 N 
ATOM     24  H   LIG    1      -36.736  73.994  27.069  0.00  0.00    +0.150 HD
ATOM     25  C   LIG    1      -37.167  75.832  26.280  0.00  0.00    +0.250 C 
ATOM     26  O   LIG    1      -36.913  77.024  26.181  0.00  0.00    -0.270 OA
BRANCH  23  28
ATOM     27  C   LIG    1      -34.289  74.196  27.987  0.00  0.00    +0.032 C 
ATOM     28  C   LIG    1      -35.279  75.380  27.872  0.00  0.00    +0.042 C 
ATOM     29  C   LIG    1      -35.770  75.703  29.294  0.00  0.00    +0.032 C 
BRANCH  28  30
ATOM     30  C   LIG    1      -34.496  76.615  27.279  0.00  0.00    +0.109 C 
BRANCH  30  31
ATOM     31  N   LIG    1      -33.435  77.257  28.095  0.00  0.00    -0.296 NA
ATOM     32  C   LIG    1      -33.772  78.610  28.595  0.00  0.00    +0.112 C 
ATOM     33  C   LIG    1      -33.801  79.705  27.514  0.00  0.00    +0.175 C 
ATOM     34  O   LIG    1      -32.546  79.776  26.822  0.00  0.00    -0.377 OA
ATOM     35  C   LIG    1      -32.235  78.509  26.230  0.00  0.00    +0.175 C 
ATOM     36  C   LIG    1      -32.186  77.395  27.294  0.00  0.00    +0.112 C 
ENDBRANCH  30  31
ENDBRANCH  28  30
ENDBRANCH  23  28
ENDBRANCH   1  25
TORSDOF 6
ENDMDL
MODEL 5
REMARK VINA RESULT:      -5.9     19.288     22.670
REMARK  Name = pdb/CHEMBL3671137.pdb
REMARK                            x       y       z     vdW  Elec       q    Type
REMARK                         _______ _______ _______ _____ _____    ______ ____
ROOT
ATOM      1  C   LIG    1      -24.110  82.030  12.236  0.00  0.00    +0.100 A 
ATOM      2  C   LIG    1      -23.934  83.401  12.108  0.00  0.00    +0.170 A 
ATOM      3  N   LIG    1      -23.194  84.326  12.809  0.00  0.00    -0.212 NA
ATOM      4  C   LIG    1      -23.283  85.595  12.456  0.00  0.00    +0.126 A 
ATOM      5  C   LIG    1      -24.216  86.048  11.351  0.00  0.00    +0.063 A 
ATOM      6  C   LIG    1      -24.881  85.105  10.683  0.00  0.00    +0.118 A 
ATOM      7  N   LIG    1      -24.739  83.776  11.027  0.00  0.00    -0.221 N 
ATOM      8  N   LIG    1      -25.329  82.720  10.423  0.00  0.00    -0.173 NA
ATOM      9  C   LIG    1      -24.948  81.678  11.156  0.00  0.00    +0.150 A 
ENDROOT
BRANCH   4  10
ATOM     10  N   LIG    1      -22.512  86.542  13.120  0.00  0.00    -0.308 N 
ATOM     11  C   LIG    1      -21.570  86.253  14.218  0.00  0.00    +0.108 C 
ATOM     12  C   LIG    1      -21.635  87.521  15.086  0.00  0.00    +0.029 C 
ATOM     13  C   LIG    1      -21.873  88.620  14.067  0.00  0.00    +0.021 C 
ATOM     14  C   LIG    1      -22.855  87.968  13.100  0.00  0.00    +0.107 C 
BRANCH  11  15
ATOM     15  C   LIG    1      -20.165  85.951  13.720  0.00  0.00    +0.011 A 
ATOM     16  C   LIG    1      -19.709  84.624  13.729  0.00  0.00    +0.129 A 
ATOM     17  F   LIG    1      -20.519  83.648  14.164  0.00  0.00    -0.205 F 
ATOM     18  C   LIG    1      -18.432  84.279  13.289  0.00  0.00    +0.041 A 
ATOM     19  C   LIG    1      -17.581  85.268  12.804  0.00  0.00    +0.041 A 
ATOM     20  C   LIG    1      -18.023  86.584  12.766  0.00  0.00    +0.124 A 
ATOM     21  F   LIG    1      -17.215  87.535  12.282  0.00  0.00    -0.205 F 
ATOM     22  C   LIG    1      -19.294  86.933  13.220  0.00  0.00    +0.046 A 
ENDBRANCH  11  15
ENDBRANCH   4  10
BRANCH   1  25
ATOM     23  N   LIG    1      -23.196  81.614  14.412  0.00  0.00    -0.305 N 
ATOM     24  H   LIG    1      -23.314  82.619  14.535  0.00  0.00    +0.150 HD
ATOM     25  C   LIG    1      -23.590  81.088  13.206  0.00  0.00    +0.250 C 
ATOM     26  O   LIG    1      -23.493  79.901  12.927  0.00  0.00    -0.270 OA
BRANCH  23  28
ATOM     27  C   LIG    1      -23.561  79.687  15.899  0.00  0.00    +0.032 C 
ATOM     28  C   LIG    1      -22.586  80.817  15.491  0.00  0.00    +0.042 C 
ATOM     29  C   LIG    1      -22.389  81.717  16.724  0.00  0.00    +0.032 C 
BRANCH  28  30
ATOM     30  C   LIG    1      -21.213  80.154  15.083  0.00  0.00    +0.109 C 
BRANCH  30  31
ATOM     31  N   LIG    1      -19.984  80.523  15.830  0.00  0.00    -0.296 NA
ATOM     32  C   LIG    1      -18.840  80.924  14.979  0.00  0.00    +0.112 C 
ATOM     33  C   LIG    1      -18.188  79.772  14.194  0.00  0.00    +0.175 C 
ATOM     34  O   LIG    1      -17.753  78.729  15.079  0.00  0.00    -0.377 OA
ATOM     35  C   LIG    1      -18.858  78.238  15.848  0.00  0.00    +0.175 C 
ATOM     36  C   LIG    1      -19.521  79.372  16.655  0.00  0.00    +0.112 C 
ENDBRANCH  30  31
ENDBRANCH  28  30
ENDBRANCH  23  28
ENDBRANCH   1  25
TORSDOF 6
ENDMDL
MODEL 6
REMARK VINA RESULT:      -5.8     13.986     17.946
REMARK  Name = pdb/CHEMBL3671137.pdb
REMARK                            x       y       z     vdW  Elec       q    Type
REMARK                         _______ _______ _______ _____ _____    ______ ____
ROOT
ATOM      1  C   LIG    1      -24.185  77.853  32.213  0.00  0.00    +0.100 A 
ATOM      2  C   LIG    1      -23.057  77.413  31.535  0.00  0.00    +0.170 A 
ATOM      3  N   LIG    1      -21.736  77.270  31.894  0.00  0.00    -0.212 NA
ATOM      4  C   LIG    1      -20.879  76.861  30.979  0.00  0.00    +0.126 A 
ATOM      5  C   LIG    1      -21.308  76.608  29.547  0.00  0.00    +0.063 A 
ATOM      6  C   LIG    1      -22.605  76.728  29.263  0.00  0.00    +0.118 A 
ATOM      7  N   LIG    1      -23.500  77.106  30.244  0.00  0.00    -0.221 N 
ATOM      8  N   LIG    1      -24.838  77.240  30.104  0.00  0.00    -0.173 NA
ATOM      9  C   LIG    1      -25.240  77.691  31.288  0.00  0.00    +0.150 A 
ENDROOT
BRANCH   4  10
ATOM     10  N   LIG    1      -19.548  76.666  31.329  0.00  0.00    -0.308 N 
ATOM     11  C   LIG    1      -18.633  77.719  31.810  0.00  0.00    +0.108 C 
ATOM     12  C   LIG    1      -17.261  77.269  31.279  0.00  0.00    +0.029 C 
ATOM     13  C   LIG    1      -17.358  75.755  31.325  0.00  0.00    +0.021 C 
ATOM     14  C   LIG    1      -18.789  75.501  30.863  0.00  0.00    +0.107 C 
BRANCH  11  15
ATOM     15  C   LIG    1      -18.659  77.872  33.322  0.00  0.00    +0.011 A 
ATOM     16  C   LIG    1      -19.325  78.970  33.885  0.00  0.00    +0.129 A 
ATOM     17  F   LIG    1      -19.934  79.858  33.085  0.00  0.00    -0.205 F 
ATOM     18  C   LIG    1      -19.384  79.172  35.264  0.00  0.00    +0.041 A 
ATOM     19  C   LIG    1      -18.786  78.250  36.119  0.00  0.00    +0.041 A 
ATOM     20  C   LIG    1      -18.142  77.143  35.581  0.00  0.00    +0.124 A 
ATOM     21  F   LIG    1      -17.582  76.245  36.401  0.00  0.00    -0.205 F 
ATOM     22  C   LIG    1      -18.068  76.950  34.203  0.00  0.00    +0.046 A 
ENDBRANCH  11  15
ENDBRANCH   4  10
BRANCH   1  25
ATOM     23  N   LIG    1      -23.425  79.293  33.971  0.00  0.00    -0.305 N 
ATOM     24  H   LIG    1      -22.706  79.557  33.299  0.00  0.00    +0.150 HD
ATOM     25  C   LIG    1      -24.351  78.366  33.558  0.00  0.00    +0.250 C 
ATOM     26  O   LIG    1      -25.257  77.958  34.270  0.00  0.00    -0.270 OA
BRANCH  23  28
ATOM     27  C   LIG    1      -22.461  81.104  35.331  0.00  0.00    +0.032 C 
ATOM     28  C   LIG    1      -23.399  79.873  35.326  0.00  0.00    +0.042 C 
ATOM     29  C   LIG    1      -22.801  78.841  36.298  0.00  0.00    +0.032 C 
BRANCH  28  30
ATOM     30  C   LIG    1      -24.818  80.337  35.838  0.00  0.00    +0.109 C 
BRANCH  30  31
ATOM     31  N   LIG    1      -25.133  80.231  37.285  0.00  0.00    -0.296 NA
ATOM     32  C   LIG    1      -26.400  79.530  37.593  0.00  0.00    +0.112 C 
ATOM     33  C   LIG    1      -27.673  80.314  37.229  0.00  0.00    +0.175 C 
ATOM     34  O   LIG    1      -27.692  81.593  37.879  0.00  0.00    -0.377 OA
ATOM     35  C   LIG    1      -26.529  82.349  37.520  0.00  0.00    +0.175 C 
ATOM     36  C   LIG    1      -25.237  81.590  37.887  0.00  0.00    +0.112 C 
ENDBRANCH  30  31
ENDBRANCH  28  30
ENDBRANCH  23  28
ENDBRANCH   1  25
TORSDOF 6
ENDMDL
MODEL 7
REMARK VINA RESULT:      -5.8     19.218     22.771
REMARK  Name = pdb/CHEMBL3671137.pdb
REMARK                            x       y       z     vdW  Elec       q    Type
REMARK                         _______ _______ _______ _____ _____    ______ ____
ROOT
ATOM      1  C   LIG    1      -18.820  82.662  13.819  0.00  0.00    +0.100 A 
ATOM      2  C   LIG    1      -19.060  84.015  13.624  0.00  0.00    +0.170 A 
ATOM      3  N   LIG    1      -20.163  84.816  13.817  0.00  0.00    -0.212 NA
ATOM      4  C   LIG    1      -20.079  86.089  13.480  0.00  0.00    +0.126 A 
ATOM      5  C   LIG    1      -18.830  86.659  12.839  0.00  0.00    +0.063 A 
ATOM      6  C   LIG    1      -17.780  85.847  12.707  0.00  0.00    +0.118 A 
ATOM      7  N   LIG    1      -17.864  84.531  13.113  0.00  0.00    -0.221 N 
ATOM      8  N   LIG    1      -16.876  83.610  13.064  0.00  0.00    -0.173 NA
ATOM      9  C   LIG    1      -17.459  82.492  13.486  0.00  0.00    +0.150 A 
ENDROOT
BRANCH   4  10
ATOM     10  N   LIG    1      -21.165  86.927  13.708  0.00  0.00    -0.308 N 
ATOM     11  C   LIG    1      -21.854  87.724  12.675  0.00  0.00    +0.108 C 
ATOM     12  C   LIG    1      -22.320  88.974  13.442  0.00  0.00    +0.029 C 
ATOM     13  C   LIG    1      -22.614  88.433  14.829  0.00  0.00    +0.021 C 
ATOM     14  C   LIG    1      -21.476  87.441  15.045  0.00  0.00    +0.107 C 
BRANCH  11  15
ATOM     15  C   LIG    1      -23.002  86.971  12.023  0.00  0.00    +0.011 A 
ATOM     16  C   LIG    1      -23.704  87.576  10.970  0.00  0.00    +0.129 A 
ATOM     17  F   LIG    1      -23.345  88.799  10.551  0.00  0.00    -0.205 F 
ATOM     18  C   LIG    1      -24.768  86.943  10.330  0.00  0.00    +0.041 A 
ATOM     19  C   LIG    1      -25.142  85.661  10.724  0.00  0.00    +0.041 A 
ATOM     20  C   LIG    1      -24.445  85.036  11.750  0.00  0.00    +0.124 A 
ATOM     21  F   LIG    1      -24.790  83.796  12.119  0.00  0.00    -0.205 F 
ATOM     22  C   LIG    1      -23.391  85.675  12.401  0.00  0.00    +0.046 A 
ENDBRANCH  11  15
ENDBRANCH   4  10
BRANCH   1  25
ATOM     23  N   LIG    1      -20.666  81.945  15.169  0.00  0.00    -0.305 N 
ATOM     24  H   LIG    1      -20.709  82.926  15.441  0.00  0.00    +0.150 HD
ATOM     25  C   LIG    1      -19.691  81.594  14.267  0.00  0.00    +0.250 C 
ATOM     26  O   LIG    1      -19.525  80.450  13.867  0.00  0.00    -0.270 OA
BRANCH  23  28
ATOM     27  C   LIG    1      -22.420  81.698  16.878  0.00  0.00    +0.032 C 
ATOM     28  C   LIG    1      -21.598  80.981  15.781  0.00  0.00    +0.042 C 
ATOM     29  C   LIG    1      -20.784  79.872  16.472  0.00  0.00    +0.032 C 
BRANCH  28  30
ATOM     30  C   LIG    1      -22.609  80.343  14.750  0.00  0.00    +0.109 C 
BRANCH  30  31
ATOM     31  N   LIG    1      -24.026  80.157  15.151  0.00  0.00    -0.296 NA
ATOM     32  C   LIG    1      -24.365  78.789  15.606  0.00  0.00    +0.112 C 
ATOM     33  C   LIG    1      -24.394  77.730  14.491  0.00  0.00    +0.175 C 
ATOM     34  O   LIG    1      -25.310  78.103  13.451  0.00  0.00    -0.377 OA
ATOM     35  C   LIG    1      -24.950  79.379  12.909  0.00  0.00    +0.175 C 
ATOM     36  C   LIG    1      -24.927  80.463  14.005  0.00  0.00    +0.112 C 
ENDBRANCH  30  31
ENDBRANCH  28  30
ENDBRANCH  23  28
ENDBRANCH   1  25
TORSDOF 6
ENDMDL
MODEL 8
REMARK VINA RESULT:      -5.7      2.589      5.268
REMARK  Name = pdb/CHEMBL3671137.pdb
REMARK                            x       y       z     vdW  Elec       q    Type
REMARK                         _______ _______ _______ _____ _____    ______ ____
ROOT
ATOM      1  C   LIG    1      -37.530  76.426  26.160  0.00  0.00    +0.100 A 
ATOM      2  C   LIG    1      -38.183  75.365  25.549  0.00  0.00    +0.170 A 
ATOM      3  N   LIG    1      -37.886  74.028  25.412  0.00  0.00    -0.212 NA
ATOM      4  C   LIG    1      -38.712  73.272  24.714  0.00  0.00    +0.126 A 
ATOM      5  C   LIG    1      -39.929  73.854  24.023  0.00  0.00    +0.063 A 
ATOM      6  C   LIG    1      -40.187  75.148  24.220  0.00  0.00    +0.118 A 
ATOM      7  N   LIG    1      -39.344  75.916  24.996  0.00  0.00    -0.221 N 
ATOM      8  N   LIG    1      -39.497  77.224  25.299  0.00  0.00    -0.173 NA
ATOM      9  C   LIG    1      -38.403  77.522  25.994  0.00  0.00    +0.150 A 
ENDROOT
BRANCH   4  10
ATOM     10  N   LIG    1      -38.458  71.910  24.598  0.00  0.00    -0.308 N 
ATOM     11  C   LIG    1      -37.121  71.288  24.653  0.00  0.00    +0.108 C 
ATOM     12  C   LIG    1      -37.254  70.074  23.718  0.00  0.00    +0.029 C 
ATOM     13  C   LIG    1      -38.700  69.654  23.909  0.00  0.00    +0.021 C 
ATOM     14  C   LIG    1      -39.425  70.992  23.989  0.00  0.00    +0.107 C 
BRANCH  11  15
ATOM     15  C   LIG    1      -36.712  70.902  26.065  0.00  0.00    +0.011 A 
ATOM     16  C   LIG    1      -35.363  70.621  26.332  0.00  0.00    +0.129 A 
ATOM     17  F   LIG    1      -34.460  70.708  25.344  0.00  0.00    -0.205 F 
ATOM     18  C   LIG    1      -34.921  70.258  27.604  0.00  0.00    +0.041 A 
ATOM     19  C   LIG    1      -35.832  70.190  28.655  0.00  0.00    +0.041 A 
ATOM     20  C   LIG    1      -37.168  70.487  28.415  0.00  0.00    +0.124 A 
ATOM     21  F   LIG    1      -38.043  70.441  29.427  0.00  0.00    -0.205 F 
ATOM     22  C   LIG    1      -37.614  70.834  27.141  0.00  0.00    +0.046 A 
ENDBRANCH  11  15
ENDBRANCH   4  10
BRANCH   1  25
ATOM     23  N   LIG    1      -35.714  75.296  27.242  0.00  0.00    -0.305 N 
ATOM     24  H   LIG    1      -36.242  74.455  27.014  0.00  0.00    +0.150 HD
ATOM     25  C   LIG    1      -36.255  76.495  26.845  0.00  0.00    +0.250 C 
ATOM     26  O   LIG    1      -35.727  77.576  27.065  0.00  0.00    -0.270 OA
BRANCH  23  28
ATOM     27  C   LIG    1      -33.366  76.029  27.314  0.00  0.00    +0.032 C 
ATOM     28  C   LIG    1      -34.459  75.179  28.005  0.00  0.00    +0.042 C 
ATOM     29  C   LIG    1      -33.989  73.714  27.969  0.00  0.00    +0.032 C 
BRANCH  28  30
ATOM     30  C   LIG    1      -34.584  75.667  29.501  0.00  0.00    +0.109 C 
BRANCH  30  31
ATOM     31  N   LIG    1      -33.700  76.759  29.981  0.00  0.00    -0.296 NA
ATOM     32  C   LIG    1      -32.942  76.445  31.213  0.00  0.00    +0.112 C 
ATOM     33  C   LIG    1      -33.794  76.382  32.493  0.00  0.00    +0.175 C 
ATOM     34  O   LIG    1      -34.505  77.611  32.697  0.00  0.00    -0.377 OA
ATOM     35  C   LIG    1      -35.337  77.897  31.566  0.00  0.00    +0.175 C 
ATOM     36  C   LIG    1      -34.504  77.979  30.271  0.00  0.00    +0.112 C 
ENDBRANCH  30  31
ENDBRANCH  28  30
ENDBRANCH  23  28
ENDBRANCH   1  25
TORSDOF 6
ENDMDL
MODEL 9
REMARK VINA RESULT:      -5.7     13.951     18.096
REMARK  Name = pdb/CHEMBL3671137.pdb
REMARK                            x       y       z     vdW  Elec       q    Type
REMARK                         _______ _______ _______ _____ _____    ______ ____
ROOT
ATOM      1  C   LIG    1      -24.417  77.636  32.520  0.00  0.00    +0.100 A 
ATOM      2  C   LIG    1      -23.283  77.376  31.765  0.00  0.00    +0.170 A 
ATOM      3  N   LIG    1      -21.939  77.349  32.059  0.00  0.00    -0.212 NA
ATOM      4  C   LIG    1      -21.088  77.108  31.080  0.00  0.00    +0.126 A 
ATOM      5  C   LIG    1      -21.555  76.925  29.650  0.00  0.00    +0.063 A 
ATOM      6  C   LIG    1      -22.870  76.925  29.428  0.00  0.00    +0.118 A 
ATOM      7  N   LIG    1      -23.752  77.125  30.471  0.00  0.00    -0.221 N 
ATOM      8  N   LIG    1      -25.102  77.124  30.395  0.00  0.00    -0.173 NA
ATOM      9  C   LIG    1      -25.492  77.434  31.627  0.00  0.00    +0.150 A 
ENDROOT
BRANCH   4  10
ATOM     10  N   LIG    1      -19.728  77.032  31.361  0.00  0.00    -0.308 N 
ATOM     11  C   LIG    1      -19.031  77.815  32.399  0.00  0.00    +0.108 C 
ATOM     12  C   LIG    1      -17.626  78.019  31.807  0.00  0.00    +0.029 C 
ATOM     13  C   LIG    1      -17.400  76.743  31.017  0.00  0.00    +0.021 C 
ATOM     14  C   LIG    1      -18.769  76.495  30.392  0.00  0.00    +0.107 C 
BRANCH  11  15
ATOM     15  C   LIG    1      -19.005  77.110  33.746  0.00  0.00    +0.011 A 
ATOM     16  C   LIG    1      -18.849  77.873  34.912  0.00  0.00    +0.129 A 
ATOM     17  F   LIG    1      -18.735  79.207  34.821  0.00  0.00    -0.205 F 
ATOM     18  C   LIG    1      -18.814  77.290  36.178  0.00  0.00    +0.041 A 
ATOM     19  C   LIG    1      -18.960  75.911  36.304  0.00  0.00    +0.041 A 
ATOM     20  C   LIG    1      -19.140  75.141  35.163  0.00  0.00    +0.124 A 
ATOM     21  F   LIG    1      -19.300  73.817  35.281  0.00  0.00    -0.205 F 
ATOM     22  C   LIG    1      -19.158  75.721  33.895  0.00  0.00    +0.046 A 
ENDBRANCH  11  15
ENDBRANCH   4  10
BRANCH   1  25
ATOM     23  N   LIG    1      -23.603  77.571  34.773  0.00  0.00    -0.305 N 
ATOM     24  H   LIG    1      -22.849  77.017  34.371  0.00  0.00    +0.150 HD
ATOM     25  C   LIG    1      -24.571  78.020  33.909  0.00  0.00    +0.250 C 
ATOM     26  O   LIG    1      -25.534  78.685  34.265  0.00  0.00    -0.270 OA
BRANCH  23  28
ATOM     27  C   LIG    1      -22.537  76.949  36.903  0.00  0.00    +0.032 C 
ATOM     28  C   LIG    1      -23.632  77.810  36.227  0.00  0.00    +0.042 C 
ATOM     29  C   LIG    1      -24.989  77.339  36.782  0.00  0.00    +0.032 C 
BRANCH  28  30
ATOM     30  C   LIG    1      -23.382  79.317  36.622  0.00  0.00    +0.109 C 
BRANCH  30  31
ATOM     31  N   LIG    1      -22.256  80.051  35.992  0.00  0.00    -0.296 NA
ATOM     32  C   LIG    1      -21.198  80.486  36.932  0.00  0.00    +0.112 C 
ATOM     33  C   LIG    1      -21.606  81.635  37.871  0.00  0.00    +0.175 C 
ATOM     34  O   LIG    1      -22.048  82.777  37.124  0.00  0.00    -0.377 OA
ATOM     35  C   LIG    1      -23.147  82.420  36.277  0.00  0.00    +0.175 C 
ATOM     36  C   LIG    1      -22.760  81.278  35.315  0.00  0.00    +0.112 C 
ENDBRANCH  30  31
ENDBRANCH  28  30
ENDBRANCH  23  28
ENDBRANCH   1  25
TORSDOF 6
ENDMDL
