MODEL 1
REMARK VINA RESULT:      -6.2      0.000      0.000
REMARK  Name = pdb/CHEMBL3925856.pdb
REMARK                            x       y       z     vdW  Elec       q    Type
REMARK                         _______ _______ _______ _____ _____    ______ ____
ROOT
ATOM      1  C   LIG    1      -33.284  78.466  27.425  0.00  0.00    +0.107 C 
ATOM      2  C   LIG    1      -33.950  77.240  27.289  0.00  0.00    +0.208 C 
ATOM      3  N   LIG    1      -35.160  76.866  26.713  0.00  0.00    -0.175 NA
ATOM      4  C   LIG    1      -35.789  75.816  27.226  0.00  0.00    +0.150 C 
ATOM      5  C   LIG    1      -34.980  74.776  28.033  0.00  0.00    +0.033 C 
ATOM      6  C   LIG    1      -33.788  75.154  28.516  0.00  0.00    +0.095 C 
ATOM      7  N   LIG    1      -33.274  76.394  28.185  0.00  0.00    -0.209 N 
ATOM      8  N   LIG    1      -32.168  76.967  28.725  0.00  0.00    -0.153 NA
ATOM      9  C   LIG    1      -32.128  78.170  28.159  0.00  0.00    +0.143 C 
ENDROOT
BRANCH   4  10
ATOM     10  N   LIG    1      -37.207  75.707  27.126  0.00  0.00    -0.270 NA
ATOM     11  C   LIG    1      -37.897  75.074  25.985  0.00  0.00    +0.092 C 
ATOM     12  C   LIG    1      -38.717  73.953  26.657  0.00  0.00    +0.025 C 
ATOM     13  C   LIG    1      -39.197  74.562  27.959  0.00  0.00    +0.017 C 
ATOM     14  C   LIG    1      -38.152  75.652  28.288  0.00  0.00    +0.087 C 
BRANCH  11  15
ATOM     15  C   LIG    1      -38.801  76.036  25.220  0.00  0.00    +0.008 A 
ATOM     16  C   LIG    1      -39.717  75.605  24.248  0.00  0.00    +0.128 A 
ATOM     17  F   LIG    1      -39.889  74.308  23.967  0.00  0.00    -0.205 F 
ATOM     18  C   LIG    1      -40.477  76.496  23.497  0.00  0.00    +0.041 A 
ATOM     19  C   LIG    1      -40.353  77.862  23.709  0.00  0.00    +0.041 A 
ATOM     20  C   LIG    1      -39.472  78.317  24.681  0.00  0.00    +0.124 A 
ATOM     21  F   LIG    1      -39.337  79.635  24.876  0.00  0.00    -0.205 F 
ATOM     22  C   LIG    1      -38.709  77.427  25.442  0.00  0.00    +0.046 A 
ENDBRANCH  11  15
ENDBRANCH   4  10
BRANCH   1  24
ATOM     23  C   LIG    1      -34.532  80.500  27.602  0.00  0.00    +0.205 C 
ATOM     24  N   LIG    1      -33.715  79.721  26.957  0.00  0.00    -0.216 NA
BRANCH  23  25
ATOM     25  C   LIG    1      -35.195  80.398  28.972  0.00  0.00    +0.143 C 
ATOM     26  C   LIG    1      -36.732  80.109  29.039  0.00  0.00    +0.029 C 
ATOM     27  C   LIG    1      -35.779  79.071  29.460  0.00  0.00    +0.029 C 
BRANCH  25  28
ATOM     28  C   LIG    1      -34.769  81.449  30.021  0.00  0.00    +0.322 C 
ATOM     29  O   LIG    1      -34.677  81.182  31.174  0.00  0.00    -0.250 OA
BRANCH  28  31
ATOM     30  C   LIG    1      -34.003  83.694  30.348  0.00  0.00    +0.280 C 
ATOM     31  O   LIG    1      -34.536  82.686  29.453  0.00  0.00    -0.467 OA
ENDBRANCH  28  31
ENDBRANCH  25  28
ENDBRANCH  23  25
BRANCH  23  32
ATOM     32  O   LIG    1      -34.876  81.656  26.959  0.00  0.00    -0.495 OA
ATOM     33  H   LIG    1      -35.614  81.564  26.335  0.00  0.00    +0.293 HD
ENDBRANCH  23  32
ENDBRANCH   1  24
TORSDOF 7
ENDMDL
MODEL 2
REMARK VINA RESULT:      -6.2     11.959     15.437
REMARK  Name = pdb/CHEMBL3925856.pdb
REMARK                            x       y       z     vdW  Elec       q    Type
REMARK                         _______ _______ _______ _____ _____    ______ ____
ROOT
ATOM      1  C   LIG    1      -26.649  76.810  32.173  0.00  0.00    +0.107 C 
ATOM      2  C   LIG    1      -26.766  77.043  33.549  0.00  0.00    +0.208 C 
ATOM      3  N   LIG    1      -26.431  78.114  34.373  0.00  0.00    -0.175 NA
ATOM      4  C   LIG    1      -26.113  77.849  35.632  0.00  0.00    +0.150 C 
ATOM      5  C   LIG    1      -26.603  76.529  36.270  0.00  0.00    +0.033 C 
ATOM      6  C   LIG    1      -26.979  75.543  35.444  0.00  0.00    +0.095 C 
ATOM      7  N   LIG    1      -27.033  75.769  34.080  0.00  0.00    -0.209 N 
ATOM      8  N   LIG    1      -27.238  74.827  33.125  0.00  0.00    -0.153 NA
ATOM      9  C   LIG    1      -27.121  75.504  31.985  0.00  0.00    +0.143 C 
ENDROOT
BRANCH   4  10
ATOM     10  N   LIG    1      -25.241  78.716  36.353  0.00  0.00    -0.270 NA
ATOM     11  C   LIG    1      -24.714  79.982  35.804  0.00  0.00    +0.092 C 
ATOM     12  C   LIG    1      -25.204  81.030  36.826  0.00  0.00    +0.025 C 
ATOM     13  C   LIG    1      -25.073  80.341  38.170  0.00  0.00    +0.017 C 
ATOM     14  C   LIG    1      -25.180  78.834  37.846  0.00  0.00    +0.087 C 
BRANCH  11  15
ATOM     15  C   LIG    1      -23.194  79.999  35.683  0.00  0.00    +0.008 A 
ATOM     16  C   LIG    1      -22.461  81.184  35.508  0.00  0.00    +0.128 A 
ATOM     17  F   LIG    1      -23.053  82.383  35.489  0.00  0.00    -0.205 F 
ATOM     18  C   LIG    1      -21.083  81.181  35.315  0.00  0.00    +0.041 A 
ATOM     19  C   LIG    1      -20.386  79.980  35.304  0.00  0.00    +0.041 A 
ATOM     20  C   LIG    1      -21.082  78.795  35.498  0.00  0.00    +0.124 A 
ATOM     21  F   LIG    1      -20.416  77.634  35.472  0.00  0.00    -0.205 F 
ATOM     22  C   LIG    1      -22.466  78.791  35.698  0.00  0.00    +0.046 A 
ENDBRANCH  11  15
ENDBRANCH   4  10
BRANCH   1  24
ATOM     23  C   LIG    1      -24.868  77.767  30.891  0.00  0.00    +0.205 C 
ATOM     24  N   LIG    1      -26.128  77.690  31.206  0.00  0.00    -0.216 NA
BRANCH  23  25
ATOM     25  C   LIG    1      -23.639  76.984  31.341  0.00  0.00    +0.143 C 
ATOM     26  C   LIG    1      -22.551  77.723  32.191  0.00  0.00    +0.029 C 
ATOM     27  C   LIG    1      -23.394  76.698  32.824  0.00  0.00    +0.029 C 
BRANCH  25  28
ATOM     28  C   LIG    1      -23.000  76.047  30.293  0.00  0.00    +0.322 C 
ATOM     29  O   LIG    1      -23.015  74.866  30.415  0.00  0.00    -0.250 OA
BRANCH  28  31
ATOM     30  C   LIG    1      -20.978  76.731  29.208  0.00  0.00    +0.280 C 
ATOM     31  O   LIG    1      -22.426  76.747  29.250  0.00  0.00    -0.467 OA
ENDBRANCH  28  31
ENDBRANCH  25  28
ENDBRANCH  23  25
BRANCH  23  32
ATOM     32  O   LIG    1      -24.549  78.722  29.967  0.00  0.00    -0.495 OA
ATOM     33  H   LIG    1      -25.292  79.004  29.409  0.00  0.00    +0.293 HD
ENDBRANCH  23  32
ENDBRANCH   1  24
TORSDOF 7
ENDMDL
MODEL 3
REMARK VINA RESULT:      -6.0     19.369     21.400
REMARK  Name = pdb/CHEMBL3925856.pdb
REMARK                            x       y       z     vdW  Elec       q    Type
REMARK                         _______ _______ _______ _____ _____    ______ ____
ROOT
ATOM      1  C   LIG    1      -18.765  86.331  13.222  0.00  0.00    +0.107 C 
ATOM      2  C   LIG    1      -19.431  85.101  13.137  0.00  0.00    +0.208 C 
ATOM      3  N   LIG    1      -20.715  84.681  13.472  0.00  0.00    -0.175 NA
ATOM      4  C   LIG    1      -20.875  83.414  13.831  0.00  0.00    +0.150 C 
ATOM      5  C   LIG    1      -19.828  82.368  13.387  0.00  0.00    +0.033 C 
ATOM      6  C   LIG    1      -18.623  82.817  13.008  0.00  0.00    +0.095 C 
ATOM      7  N   LIG    1      -18.395  84.178  12.912  0.00  0.00    -0.209 N 
ATOM      8  N   LIG    1      -17.192  84.769  12.701  0.00  0.00    -0.153 NA
ATOM      9  C   LIG    1      -17.464  86.070  12.772  0.00  0.00    +0.143 C 
ENDROOT
BRANCH   4  10
ATOM     10  N   LIG    1      -21.939  83.042  14.703  0.00  0.00    -0.270 NA
ATOM     11  C   LIG    1      -22.135  81.670  15.213  0.00  0.00    +0.092 C 
ATOM     12  C   LIG    1      -22.091  81.862  16.743  0.00  0.00    +0.025 C 
ATOM     13  C   LIG    1      -22.808  83.175  16.983  0.00  0.00    +0.017 C 
ATOM     14  C   LIG    1      -22.628  83.962  15.665  0.00  0.00    +0.087 C 
BRANCH  11  15
ATOM     15  C   LIG    1      -23.455  81.047  14.772  0.00  0.00    +0.008 A 
ATOM     16  C   LIG    1      -24.044  79.965  15.444  0.00  0.00    +0.128 A 
ATOM     17  F   LIG    1      -23.503  79.443  16.551  0.00  0.00    -0.205 F 
ATOM     18  C   LIG    1      -25.206  79.350  14.986  0.00  0.00    +0.041 A 
ATOM     19  C   LIG    1      -25.829  79.815  13.836  0.00  0.00    +0.041 A 
ATOM     20  C   LIG    1      -25.282  80.899  13.164  0.00  0.00    +0.124 A 
ATOM     21  F   LIG    1      -25.871  81.339  12.044  0.00  0.00    -0.205 F 
ATOM     22  C   LIG    1      -24.118  81.524  13.622  0.00  0.00    +0.046 A 
ENDBRANCH  11  15
ENDBRANCH   4  10
BRANCH   1  24
ATOM     23  C   LIG    1      -20.194  88.246  13.077  0.00  0.00    +0.205 C 
ATOM     24  N   LIG    1      -19.289  87.547  13.697  0.00  0.00    -0.216 NA
BRANCH  23  25
ATOM     25  C   LIG    1      -20.985  88.008  11.795  0.00  0.00    +0.143 C 
ATOM     26  C   LIG    1      -20.782  88.995  10.597  0.00  0.00    +0.029 C 
ATOM     27  C   LIG    1      -20.274  87.619  10.498  0.00  0.00    +0.029 C 
BRANCH  25  28
ATOM     28  C   LIG    1      -22.471  87.622  11.966  0.00  0.00    +0.322 C 
ATOM     29  O   LIG    1      -23.227  88.296  12.585  0.00  0.00    -0.250 OA
BRANCH  28  31
ATOM     30  C   LIG    1      -23.839  85.656  11.944  0.00  0.00    +0.280 C 
ATOM     31  O   LIG    1      -22.775  86.430  11.337  0.00  0.00    -0.467 OA
ENDBRANCH  28  31
ENDBRANCH  25  28
ENDBRANCH  23  25
BRANCH  23  32
ATOM     32  O   LIG    1      -20.537  89.427  13.671  0.00  0.00    -0.495 OA
ATOM     33  H   LIG    1      -21.224  89.928  13.202  0.00  0.00    +0.293 HD
ENDBRANCH  23  32
ENDBRANCH   1  24
TORSDOF 7
ENDMDL
MODEL 4
REMARK VINA RESULT:      -6.0     12.527     16.748
REMARK  Name = pdb/CHEMBL3925856.pdb
REMARK                            x       y       z     vdW  Elec       q    Type
REMARK                         _______ _______ _______ _____ _____    ______ ____
ROOT
ATOM      1  C   LIG    1      -23.962  77.522  31.193  0.00  0.00    +0.107 C 
ATOM      2  C   LIG    1      -22.601  77.323  31.461  0.00  0.00    +0.208 C 
ATOM      3  N   LIG    1      -21.818  77.464  32.603  0.00  0.00    -0.175 NA
ATOM      4  C   LIG    1      -20.539  77.774  32.440  0.00  0.00    +0.150 C 
ATOM      5  C   LIG    1      -19.857  77.468  31.087  0.00  0.00    +0.033 C 
ATOM      6  C   LIG    1      -20.648  77.273  30.023  0.00  0.00    +0.095 C 
ATOM      7  N   LIG    1      -22.021  77.234  30.184  0.00  0.00    -0.209 N 
ATOM      8  N   LIG    1      -22.939  77.207  29.184  0.00  0.00    -0.153 NA
ATOM      9  C   LIG    1      -24.104  77.259  29.824  0.00  0.00    +0.143 C 
ENDROOT
BRANCH   4  10
ATOM     10  N   LIG    1      -19.834  78.479  33.458  0.00  0.00    -0.270 NA
ATOM     11  C   LIG    1      -20.144  78.359  34.897  0.00  0.00    +0.092 C 
ATOM     12  C   LIG    1      -18.806  77.880  35.498  0.00  0.00    +0.025 C 
ATOM     13  C   LIG    1      -17.747  78.634  34.719  0.00  0.00    +0.017 C 
ATOM     14  C   LIG    1      -18.413  78.946  33.360  0.00  0.00    +0.087 C 
BRANCH  11  15
ATOM     15  C   LIG    1      -20.593  79.673  35.528  0.00  0.00    +0.008 A 
ATOM     16  C   LIG    1      -21.737  80.366  35.102  0.00  0.00    +0.128 A 
ATOM     17  F   LIG    1      -22.537  79.885  34.144  0.00  0.00    -0.205 F 
ATOM     18  C   LIG    1      -22.092  81.605  35.627  0.00  0.00    +0.041 A 
ATOM     19  C   LIG    1      -21.311  82.189  36.615  0.00  0.00    +0.041 A 
ATOM     20  C   LIG    1      -20.186  81.516  37.072  0.00  0.00    +0.124 A 
ATOM     21  F   LIG    1      -19.421  82.084  38.013  0.00  0.00    -0.205 F 
ATOM     22  C   LIG    1      -19.827  80.269  36.553  0.00  0.00    +0.046 A 
ENDBRANCH  11  15
ENDBRANCH   4  10
BRANCH   1  24
ATOM     23  C   LIG    1      -25.608  77.134  32.888  0.00  0.00    +0.205 C 
ATOM     24  N   LIG    1      -24.952  77.938  32.102  0.00  0.00    -0.216 NA
BRANCH  23  25
ATOM     25  C   LIG    1      -25.514  75.634  33.143  0.00  0.00    +0.143 C 
ATOM     26  C   LIG    1      -24.197  75.062  33.769  0.00  0.00    +0.029 C 
ATOM     27  C   LIG    1      -25.431  75.087  34.569  0.00  0.00    +0.029 C 
BRANCH  25  28
ATOM     28  C   LIG    1      -26.059  74.712  32.030  0.00  0.00    +0.322 C 
ATOM     29  O   LIG    1      -25.459  74.523  31.023  0.00  0.00    -0.250 OA
BRANCH  28  31
ATOM     30  C   LIG    1      -28.424  75.059  32.166  0.00  0.00    +0.280 C 
ATOM     31  O   LIG    1      -27.291  74.177  32.354  0.00  0.00    -0.467 OA
ENDBRANCH  28  31
ENDBRANCH  25  28
ENDBRANCH  23  25
BRANCH  23  32
ATOM     32  O   LIG    1      -26.569  77.720  33.661  0.00  0.00    -0.495 OA
ATOM     33  H   LIG    1      -27.323  77.145  33.871  0.00  0.00    +0.293 HD
ENDBRANCH  23  32
ENDBRANCH   1  24
TORSDOF 7
ENDMDL
MODEL 5
REMARK VINA RESULT:      -5.9     19.293     21.314
REMARK  Name = pdb/CHEMBL3925856.pdb
REMARK                            x       y       z     vdW  Elec       q    Type
REMARK                         _______ _______ _______ _____ _____    ______ ____
ROOT
ATOM      1  C   LIG    1      -18.966  86.206  13.400  0.00  0.00    +0.107 C 
ATOM      2  C   LIG    1      -19.535  84.936  13.231  0.00  0.00    +0.208 C 
ATOM      3  N   LIG    1      -20.768  84.385  13.565  0.00  0.00    -0.175 NA
ATOM      4  C   LIG    1      -20.814  83.084  13.819  0.00  0.00    +0.150 C 
ATOM      5  C   LIG    1      -19.704  82.169  13.257  0.00  0.00    +0.033 C 
ATOM      6  C   LIG    1      -18.552  82.746  12.884  0.00  0.00    +0.095 C 
ATOM      7  N   LIG    1      -18.437  84.124  12.899  0.00  0.00    -0.209 N 
ATOM      8  N   LIG    1      -17.293  84.828  12.704  0.00  0.00    -0.153 NA
ATOM      9  C   LIG    1      -17.666  86.091  12.893  0.00  0.00    +0.143 C 
ENDROOT
BRANCH   4  10
ATOM     10  N   LIG    1      -21.814  82.555  14.687  0.00  0.00    -0.270 NA
ATOM     11  C   LIG    1      -21.954  81.116  14.987  0.00  0.00    +0.092 C 
ATOM     12  C   LIG    1      -21.815  81.070  16.522  0.00  0.00    +0.025 C 
ATOM     13  C   LIG    1      -22.535  82.311  17.008  0.00  0.00    +0.017 C 
ATOM     14  C   LIG    1      -22.453  83.297  15.820  0.00  0.00    +0.087 C 
BRANCH  11  15
ATOM     15  C   LIG    1      -23.291  80.535  14.537  0.00  0.00    +0.008 A 
ATOM     16  C   LIG    1      -23.756  80.638  13.216  0.00  0.00    +0.128 A 
ATOM     17  F   LIG    1      -23.025  81.212  12.253  0.00  0.00    -0.205 F 
ATOM     18  C   LIG    1      -25.013  80.179  12.834  0.00  0.00    +0.041 A 
ATOM     19  C   LIG    1      -25.847  79.583  13.770  0.00  0.00    +0.041 A 
ATOM     20  C   LIG    1      -25.404  79.446  15.079  0.00  0.00    +0.124 A 
ATOM     21  F   LIG    1      -26.213  78.887  15.988  0.00  0.00    -0.205 F 
ATOM     22  C   LIG    1      -24.141  79.901  15.467  0.00  0.00    +0.046 A 
ENDBRANCH  11  15
ENDBRANCH   4  10
BRANCH   1  24
ATOM     23  C   LIG    1      -20.455  88.081  13.404  0.00  0.00    +0.205 C 
ATOM     24  N   LIG    1      -19.569  87.331  13.992  0.00  0.00    -0.216 NA
BRANCH  23  25
ATOM     25  C   LIG    1      -21.145  87.995  12.047  0.00  0.00    +0.143 C 
ATOM     26  C   LIG    1      -20.704  88.989  10.920  0.00  0.00    +0.029 C 
ATOM     27  C   LIG    1      -20.369  87.562  10.802  0.00  0.00    +0.029 C 
BRANCH  25  28
ATOM     28  C   LIG    1      -22.678  87.803  12.066  0.00  0.00    +0.322 C 
ATOM     29  O   LIG    1      -23.406  88.618  12.528  0.00  0.00    -0.250 OA
BRANCH  28  31
ATOM     30  C   LIG    1      -24.485  86.355  11.459  0.00  0.00    +0.280 C 
ATOM     31  O   LIG    1      -23.058  86.598  11.507  0.00  0.00    -0.467 OA
ENDBRANCH  28  31
ENDBRANCH  25  28
ENDBRANCH  23  25
BRANCH  23  32
ATOM     32  O   LIG    1      -20.884  89.161  14.123  0.00  0.00    -0.495 OA
ATOM     33  H   LIG    1      -21.729  89.028  14.582  0.00  0.00    +0.293 HD
ENDBRANCH  23  32
ENDBRANCH   1  24
TORSDOF 7
ENDMDL
MODEL 6
REMARK VINA RESULT:      -5.9     15.649     17.547
REMARK  Name = pdb/CHEMBL3925856.pdb
REMARK                            x       y       z     vdW  Elec       q    Type
REMARK                         _______ _______ _______ _____ _____    ______ ____
ROOT
ATOM      1  C   LIG    1      -23.259  78.110  15.258  0.00  0.00    +0.107 C 
ATOM      2  C   LIG    1      -22.857  76.770  15.180  0.00  0.00    +0.208 C 
ATOM      3  N   LIG    1      -23.446  75.568  15.562  0.00  0.00    -0.175 NA
ATOM      4  C   LIG    1      -22.644  74.569  15.905  0.00  0.00    +0.150 C 
ATOM      5  C   LIG    1      -21.184  74.568  15.399  0.00  0.00    +0.033 C 
ATOM      6  C   LIG    1      -20.673  75.734  14.978  0.00  0.00    +0.095 C 
ATOM      7  N   LIG    1      -21.483  76.852  14.896  0.00  0.00    -0.209 N 
ATOM      8  N   LIG    1      -21.066  78.119  14.645  0.00  0.00    -0.153 NA
ATOM      9  C   LIG    1      -22.178  78.842  14.749  0.00  0.00    +0.143 C 
ENDROOT
BRANCH   4  10
ATOM     10  N   LIG    1      -23.092  73.567  16.815  0.00  0.00    -0.270 NA
ATOM     11  C   LIG    1      -23.429  72.188  16.409  0.00  0.00    +0.092 C 
ATOM     12  C   LIG    1      -22.478  71.333  17.272  0.00  0.00    +0.025 C 
ATOM     13  C   LIG    1      -22.435  72.044  18.609  0.00  0.00    +0.017 C 
ATOM     14  C   LIG    1      -22.761  73.518  18.276  0.00  0.00    +0.087 C 
BRANCH  11  15
ATOM     15  C   LIG    1      -24.887  71.824  16.667  0.00  0.00    +0.008 A 
ATOM     16  C   LIG    1      -25.955  72.467  16.022  0.00  0.00    +0.128 A 
ATOM     17  F   LIG    1      -25.754  73.411  15.096  0.00  0.00    -0.205 F 
ATOM     18  C   LIG    1      -27.283  72.186  16.326  0.00  0.00    +0.041 A 
ATOM     19  C   LIG    1      -27.587  71.231  17.287  0.00  0.00    +0.041 A 
ATOM     20  C   LIG    1      -26.552  70.561  17.924  0.00  0.00    +0.124 A 
ATOM     21  F   LIG    1      -26.842  69.652  18.863  0.00  0.00    -0.205 F 
ATOM     22  C   LIG    1      -25.215  70.836  17.620  0.00  0.00    +0.046 A 
ENDBRANCH  11  15
ENDBRANCH   4  10
BRANCH   1  24
ATOM     23  C   LIG    1      -25.610  78.547  15.149  0.00  0.00    +0.205 C 
ATOM     24  N   LIG    1      -24.471  78.602  15.776  0.00  0.00    -0.216 NA
BRANCH  23  25
ATOM     25  C   LIG    1      -26.027  77.940  13.814  0.00  0.00    +0.143 C 
ATOM     26  C   LIG    1      -26.687  78.873  12.743  0.00  0.00    +0.029 C 
ATOM     27  C   LIG    1      -25.330  78.352  12.516  0.00  0.00    +0.029 C 
BRANCH  25  28
ATOM     28  C   LIG    1      -26.724  76.563  13.873  0.00  0.00    +0.322 C 
ATOM     29  O   LIG    1      -27.602  76.336  14.639  0.00  0.00    -0.250 OA
BRANCH  28  31
ATOM     30  C   LIG    1      -27.154  75.030  12.084  0.00  0.00    +0.280 C 
ATOM     31  O   LIG    1      -26.194  75.672  12.958  0.00  0.00    -0.467 OA
ENDBRANCH  28  31
ENDBRANCH  25  28
ENDBRANCH  23  25
BRANCH  23  32
ATOM     32  O   LIG    1      -26.666  79.127  15.794  0.00  0.00    -0.495 OA
ATOM     33  H   LIG    1      -26.502  80.035  16.096  0.00  0.00    +0.293 HD
ENDBRANCH  23  32
ENDBRANCH   1  24
TORSDOF 7
ENDMDL
MODEL 7
REMARK VINA RESULT:      -5.8     12.444     16.539
REMARK  Name = pdb/CHEMBL3925856.pdb
REMARK                            x       y       z     vdW  Elec       q    Type
REMARK                         _______ _______ _______ _____ _____    ______ ____
ROOT
ATOM      1  C   LIG    1      -25.583  77.314  31.597  0.00  0.00    +0.107 C 
ATOM      2  C   LIG    1      -25.266  77.614  32.929  0.00  0.00    +0.208 C 
ATOM      3  N   LIG    1      -24.306  78.425  33.527  0.00  0.00    -0.175 NA
ATOM      4  C   LIG    1      -23.864  78.076  34.728  0.00  0.00    +0.150 C 
ATOM      5  C   LIG    1      -24.738  77.158  35.613  0.00  0.00    +0.033 C 
ATOM      6  C   LIG    1      -25.696  76.442  35.009  0.00  0.00    +0.095 C 
ATOM      7  N   LIG    1      -25.950  76.629  33.662  0.00  0.00    -0.209 N 
ATOM      8  N   LIG    1      -26.769  75.867  32.894  0.00  0.00    -0.153 NA
ATOM      9  C   LIG    1      -26.623  76.379  31.674  0.00  0.00    +0.143 C 
ENDROOT
BRANCH   4  10
ATOM     10  N   LIG    1      -22.556  78.452  35.152  0.00  0.00    -0.270 NA
ATOM     11  C   LIG    1      -21.564  79.092  34.265  0.00  0.00    +0.092 C 
ATOM     12  C   LIG    1      -21.251  80.414  34.996  0.00  0.00    +0.025 C 
ATOM     13  C   LIG    1      -21.250  80.045  36.465  0.00  0.00    +0.017 C 
ATOM     14  C   LIG    1      -22.173  78.809  36.556  0.00  0.00    +0.087 C 
BRANCH  11  15
ATOM     15  C   LIG    1      -20.303  78.256  34.071  0.00  0.00    +0.008 A 
ATOM     16  C   LIG    1      -19.198  78.711  33.334  0.00  0.00    +0.128 A 
ATOM     17  F   LIG    1      -19.165  79.936  32.796  0.00  0.00    -0.205 F 
ATOM     18  C   LIG    1      -18.087  77.910  33.093  0.00  0.00    +0.041 A 
ATOM     19  C   LIG    1      -18.040  76.618  33.599  0.00  0.00    +0.041 A 
ATOM     20  C   LIG    1      -19.109  76.149  34.352  0.00  0.00    +0.124 A 
ATOM     21  F   LIG    1      -19.074  74.898  34.827  0.00  0.00    -0.205 F 
ATOM     22  C   LIG    1      -20.226  76.951  34.602  0.00  0.00    +0.046 A 
ENDBRANCH  11  15
ENDBRANCH   4  10
BRANCH   1  24
ATOM     23  C   LIG    1      -23.756  77.494  30.060  0.00  0.00    +0.205 C 
ATOM     24  N   LIG    1      -24.956  77.820  30.443  0.00  0.00    -0.216 NA
BRANCH  23  25
ATOM     25  C   LIG    1      -22.728  76.509  30.606  0.00  0.00    +0.143 C 
ATOM     26  C   LIG    1      -21.422  76.257  29.780  0.00  0.00    +0.029 C 
ATOM     27  C   LIG    1      -21.346  76.990  31.053  0.00  0.00    +0.029 C 
BRANCH  25  28
ATOM     28  C   LIG    1      -23.283  75.198  31.205  0.00  0.00    +0.322 C 
ATOM     29  O   LIG    1      -23.895  74.420  30.550  0.00  0.00    -0.250 OA
BRANCH  28  31
ATOM     30  C   LIG    1      -22.212  73.906  32.913  0.00  0.00    +0.280 C 
ATOM     31  O   LIG    1      -22.989  75.074  32.549  0.00  0.00    -0.467 OA
ENDBRANCH  28  31
ENDBRANCH  25  28
ENDBRANCH  23  25
BRANCH  23  32
ATOM     32  O   LIG    1      -23.301  78.133  28.942  0.00  0.00    -0.495 OA
ATOM     33  H   LIG    1      -23.853  78.005  28.153  0.00  0.00    +0.293 HD
ENDBRANCH  23  32
ENDBRANCH   1  24
TORSDOF 7
ENDMDL
MODEL 8
REMARK VINA RESULT:      -5.7     12.570     15.862
REMARK  Name = pdb/CHEMBL3925856.pdb
REMARK                            x       y       z     vdW  Elec       q    Type
REMARK                         _______ _______ _______ _____ _____    ______ ____
ROOT
ATOM      1  C   LIG    1      -25.479  76.919  31.614  0.00  0.00    +0.107 C 
ATOM      2  C   LIG    1      -25.549  77.378  32.936  0.00  0.00    +0.208 C 
ATOM      3  N   LIG    1      -25.146  78.551  33.566  0.00  0.00    -0.175 NA
ATOM      4  C   LIG    1      -24.806  78.478  34.846  0.00  0.00    +0.150 C 
ATOM      5  C   LIG    1      -25.336  77.304  35.699  0.00  0.00    +0.033 C 
ATOM      6  C   LIG    1      -25.778  76.216  35.053  0.00  0.00    +0.095 C 
ATOM      7  N   LIG    1      -25.857  76.221  33.672  0.00  0.00    -0.209 N 
ATOM      8  N   LIG    1      -26.129  75.147  32.887  0.00  0.00    -0.153 NA
ATOM      9  C   LIG    1      -26.013  75.624  31.651  0.00  0.00    +0.143 C 
ENDROOT
BRANCH   4  10
ATOM     10  N   LIG    1      -23.878  79.409  35.399  0.00  0.00    -0.270 NA
ATOM     11  C   LIG    1      -23.636  79.555  36.848  0.00  0.00    +0.092 C 
ATOM     12  C   LIG    1      -22.122  79.281  36.973  0.00  0.00    +0.025 C 
ATOM     13  C   LIG    1      -21.516  79.927  35.744  0.00  0.00    +0.017 C 
ATOM     14  C   LIG    1      -22.657  79.928  34.702  0.00  0.00    +0.087 C 
BRANCH  11  15
ATOM     15  C   LIG    1      -23.991  80.940  37.380  0.00  0.00    +0.008 A 
ATOM     16  C   LIG    1      -23.629  81.373  38.665  0.00  0.00    +0.128 A 
ATOM     17  F   LIG    1      -22.901  80.610  39.488  0.00  0.00    -0.205 F 
ATOM     18  C   LIG    1      -24.030  82.606  39.173  0.00  0.00    +0.041 A 
ATOM     19  C   LIG    1      -24.802  83.458  38.395  0.00  0.00    +0.041 A 
ATOM     20  C   LIG    1      -25.155  83.065  37.111  0.00  0.00    +0.124 A 
ATOM     21  F   LIG    1      -25.914  83.878  36.364  0.00  0.00    -0.205 F 
ATOM     22  C   LIG    1      -24.751  81.831  36.594  0.00  0.00    +0.046 A 
ENDBRANCH  11  15
ENDBRANCH   4  10
BRANCH   1  24
ATOM     23  C   LIG    1      -23.692  77.574  30.162  0.00  0.00    +0.205 C 
ATOM     24  N   LIG    1      -24.946  77.604  30.506  0.00  0.00    -0.216 NA
BRANCH  23  25
ATOM     25  C   LIG    1      -22.486  76.820  30.713  0.00  0.00    +0.143 C 
ATOM     26  C   LIG    1      -22.439  75.263  30.552  0.00  0.00    +0.029 C 
ATOM     27  C   LIG    1      -21.516  76.102  29.773  0.00  0.00    +0.029 C 
BRANCH  25  28
ATOM     28  C   LIG    1      -21.976  77.262  32.102  0.00  0.00    +0.322 C 
ATOM     29  O   LIG    1      -22.333  76.728  33.100  0.00  0.00    -0.250 OA
BRANCH  28  31
ATOM     30  C   LIG    1      -19.777  78.089  32.566  0.00  0.00    +0.280 C 
ATOM     31  O   LIG    1      -21.097  78.326  32.020  0.00  0.00    -0.467 OA
ENDBRANCH  28  31
ENDBRANCH  25  28
ENDBRANCH  23  25
BRANCH  23  32
ATOM     32  O   LIG    1      -23.357  78.349  29.088  0.00  0.00    -0.495 OA
ATOM     33  H   LIG    1      -22.735  77.932  28.469  0.00  0.00    +0.293 HD
ENDBRANCH  23  32
ENDBRANCH   1  24
TORSDOF 7
ENDMDL
MODEL 9
REMARK VINA RESULT:      -5.6     13.337     17.332
REMARK  Name = pdb/CHEMBL3925856.pdb
REMARK                            x       y       z     vdW  Elec       q    Type
REMARK                         _______ _______ _______ _____ _____    ______ ____
ROOT
ATOM      1  C   LIG    1      -22.962  77.275  30.744  0.00  0.00    +0.107 C 
ATOM      2  C   LIG    1      -22.078  77.519  31.804  0.00  0.00    +0.208 C 
ATOM      3  N   LIG    1      -22.255  77.802  33.155  0.00  0.00    -0.175 NA
ATOM      4  C   LIG    1      -21.332  78.538  33.758  0.00  0.00    +0.150 C 
ATOM      5  C   LIG    1      -19.914  78.612  33.149  0.00  0.00    +0.033 C 
ATOM      6  C   LIG    1      -19.772  78.269  31.861  0.00  0.00    +0.095 C 
ATOM      7  N   LIG    1      -20.850  77.755  31.163  0.00  0.00    -0.209 N 
ATOM      8  N   LIG    1      -20.893  77.520  29.827  0.00  0.00    -0.153 NA
ATOM      9  C   LIG    1      -22.144  77.115  29.619  0.00  0.00    +0.143 C 
ENDROOT
BRANCH   4  10
ATOM     10  N   LIG    1      -21.673  79.336  34.889  0.00  0.00    -0.270 NA
ATOM     11  C   LIG    1      -21.160  80.703  35.107  0.00  0.00    +0.092 C 
ATOM     12  C   LIG    1      -22.452  81.542  35.203  0.00  0.00    +0.025 C 
ATOM     13  C   LIG    1      -23.423  80.661  35.960  0.00  0.00    +0.017 C 
ATOM     14  C   LIG    1      -22.942  79.219  35.676  0.00  0.00    +0.087 C 
BRANCH  11  15
ATOM     15  C   LIG    1      -20.320  80.837  36.372  0.00  0.00    +0.008 A 
ATOM     16  C   LIG    1      -19.328  79.909  36.725  0.00  0.00    +0.128 A 
ATOM     17  F   LIG    1      -19.023  78.870  35.939  0.00  0.00    -0.205 F 
ATOM     18  C   LIG    1      -18.624  79.994  37.922  0.00  0.00    +0.041 A 
ATOM     19  C   LIG    1      -18.885  81.031  38.808  0.00  0.00    +0.041 A 
ATOM     20  C   LIG    1      -19.845  81.978  38.474  0.00  0.00    +0.124 A 
ATOM     21  F   LIG    1      -20.111  82.970  39.334  0.00  0.00    -0.205 F 
ATOM     22  C   LIG    1      -20.551  81.900  37.271  0.00  0.00    +0.046 A 
ENDBRANCH  11  15
ENDBRANCH   4  10
BRANCH   1  24
ATOM     23  C   LIG    1      -25.059  76.222  31.221  0.00  0.00    +0.205 C 
ATOM     24  N   LIG    1      -24.368  77.243  30.804  0.00  0.00    -0.216 NA
BRANCH  23  25
ATOM     25  C   LIG    1      -24.658  74.869  31.799  0.00  0.00    +0.143 C 
ATOM     26  C   LIG    1      -25.358  73.582  31.245  0.00  0.00    +0.029 C 
ATOM     27  C   LIG    1      -23.942  73.830  30.934  0.00  0.00    +0.029 C 
BRANCH  25  28
ATOM     28  C   LIG    1      -24.480  74.802  33.332  0.00  0.00    +0.322 C 
ATOM     29  O   LIG    1      -23.484  74.392  33.830  0.00  0.00    -0.250 OA
BRANCH  28  31
ATOM     30  C   LIG    1      -25.398  76.420  34.840  0.00  0.00    +0.280 C 
ATOM     31  O   LIG    1      -25.599  75.253  34.006  0.00  0.00    -0.467 OA
ENDBRANCH  28  31
ENDBRANCH  25  28
ENDBRANCH  23  25
BRANCH  23  32
ATOM     32  O   LIG    1      -26.416  76.362  31.154  0.00  0.00    -0.495 OA
ATOM     33  H   LIG    1      -26.908  75.525  31.171  0.00  0.00    +0.293 HD
ENDBRANCH  23  32
ENDBRANCH   1  24
TORSDOF 7
ENDMDL
