MODEL 1
REMARK VINA RESULT:      -6.5      0.000      0.000
REMARK  Name = pdb/CHEMBL3678301.pdb
REMARK                            x       y       z     vdW  Elec       q    Type
REMARK                         _______ _______ _______ _____ _____    ______ ____
ROOT
ATOM      1  C   LIG    1      -24.317  88.368  11.088  0.00  0.00    +0.162 A 
ATOM      2  C   LIG    1      -24.050  89.725  10.842  0.00  0.00    +0.162 A 
ATOM      3  C   LIG    1      -22.773  90.233  11.128  0.00  0.00    +0.050 A 
ATOM      4  C   LIG    1      -21.782  89.420  11.679  0.00  0.00    +0.009 A 
ATOM      5  C   LIG    1      -22.054  88.079  11.951  0.00  0.00    -0.021 A 
ATOM      6  C   LIG    1      -23.292  87.552  11.568  0.00  0.00    +0.055 A 
ENDROOT
BRANCH   1   8
ATOM      7  C   LIG    1      -25.649  86.821   9.906  0.00  0.00    +0.277 C 
ATOM      8  O   LIG    1      -25.582  87.870  10.882  0.00  0.00    -0.491 OA
ENDBRANCH   1   8
BRANCH   5   9
ATOM      9  C   LIG    1      -21.101  87.141  12.674  0.00  0.00    +0.119 C 
ATOM     10  C   LIG    1      -19.735  87.840  12.764  0.00  0.00    +0.036 C 
BRANCH   9  11
ATOM     11  N   LIG    1      -21.651  86.594  13.914  0.00  0.00    -0.290 N 
ATOM     12  C   LIG    1      -22.004  85.283  14.113  0.00  0.00    +0.162 A 
ATOM     13  N   LIG    1      -21.963  84.271  13.225  0.00  0.00    -0.234 NA
ATOM     14  C   LIG    1      -22.361  83.095  13.742  0.00  0.00    +0.130 A 
ATOM     15  C   LIG    1      -22.780  82.902  15.057  0.00  0.00    +0.045 A 
ATOM     16  C   LIG    1      -22.803  83.987  15.947  0.00  0.00    +0.050 A 
ATOM     17  C   LIG    1      -22.408  85.217  15.438  0.00  0.00    +0.111 A 
ATOM     18  N   LIG    1      -22.362  86.442  16.031  0.00  0.00    -0.213 NA
ATOM     19  C   LIG    1      -21.994  87.264  15.079  0.00  0.00    +0.196 A 
BRANCH  19  20
ATOM     20  N   LIG    1      -21.940  88.599  15.237  0.00  0.00    -0.329 N 
ATOM     21  H   LIG    1      -22.862  88.988  15.438  0.00  0.00    +0.145 HD
ATOM     22  H   LIG    1      -21.542  89.124  14.465  0.00  0.00    +0.145 HD
ENDBRANCH  19  20
BRANCH  15  23
ATOM     23  C   LIG    1      -23.176  81.636  15.513  0.00  0.00    -0.065 C 
ATOM     24  C   LIG    1      -23.564  80.525  15.724  0.00  0.00    -0.095 C 
BRANCH  24  25
ATOM     25  C   LIG    1      -24.122  79.170  15.809  0.00  0.00    +0.117 C 
BRANCH  25  26
ATOM     26  C   LIG    1      -25.464  79.102  15.066  0.00  0.00    +0.168 C 
BRANCH  26  27
ATOM     27  O   LIG    1      -26.523  78.723  15.941  0.00  0.00    -0.394 OA
ATOM     28  H   LIG    1      -26.620  77.755  15.879  0.00  0.00    +0.209 HD
ENDBRANCH  26  27
ENDBRANCH  25  26
ENDBRANCH  24  25
ENDBRANCH  15  23
ENDBRANCH   9  11
ENDBRANCH   5   9
BRANCH   2  29
ATOM     29  O   LIG    1      -25.048  90.488  10.283  0.00  0.00    -0.484 OA
BRANCH  29  30
ATOM     30  C   LIG    1      -24.889  91.909  10.339  0.00  0.00    +0.266 C 
BRANCH  30  31
ATOM     31  C   LIG    1      -25.484  92.559  11.568  0.00  0.00    +0.008 A 
ATOM     32  C   LIG    1      -25.433  93.942  11.689  0.00  0.00    +0.118 A 
ATOM     33  N   LIG    1      -26.033  94.647  12.673  0.00  0.00    -0.251 NA
ATOM     34  C   LIG    1      -26.745  93.960  13.611  0.00  0.00    +0.144 A 
ATOM     35  C   LIG    1      -26.815  92.566  13.592  0.00  0.00    +0.033 A 
ATOM     36  C   LIG    1      -26.181  91.867  12.562  0.00  0.00    +0.010 A 
BRANCH  34  37
ATOM     37  C   LIG    1      -27.461  94.754  14.694  0.00  0.00    +0.434 C 
ATOM     38  F   LIG    1      -28.258  93.983  15.490  0.00  0.00    -0.164 F 
ATOM     39  F   LIG    1      -28.267  95.732  14.191  0.00  0.00    -0.164 F 
ATOM     40  F   LIG    1      -26.607  95.390  15.551  0.00  0.00    -0.164 F 
ENDBRANCH  34  37
ENDBRANCH  30  31
ENDBRANCH  29  30
ENDBRANCH   2  29
TORSDOF 12
ENDMDL
MODEL 2
REMARK VINA RESULT:      -6.1      6.483     11.197
REMARK  Name = pdb/CHEMBL3678301.pdb
REMARK                            x       y       z     vdW  Elec       q    Type
REMARK                         _______ _______ _______ _____ _____    ______ ____
ROOT
ATOM      1  C   LIG    1      -23.855  78.297  15.473  0.00  0.00    +0.162 A 
ATOM      2  C   LIG    1      -22.935  79.334  15.707  0.00  0.00    +0.162 A 
ATOM      3  C   LIG    1      -21.572  79.104  15.468  0.00  0.00    +0.050 A 
ATOM      4  C   LIG    1      -21.117  77.857  15.034  0.00  0.00    +0.009 A 
ATOM      5  C   LIG    1      -22.025  76.818  14.829  0.00  0.00    -0.021 A 
ATOM      6  C   LIG    1      -23.392  77.082  14.968  0.00  0.00    +0.055 A 
ENDROOT
BRANCH   1   8
ATOM      7  C   LIG    1      -26.041  78.543  14.622  0.00  0.00    +0.277 C 
ATOM      8  O   LIG    1      -25.185  78.481  15.772  0.00  0.00    -0.491 OA
ENDBRANCH   1   8
BRANCH   5   9
ATOM      9  C   LIG    1      -21.630  75.389  14.493  0.00  0.00    +0.119 C 
ATOM     10  C   LIG    1      -20.356  75.445  13.637  0.00  0.00    +0.036 C 
BRANCH   9  11
ATOM     11  N   LIG    1      -21.613  74.501  15.655  0.00  0.00    -0.290 N 
ATOM     12  C   LIG    1      -22.641  73.675  16.035  0.00  0.00    +0.162 A 
ATOM     13  N   LIG    1      -23.855  73.548  15.466  0.00  0.00    -0.234 NA
ATOM     14  C   LIG    1      -24.632  72.632  16.071  0.00  0.00    +0.130 A 
ATOM     15  C   LIG    1      -24.256  71.872  17.176  0.00  0.00    +0.045 A 
ATOM     16  C   LIG    1      -22.979  72.037  17.733  0.00  0.00    +0.050 A 
ATOM     17  C   LIG    1      -22.158  72.985  17.136  0.00  0.00    +0.111 A 
ATOM     18  N   LIG    1      -20.902  73.396  17.467  0.00  0.00    -0.213 NA
ATOM     19  C   LIG    1      -20.632  74.363  16.625  0.00  0.00    +0.196 A 
BRANCH  19  20
ATOM     20  N   LIG    1      -19.517  75.113  16.696  0.00  0.00    -0.329 N 
ATOM     21  H   LIG    1      -18.975  74.897  17.534  0.00  0.00    +0.145 HD
ATOM     22  H   LIG    1      -19.653  76.119  16.665  0.00  0.00    +0.145 HD
ENDBRANCH  19  20
BRANCH  15  23
ATOM     23  C   LIG    1      -25.133  70.935  17.743  0.00  0.00    -0.065 C 
ATOM     24  C   LIG    1      -26.014  70.260  18.187  0.00  0.00    -0.095 C 
BRANCH  24  25
ATOM     25  C   LIG    1      -27.205  69.591  18.723  0.00  0.00    +0.117 C 
BRANCH  25  26
ATOM     26  C   LIG    1      -28.086  70.599  19.475  0.00  0.00    +0.168 C 
BRANCH  26  27
ATOM     27  O   LIG    1      -29.416  70.111  19.632  0.00  0.00    -0.394 OA
ATOM     28  H   LIG    1      -29.984  70.875  19.838  0.00  0.00    +0.209 HD
ENDBRANCH  26  27
ENDBRANCH  25  26
ENDBRANCH  24  25
ENDBRANCH  15  23
ENDBRANCH   9  11
ENDBRANCH   5   9
BRANCH   2  29
ATOM     29  O   LIG    1      -23.425  80.550  16.118  0.00  0.00    -0.484 OA
BRANCH  29  30
ATOM     30  C   LIG    1      -22.484  81.480  16.664  0.00  0.00    +0.266 C 
BRANCH  30  31
ATOM     31  C   LIG    1      -22.509  82.848  16.019  0.00  0.00    +0.008 A 
ATOM     32  C   LIG    1      -22.813  83.955  16.801  0.00  0.00    +0.118 A 
ATOM     33  N   LIG    1      -22.749  85.235  16.374  0.00  0.00    -0.251 NA
ATOM     34  C   LIG    1      -22.353  85.463  15.090  0.00  0.00    +0.144 A 
ATOM     35  C   LIG    1      -22.069  84.410  14.220  0.00  0.00    +0.033 A 
ATOM     36  C   LIG    1      -22.147  83.097  14.693  0.00  0.00    +0.010 A 
BRANCH  34  37
ATOM     37  C   LIG    1      -22.235  86.906  14.620  0.00  0.00    +0.434 C 
ATOM     38  F   LIG    1      -22.179  87.804  15.647  0.00  0.00    -0.164 F 
ATOM     39  F   LIG    1      -23.280  87.297  13.836  0.00  0.00    -0.164 F 
ATOM     40  F   LIG    1      -21.113  87.142  13.877  0.00  0.00    -0.164 F 
ENDBRANCH  34  37
ENDBRANCH  30  31
ENDBRANCH  29  30
ENDBRANCH   2  29
TORSDOF 12
ENDMDL
MODEL 3
REMARK VINA RESULT:      -5.9      8.911     11.277
REMARK  Name = pdb/CHEMBL3678301.pdb
REMARK                            x       y       z     vdW  Elec       q    Type
REMARK                         _______ _______ _______ _____ _____    ______ ____
ROOT
ATOM      1  C   LIG    1      -30.290  80.745   9.650  0.00  0.00    +0.162 A 
ATOM      2  C   LIG    1      -31.492  80.736  10.378  0.00  0.00    +0.162 A 
ATOM      3  C   LIG    1      -31.691  79.749  11.356  0.00  0.00    +0.050 A 
ATOM      4  C   LIG    1      -30.730  78.764  11.591  0.00  0.00    +0.009 A 
ATOM      5  C   LIG    1      -29.548  78.754  10.849  0.00  0.00    -0.021 A 
ATOM      6  C   LIG    1      -29.309  79.799   9.950  0.00  0.00    +0.055 A 
ENDROOT
BRANCH   1   8
ATOM      7  C   LIG    1      -28.794  82.233   8.596  0.00  0.00    +0.277 C 
ATOM      8  O   LIG    1      -30.108  81.659   8.639  0.00  0.00    -0.491 OA
ENDBRANCH   1   8
BRANCH   5   9
ATOM      9  C   LIG    1      -28.499  77.656  10.923  0.00  0.00    +0.119 C 
ATOM     10  C   LIG    1      -27.503  77.883   9.775  0.00  0.00    +0.036 C 
BRANCH   9  11
ATOM     11  N   LIG    1      -27.941  77.473  12.262  0.00  0.00    -0.290 N 
ATOM     12  C   LIG    1      -26.991  78.278  12.840  0.00  0.00    +0.162 A 
ATOM     13  N   LIG    1      -26.363  79.338  12.298  0.00  0.00    -0.234 NA
ATOM     14  C   LIG    1      -25.495  79.928  13.138  0.00  0.00    +0.130 A 
ATOM     15  C   LIG    1      -25.243  79.514  14.444  0.00  0.00    +0.045 A 
ATOM     16  C   LIG    1      -25.924  78.405  14.968  0.00  0.00    +0.050 A 
ATOM     17  C   LIG    1      -26.819  77.767  14.118  0.00  0.00    +0.111 A 
ATOM     18  N   LIG    1      -27.587  76.660  14.318  0.00  0.00    -0.213 NA
ATOM     19  C   LIG    1      -28.179  76.450  13.168  0.00  0.00    +0.196 A 
BRANCH  19  20
ATOM     20  N   LIG    1      -28.945  75.371  12.918  0.00  0.00    -0.329 N 
ATOM     21  H   LIG    1      -29.609  75.552  12.165  0.00  0.00    +0.145 HD
ATOM     22  H   LIG    1      -29.463  75.000  13.709  0.00  0.00    +0.145 HD
ENDBRANCH  19  20
BRANCH  15  23
ATOM     23  C   LIG    1      -24.319  80.193  15.254  0.00  0.00    -0.065 C 
ATOM     24  C   LIG    1      -23.420  80.624  15.914  0.00  0.00    -0.095 C 
BRANCH  24  25
ATOM     25  C   LIG    1      -22.243  80.976  16.715  0.00  0.00    +0.117 C 
BRANCH  25  26
ATOM     26  C   LIG    1      -21.794  82.410  16.397  0.00  0.00    +0.168 C 
BRANCH  26  27
ATOM     27  O   LIG    1      -22.323  83.341  17.338  0.00  0.00    -0.394 OA
ATOM     28  H   LIG    1      -22.565  84.146  16.845  0.00  0.00    +0.209 HD
ENDBRANCH  26  27
ENDBRANCH  25  26
ENDBRANCH  24  25
ENDBRANCH  15  23
ENDBRANCH   9  11
ENDBRANCH   5   9
BRANCH   2  29
ATOM     29  O   LIG    1      -32.405  81.732  10.129  0.00  0.00    -0.484 OA
BRANCH  29  30
ATOM     30  C   LIG    1      -33.762  81.331   9.912  0.00  0.00    +0.266 C 
BRANCH  30  31
ATOM     31  C   LIG    1      -34.792  82.352  10.342  0.00  0.00    +0.008 A 
ATOM     32  C   LIG    1      -36.020  82.383   9.692  0.00  0.00    +0.118 A 
ATOM     33  N   LIG    1      -37.062  83.160  10.060  0.00  0.00    -0.251 NA
ATOM     34  C   LIG    1      -36.907  83.966  11.149  0.00  0.00    +0.144 A 
ATOM     35  C   LIG    1      -35.695  84.030  11.838  0.00  0.00    +0.033 A 
ATOM     36  C   LIG    1      -34.636  83.215  11.429  0.00  0.00    +0.010 A 
BRANCH  34  37
ATOM     37  C   LIG    1      -38.094  84.807  11.595  0.00  0.00    +0.434 C 
ATOM     38  F   LIG    1      -38.621  84.405  12.789  0.00  0.00    -0.164 F 
ATOM     39  F   LIG    1      -39.126  84.785  10.703  0.00  0.00    -0.164 F 
ATOM     40  F   LIG    1      -37.787  86.128  11.765  0.00  0.00    -0.164 F 
ENDBRANCH  34  37
ENDBRANCH  30  31
ENDBRANCH  29  30
ENDBRANCH   2  29
TORSDOF 12
ENDMDL
MODEL 4
REMARK VINA RESULT:      -5.9     20.815     24.255
REMARK  Name = pdb/CHEMBL3678301.pdb
REMARK                            x       y       z     vdW  Elec       q    Type
REMARK                         _______ _______ _______ _____ _____    ______ ____
ROOT
ATOM      1  C   LIG    1      -36.061  67.685  22.018  0.00  0.00    +0.162 A 
ATOM      2  C   LIG    1      -36.919  68.776  21.801  0.00  0.00    +0.162 A 
ATOM      3  C   LIG    1      -37.502  68.944  20.535  0.00  0.00    +0.050 A 
ATOM      4  C   LIG    1      -37.218  68.066  19.489  0.00  0.00    +0.009 A 
ATOM      5  C   LIG    1      -36.343  66.998  19.695  0.00  0.00    -0.021 A 
ATOM      6  C   LIG    1      -35.847  66.774  20.984  0.00  0.00    +0.055 A 
ENDROOT
BRANCH   1   8
ATOM      7  C   LIG    1      -35.251  66.184  23.649  0.00  0.00    +0.277 C 
ATOM      8  O   LIG    1      -35.423  67.546  23.229  0.00  0.00    -0.491 OA
ENDBRANCH   1   8
BRANCH   5   9
ATOM      9  C   LIG    1      -35.855  66.065  18.598  0.00  0.00    +0.119 C 
ATOM     10  C   LIG    1      -36.171  66.727  17.248  0.00  0.00    +0.036 C 
BRANCH   9  11
ATOM     11  N   LIG    1      -34.487  65.591  18.803  0.00  0.00    -0.290 N 
ATOM     12  C   LIG    1      -33.355  66.348  18.641  0.00  0.00    +0.162 A 
ATOM     13  N   LIG    1      -33.266  67.627  18.229  0.00  0.00    -0.234 NA
ATOM     14  C   LIG    1      -32.002  68.088  18.195  0.00  0.00    +0.130 A 
ATOM     15  C   LIG    1      -30.874  67.348  18.542  0.00  0.00    +0.045 A 
ATOM     16  C   LIG    1      -31.017  66.019  18.969  0.00  0.00    +0.050 A 
ATOM     17  C   LIG    1      -32.309  65.512  19.003  0.00  0.00    +0.111 A 
ATOM     18  N   LIG    1      -32.759  64.268  19.327  0.00  0.00    -0.213 NA
ATOM     19  C   LIG    1      -34.051  64.311  19.114  0.00  0.00    +0.196 A 
BRANCH  19  20
ATOM     20  N   LIG    1      -34.852  63.234  19.212  0.00  0.00    -0.329 N 
ATOM     21  H   LIG    1      -35.510  63.328  19.986  0.00  0.00    +0.145 HD
ATOM     22  H   LIG    1      -34.384  62.338  19.307  0.00  0.00    +0.145 HD
ENDBRANCH  19  20
BRANCH  15  23
ATOM     23  C   LIG    1      -29.591  67.911  18.479  0.00  0.00    -0.065 C 
ATOM     24  C   LIG    1      -28.536  68.463  18.594  0.00  0.00    -0.095 C 
BRANCH  24  25
ATOM     25  C   LIG    1      -27.323  69.236  18.880  0.00  0.00    +0.117 C 
BRANCH  25  26
ATOM     26  C   LIG    1      -27.375  69.793  20.311  0.00  0.00    +0.168 C 
BRANCH  26  27
ATOM     27  O   LIG    1      -28.550  70.570  20.524  0.00  0.00    -0.394 OA
ATOM     28  H   LIG    1      -29.169  70.025  21.044  0.00  0.00    +0.209 HD
ENDBRANCH  26  27
ENDBRANCH  25  26
ENDBRANCH  24  25
ENDBRANCH  15  23
ENDBRANCH   9  11
ENDBRANCH   5   9
BRANCH   2  29
ATOM     29  O   LIG    1      -37.186  69.609  22.861  0.00  0.00    -0.484 OA
BRANCH  29  30
ATOM     30  C   LIG    1      -38.517  69.586  23.387  0.00  0.00    +0.266 C 
BRANCH  30  31
ATOM     31  C   LIG    1      -39.046  70.938  23.810  0.00  0.00    +0.008 A 
ATOM     32  C   LIG    1      -38.200  71.812  24.481  0.00  0.00    +0.118 A 
ATOM     33  N   LIG    1      -38.513  73.087  24.801  0.00  0.00    -0.251 NA
ATOM     34  C   LIG    1      -39.740  73.556  24.438  0.00  0.00    +0.144 A 
ATOM     35  C   LIG    1      -40.671  72.735  23.800  0.00  0.00    +0.033 A 
ATOM     36  C   LIG    1      -40.316  71.421  23.484  0.00  0.00    +0.010 A 
BRANCH  34  37
ATOM     37  C   LIG    1      -40.079  75.005  24.757  0.00  0.00    +0.434 C 
ATOM     38  F   LIG    1      -41.375  75.183  25.145  0.00  0.00    -0.164 F 
ATOM     39  F   LIG    1      -39.886  75.841  23.697  0.00  0.00    -0.164 F 
ATOM     40  F   LIG    1      -39.326  75.525  25.773  0.00  0.00    -0.164 F 
ENDBRANCH  34  37
ENDBRANCH  30  31
ENDBRANCH  29  30
ENDBRANCH   2  29
TORSDOF 12
ENDMDL
MODEL 5
REMARK VINA RESULT:      -5.8     20.525     25.481
REMARK  Name = pdb/CHEMBL3678301.pdb
REMARK                            x       y       z     vdW  Elec       q    Type
REMARK                         _______ _______ _______ _____ _____    ______ ____
ROOT
ATOM      1  C   LIG    1      -41.834  71.731  22.708  0.00  0.00    +0.162 A 
ATOM      2  C   LIG    1      -40.794  70.861  23.077  0.00  0.00    +0.162 A 
ATOM      3  C   LIG    1      -39.722  71.360  23.834  0.00  0.00    +0.050 A 
ATOM      4  C   LIG    1      -39.660  72.707  24.195  0.00  0.00    +0.009 A 
ATOM      5  C   LIG    1      -40.678  73.578  23.805  0.00  0.00    -0.021 A 
ATOM      6  C   LIG    1      -41.794  73.057  23.141  0.00  0.00    +0.055 A 
ENDROOT
BRANCH   1   8
ATOM      7  C   LIG    1      -42.824  71.796  20.568  0.00  0.00    +0.277 C 
ATOM      8  O   LIG    1      -42.854  71.278  21.906  0.00  0.00    -0.491 OA
ENDBRANCH   1   8
BRANCH   5   9
ATOM      9  C   LIG    1      -40.647  75.083  24.022  0.00  0.00    +0.119 C 
ATOM     10  C   LIG    1      -41.986  75.654  23.529  0.00  0.00    +0.036 C 
BRANCH   9  11
ATOM     11  N   LIG    1      -40.212  75.469  25.363  0.00  0.00    -0.290 N 
ATOM     12  C   LIG    1      -38.940  75.855  25.703  0.00  0.00    +0.162 A 
ATOM     13  N   LIG    1      -37.853  75.911  24.910  0.00  0.00    -0.234 NA
ATOM     14  C   LIG    1      -36.753  76.351  25.547  0.00  0.00    +0.130 A 
ATOM     15  C   LIG    1      -36.703  76.721  26.889  0.00  0.00    +0.045 A 
ATOM     16  C   LIG    1      -37.863  76.648  27.676  0.00  0.00    +0.050 A 
ATOM     17  C   LIG    1      -39.012  76.186  27.048  0.00  0.00    +0.111 A 
ATOM     18  N   LIG    1      -40.261  75.968  27.545  0.00  0.00    -0.213 NA
ATOM     19  C   LIG    1      -40.937  75.456  26.546  0.00  0.00    +0.196 A 
BRANCH  19  20
ATOM     20  N   LIG    1      -42.195  74.995  26.667  0.00  0.00    -0.329 N 
ATOM     21  H   LIG    1      -42.233  73.982  26.553  0.00  0.00    +0.145 HD
ATOM     22  H   LIG    1      -42.882  75.404  26.041  0.00  0.00    +0.145 HD
ENDBRANCH  19  20
BRANCH  15  23
ATOM     23  C   LIG    1      -35.509  77.173  27.472  0.00  0.00    -0.065 C 
ATOM     24  C   LIG    1      -34.447  77.616  27.796  0.00  0.00    -0.095 C 
BRANCH  24  25
ATOM     25  C   LIG    1      -33.104  78.167  28.006  0.00  0.00    +0.117 C 
BRANCH  25  26
ATOM     26  C   LIG    1      -32.793  79.228  26.939  0.00  0.00    +0.168 C 
BRANCH  26  27
ATOM     27  O   LIG    1      -32.421  78.626  25.702  0.00  0.00    -0.394 OA
ATOM     28  H   LIG    1      -31.788  77.913  25.904  0.00  0.00    +0.209 HD
ENDBRANCH  26  27
ENDBRANCH  25  26
ENDBRANCH  24  25
ENDBRANCH  15  23
ENDBRANCH   9  11
ENDBRANCH   5   9
BRANCH   2  29
ATOM     29  O   LIG    1      -40.900  69.539  22.716  0.00  0.00    -0.484 OA
BRANCH  29  30
ATOM     30  C   LIG    1      -40.272  69.147  21.491  0.00  0.00    +0.266 C 
BRANCH  30  31
ATOM     31  C   LIG    1      -38.851  68.652  21.646  0.00  0.00    +0.008 A 
ATOM     32  C   LIG    1      -38.485  68.018  22.827  0.00  0.00    +0.118 A 
ATOM     33  N   LIG    1      -37.289  67.426  23.039  0.00  0.00    -0.251 NA
ATOM     34  C   LIG    1      -36.377  67.443  22.026  0.00  0.00    +0.144 A 
ATOM     35  C   LIG    1      -36.643  68.094  20.821  0.00  0.00    +0.033 A 
ATOM     36  C   LIG    1      -37.889  68.698  20.634  0.00  0.00    +0.010 A 
BRANCH  34  37
ATOM     37  C   LIG    1      -35.047  66.737  22.246  0.00  0.00    +0.434 C 
ATOM     38  F   LIG    1      -34.360  67.207  23.328  0.00  0.00    -0.164 F 
ATOM     39  F   LIG    1      -34.199  66.857  21.183  0.00  0.00    -0.164 F 
ATOM     40  F   LIG    1      -35.176  65.394  22.459  0.00  0.00    -0.164 F 
ENDBRANCH  34  37
ENDBRANCH  30  31
ENDBRANCH  29  30
ENDBRANCH   2  29
TORSDOF 12
ENDMDL
MODEL 6
REMARK VINA RESULT:      -5.7     19.586     22.433
REMARK  Name = pdb/CHEMBL3678301.pdb
REMARK                            x       y       z     vdW  Elec       q    Type
REMARK                         _______ _______ _______ _____ _____    ______ ____
ROOT
ATOM      1  C   LIG    1      -28.914  83.023  37.184  0.00  0.00    +0.162 A 
ATOM      2  C   LIG    1      -28.628  84.247  36.556  0.00  0.00    +0.162 A 
ATOM      3  C   LIG    1      -27.288  84.606  36.339  0.00  0.00    +0.050 A 
ATOM      4  C   LIG    1      -26.244  83.783  36.764  0.00  0.00    +0.009 A 
ATOM      5  C   LIG    1      -26.527  82.580  37.413  0.00  0.00    -0.021 A 
ATOM      6  C   LIG    1      -27.861  82.179  37.535  0.00  0.00    +0.055 A 
ENDROOT
BRANCH   1   8
ATOM      7  C   LIG    1      -30.640  81.439  36.909  0.00  0.00    +0.277 C 
ATOM      8  O   LIG    1      -30.217  82.689  37.471  0.00  0.00    -0.491 OA
ENDBRANCH   1   8
BRANCH   5   9
ATOM      9  C   LIG    1      -25.476  81.677  38.039  0.00  0.00    +0.119 C 
ATOM     10  C   LIG    1      -26.199  80.452  38.620  0.00  0.00    +0.036 C 
BRANCH   9  11
ATOM     11  N   LIG    1      -24.332  81.421  37.164  0.00  0.00    -0.290 N 
ATOM     12  C   LIG    1      -24.322  80.538  36.113  0.00  0.00    +0.162 A 
ATOM     13  N   LIG    1      -25.311  79.718  35.712  0.00  0.00    -0.234 NA
ATOM     14  C   LIG    1      -24.988  78.987  34.629  0.00  0.00    +0.130 A 
ATOM     15  C   LIG    1      -23.765  79.045  33.964  0.00  0.00    +0.045 A 
ATOM     16  C   LIG    1      -22.766  79.918  34.418  0.00  0.00    +0.050 A 
ATOM     17  C   LIG    1      -23.066  80.677  35.541  0.00  0.00    +0.111 A 
ATOM     18  N   LIG    1      -22.302  81.569  36.232  0.00  0.00    -0.213 NA
ATOM     19  C   LIG    1      -23.046  81.932  37.248  0.00  0.00    +0.196 A 
BRANCH  19  20
ATOM     20  N   LIG    1      -22.603  82.728  38.239  0.00  0.00    -0.329 N 
ATOM     21  H   LIG    1      -21.588  82.830  38.209  0.00  0.00    +0.145 HD
ATOM     22  H   LIG    1      -22.860  82.452  39.182  0.00  0.00    +0.145 HD
ENDBRANCH  19  20
BRANCH  15  23
ATOM     23  C   LIG    1      -23.515  78.246  32.837  0.00  0.00    -0.065 C 
ATOM     24  C   LIG    1      -23.484  77.520  31.888  0.00  0.00    -0.095 C 
BRANCH  24  25
ATOM     25  C   LIG    1      -23.616  76.566  30.782  0.00  0.00    +0.117 C 
BRANCH  25  26
ATOM     26  C   LIG    1      -22.733  76.996  29.602  0.00  0.00    +0.168 C 
BRANCH  26  27
ATOM     27  O   LIG    1      -23.255  78.154  28.956  0.00  0.00    -0.394 OA
ATOM     28  H   LIG    1      -23.328  77.950  28.006  0.00  0.00    +0.209 HD
ENDBRANCH  26  27
ENDBRANCH  25  26
ENDBRANCH  24  25
ENDBRANCH  15  23
ENDBRANCH   9  11
ENDBRANCH   5   9
BRANCH   2  29
ATOM     29  O   LIG    1      -29.683  85.022  36.138  0.00  0.00    -0.484 OA
BRANCH  29  30
ATOM     30  C   LIG    1      -29.402  86.388  35.819  0.00  0.00    +0.266 C 
BRANCH  30  31
ATOM     31  C   LIG    1      -29.597  86.743  34.361  0.00  0.00    +0.008 A 
ATOM     32  C   LIG    1      -30.690  86.221  33.682  0.00  0.00    +0.118 A 
ATOM     33  N   LIG    1      -31.041  86.557  32.421  0.00  0.00    -0.251 NA
ATOM     34  C   LIG    1      -30.276  87.477  31.768  0.00  0.00    +0.144 A 
ATOM     35  C   LIG    1      -29.135  88.023  32.357  0.00  0.00    +0.033 A 
ATOM     36  C   LIG    1      -28.799  87.652  33.662  0.00  0.00    +0.010 A 
BRANCH  34  37
ATOM     37  C   LIG    1      -30.695  87.893  30.365  0.00  0.00    +0.434 C 
ATOM     38  F   LIG    1      -31.615  87.054  29.806  0.00  0.00    -0.164 F 
ATOM     39  F   LIG    1      -29.649  87.939  29.490  0.00  0.00    -0.164 F 
ATOM     40  F   LIG    1      -31.266  89.134  30.317  0.00  0.00    -0.164 F 
ENDBRANCH  34  37
ENDBRANCH  30  31
ENDBRANCH  29  30
ENDBRANCH   2  29
TORSDOF 12
ENDMDL
MODEL 7
REMARK VINA RESULT:      -5.7     20.777     23.639
REMARK  Name = pdb/CHEMBL3678301.pdb
REMARK                            x       y       z     vdW  Elec       q    Type
REMARK                         _______ _______ _______ _____ _____    ______ ____
ROOT
ATOM      1  C   LIG    1      -23.829  75.797  30.908  0.00  0.00    +0.162 A 
ATOM      2  C   LIG    1      -23.968  74.629  31.677  0.00  0.00    +0.162 A 
ATOM      3  C   LIG    1      -22.816  73.981  32.149  0.00  0.00    +0.050 A 
ATOM      4  C   LIG    1      -21.542  74.460  31.840  0.00  0.00    +0.009 A 
ATOM      5  C   LIG    1      -21.402  75.604  31.052  0.00  0.00    -0.021 A 
ATOM      6  C   LIG    1      -22.552  76.304  30.672  0.00  0.00    +0.055 A 
ENDROOT
BRANCH   1   8
ATOM      7  C   LIG    1      -24.940  77.834  30.485  0.00  0.00    +0.277 C 
ATOM      8  O   LIG    1      -24.943  76.404  30.376  0.00  0.00    -0.491 OA
ENDBRANCH   1   8
BRANCH   5   9
ATOM      9  C   LIG    1      -20.072  76.134  30.540  0.00  0.00    +0.119 C 
ATOM     10  C   LIG    1      -20.366  77.071  29.359  0.00  0.00    +0.036 C 
BRANCH   9  11
ATOM     11  N   LIG    1      -19.204  76.649  31.599  0.00  0.00    -0.290 N 
ATOM     12  C   LIG    1      -19.589  77.528  32.580  0.00  0.00    +0.162 A 
ATOM     13  N   LIG    1      -20.789  78.117  32.739  0.00  0.00    -0.234 NA
ATOM     14  C   LIG    1      -20.849  78.917  33.819  0.00  0.00    +0.130 A 
ATOM     15  C   LIG    1      -19.798  79.141  34.705  0.00  0.00    +0.045 A 
ATOM     16  C   LIG    1      -18.565  78.502  34.499  0.00  0.00    +0.050 A 
ATOM     17  C   LIG    1      -18.470  77.679  33.385  0.00  0.00    +0.111 A 
ATOM     18  N   LIG    1      -17.413  76.967  32.904  0.00  0.00    -0.213 NA
ATOM     19  C   LIG    1      -17.847  76.433  31.789  0.00  0.00    +0.196 A 
BRANCH  19  20
ATOM     20  N   LIG    1      -17.058  75.739  30.947  0.00  0.00    -0.329 N 
ATOM     21  H   LIG    1      -17.608  75.254  30.237  0.00  0.00    +0.145 HD
ATOM     22  H   LIG    1      -16.435  75.062  31.376  0.00  0.00    +0.145 HD
ENDBRANCH  19  20
BRANCH  15  23
ATOM     23  C   LIG    1      -19.950  79.992  35.810  0.00  0.00    -0.065 C 
ATOM     24  C   LIG    1      -20.262  80.673  36.742  0.00  0.00    -0.095 C 
BRANCH  24  25
ATOM     25  C   LIG    1      -20.826  81.482  37.828  0.00  0.00    +0.117 C 
BRANCH  25  26
ATOM     26  C   LIG    1      -20.316  82.927  37.732  0.00  0.00    +0.168 C 
BRANCH  26  27
ATOM     27  O   LIG    1      -20.748  83.552  36.526  0.00  0.00    -0.394 OA
ATOM     28  H   LIG    1      -20.022  84.124  36.219  0.00  0.00    +0.209 HD
ENDBRANCH  26  27
ENDBRANCH  25  26
ENDBRANCH  24  25
ENDBRANCH  15  23
ENDBRANCH   9  11
ENDBRANCH   5   9
BRANCH   2  29
ATOM     29  O   LIG    1      -25.239  74.199  31.974  0.00  0.00    -0.484 OA
BRANCH  29  30
ATOM     30  C   LIG    1      -25.662  74.306  33.336  0.00  0.00    +0.266 C 
BRANCH  30  31
ATOM     31  C   LIG    1      -25.446  75.670  33.953  0.00  0.00    +0.008 A 
ATOM     32  C   LIG    1      -24.303  75.893  34.711  0.00  0.00    +0.118 A 
ATOM     33  N   LIG    1      -23.937  77.094  35.209  0.00  0.00    -0.251 NA
ATOM     34  C   LIG    1      -24.736  78.167  34.949  0.00  0.00    +0.144 A 
ATOM     35  C   LIG    1      -25.926  78.029  34.233  0.00  0.00    +0.033 A 
ATOM     36  C   LIG    1      -26.277  76.772  33.732  0.00  0.00    +0.010 A 
BRANCH  34  37
ATOM     37  C   LIG    1      -24.302  79.529  35.469  0.00  0.00    +0.434 C 
ATOM     38  F   LIG    1      -23.749  80.323  34.506  0.00  0.00    -0.164 F 
ATOM     39  F   LIG    1      -23.375  79.447  36.466  0.00  0.00    -0.164 F 
ATOM     40  F   LIG    1      -25.332  80.262  35.989  0.00  0.00    -0.164 F 
ENDBRANCH  34  37
ENDBRANCH  30  31
ENDBRANCH  29  30
ENDBRANCH   2  29
TORSDOF 12
ENDMDL
MODEL 8
REMARK VINA RESULT:      -5.6     21.899     25.761
REMARK  Name = pdb/CHEMBL3678301.pdb
REMARK                            x       y       z     vdW  Elec       q    Type
REMARK                         _______ _______ _______ _____ _____    ______ ____
ROOT
ATOM      1  C   LIG    1      -36.800  66.123  21.696  0.00  0.00    +0.162 A 
ATOM      2  C   LIG    1      -36.722  66.811  20.473  0.00  0.00    +0.162 A 
ATOM      3  C   LIG    1      -37.162  68.143  20.410  0.00  0.00    +0.050 A 
ATOM      4  C   LIG    1      -37.700  68.778  21.530  0.00  0.00    +0.009 A 
ATOM      5  C   LIG    1      -37.804  68.086  22.738  0.00  0.00    -0.021 A 
ATOM      6  C   LIG    1      -37.270  66.796  22.823  0.00  0.00    +0.055 A 
ENDROOT
BRANCH   1   8
ATOM      7  C   LIG    1      -35.239  64.548  22.500  0.00  0.00    +0.277 C 
ATOM      8  O   LIG    1      -36.442  64.797  21.759  0.00  0.00    -0.491 OA
ENDBRANCH   1   8
BRANCH   5   9
ATOM      9  C   LIG    1      -38.497  68.628  23.979  0.00  0.00    +0.119 C 
ATOM     10  C   LIG    1      -38.451  67.534  25.056  0.00  0.00    +0.036 C 
BRANCH   9  11
ATOM     11  N   LIG    1      -38.038  69.962  24.366  0.00  0.00    -0.290 N 
ATOM     12  C   LIG    1      -38.751  71.123  24.200  0.00  0.00    +0.162 A 
ATOM     13  N   LIG    1      -39.959  71.278  23.625  0.00  0.00    -0.234 NA
ATOM     14  C   LIG    1      -40.394  72.551  23.638  0.00  0.00    +0.130 A 
ATOM     15  C   LIG    1      -39.695  73.627  24.181  0.00  0.00    +0.045 A 
ATOM     16  C   LIG    1      -38.441  73.416  24.773  0.00  0.00    +0.050 A 
ATOM     17  C   LIG    1      -37.960  72.113  24.764  0.00  0.00    +0.111 A 
ATOM     18  N   LIG    1      -36.779  71.606  25.217  0.00  0.00    -0.213 NA
ATOM     19  C   LIG    1      -36.810  70.338  24.888  0.00  0.00    +0.196 A 
BRANCH  19  20
ATOM     20  N   LIG    1      -35.766  69.506  25.063  0.00  0.00    -0.329 N 
ATOM     21  H   LIG    1      -35.996  68.555  24.774  0.00  0.00    +0.145 HD
ATOM     22  H   LIG    1      -35.383  69.462  26.002  0.00  0.00    +0.145 HD
ENDBRANCH  19  20
BRANCH  15  23
ATOM     23  C   LIG    1      -40.228  74.925  24.153  0.00  0.00    -0.065 C 
ATOM     24  C   LIG    1      -40.523  76.078  24.041  0.00  0.00    -0.095 C 
BRANCH  24  25
ATOM     25  C   LIG    1      -40.701  77.523  23.860  0.00  0.00    +0.117 C 
BRANCH  25  26
ATOM     26  C   LIG    1      -39.339  78.233  23.898  0.00  0.00    +0.168 C 
BRANCH  26  27
ATOM     27  O   LIG    1      -39.328  79.381  23.054  0.00  0.00    -0.394 OA
ATOM     28  H   LIG    1      -38.634  79.243  22.384  0.00  0.00    +0.209 HD
ENDBRANCH  26  27
ENDBRANCH  25  26
ENDBRANCH  24  25
ENDBRANCH  15  23
ENDBRANCH   9  11
ENDBRANCH   5   9
BRANCH   2  29
ATOM     29  O   LIG    1      -36.171  66.157  19.398  0.00  0.00    -0.484 OA
BRANCH  29  30
ATOM     30  C   LIG    1      -35.380  66.937  18.496  0.00  0.00    +0.266 C 
BRANCH  30  31
ATOM     31  C   LIG    1      -33.888  66.733  18.635  0.00  0.00    +0.008 A 
ATOM     32  C   LIG    1      -33.031  67.447  17.806  0.00  0.00    +0.118 A 
ATOM     33  N   LIG    1      -31.684  67.446  17.913  0.00  0.00    -0.251 NA
ATOM     34  C   LIG    1      -31.121  66.700  18.906  0.00  0.00    +0.144 A 
ATOM     35  C   LIG    1      -31.902  65.918  19.758  0.00  0.00    +0.033 A 
ATOM     36  C   LIG    1      -33.292  65.940  19.619  0.00  0.00    +0.010 A 
BRANCH  34  37
ATOM     37  C   LIG    1      -29.608  66.733  19.059  0.00  0.00    +0.434 C 
ATOM     38  F   LIG    1      -29.172  66.182  20.230  0.00  0.00    -0.164 F 
ATOM     39  F   LIG    1      -29.097  67.997  19.026  0.00  0.00    -0.164 F 
ATOM     40  F   LIG    1      -28.950  66.049  18.075  0.00  0.00    -0.164 F 
ENDBRANCH  34  37
ENDBRANCH  30  31
ENDBRANCH  29  30
ENDBRANCH   2  29
TORSDOF 12
ENDMDL
MODEL 9
REMARK VINA RESULT:      -5.6     20.644     24.756
REMARK  Name = pdb/CHEMBL3678301.pdb
REMARK                            x       y       z     vdW  Elec       q    Type
REMARK                         _______ _______ _______ _____ _____    ______ ____
ROOT
ATOM      1  C   LIG    1      -33.160  65.919  18.374  0.00  0.00    +0.162 A 
ATOM      2  C   LIG    1      -33.554  66.656  17.245  0.00  0.00    +0.162 A 
ATOM      3  C   LIG    1      -34.840  67.219  17.211  0.00  0.00    +0.050 A 
ATOM      4  C   LIG    1      -35.736  67.030  18.263  0.00  0.00    +0.009 A 
ATOM      5  C   LIG    1      -35.356  66.274  19.373  0.00  0.00    -0.021 A 
ATOM      6  C   LIG    1      -34.041  65.804  19.449  0.00  0.00    +0.055 A 
ENDROOT
BRANCH   1   8
ATOM      7  C   LIG    1      -30.989  65.895  19.296  0.00  0.00    +0.277 C 
ATOM      8  O   LIG    1      -31.932  65.300  18.394  0.00  0.00    -0.491 OA
ENDBRANCH   1   8
BRANCH   5   9
ATOM      9  C   LIG    1      -36.292  65.889  20.509  0.00  0.00    +0.119 C 
ATOM     10  C   LIG    1      -35.748  64.602  21.146  0.00  0.00    +0.036 C 
BRANCH   9  11
ATOM     11  N   LIG    1      -36.601  66.999  21.410  0.00  0.00    -0.290 N 
ATOM     12  C   LIG    1      -37.769  67.720  21.405  0.00  0.00    +0.162 A 
ATOM     13  N   LIG    1      -38.817  67.593  20.570  0.00  0.00    -0.234 NA
ATOM     14  C   LIG    1      -39.822  68.444  20.845  0.00  0.00    +0.130 A 
ATOM     15  C   LIG    1      -39.816  69.377  21.879  0.00  0.00    +0.045 A 
ATOM     16  C   LIG    1      -38.701  69.471  22.727  0.00  0.00    +0.050 A 
ATOM     17  C   LIG    1      -37.643  68.612  22.460  0.00  0.00    +0.111 A 
ATOM     18  N   LIG    1      -36.430  68.494  23.067  0.00  0.00    -0.213 NA
ATOM     19  C   LIG    1      -35.791  67.588  22.368  0.00  0.00    +0.196 A 
BRANCH  19  20
ATOM     20  N   LIG    1      -34.502  67.265  22.583  0.00  0.00    -0.329 N 
ATOM     21  H   LIG    1      -34.416  66.509  23.263  0.00  0.00    +0.145 HD
ATOM     22  H   LIG    1      -33.896  68.023  22.881  0.00  0.00    +0.145 HD
ENDBRANCH  19  20
BRANCH  15  23
ATOM     23  C   LIG    1      -40.912  70.226  22.096  0.00  0.00    -0.065 C 
ATOM     24  C   LIG    1      -41.794  71.034  22.121  0.00  0.00    -0.095 C 
BRANCH  24  25
ATOM     25  C   LIG    1      -42.776  72.118  22.016  0.00  0.00    +0.117 C 
BRANCH  25  26
ATOM     26  C   LIG    1      -43.293  72.227  20.574  0.00  0.00    +0.168 C 
BRANCH  26  27
ATOM     27  O   LIG    1      -43.759  70.969  20.093  0.00  0.00    -0.394 OA
ATOM     28  H   LIG    1      -43.977  71.082  19.149  0.00  0.00    +0.209 HD
ENDBRANCH  26  27
ENDBRANCH  25  26
ENDBRANCH  24  25
ENDBRANCH  15  23
ENDBRANCH   9  11
ENDBRANCH   5   9
BRANCH   2  29
ATOM     29  O   LIG    1      -32.637  66.833  16.237  0.00  0.00    -0.484 OA
BRANCH  29  30
ATOM     30  C   LIG    1      -32.207  68.172  15.975  0.00  0.00    +0.266 C 
BRANCH  30  31
ATOM     31  C   LIG    1      -31.007  68.614  16.783  0.00  0.00    +0.008 A 
ATOM     32  C   LIG    1      -31.193  69.512  17.827  0.00  0.00    +0.118 A 
ATOM     33  N   LIG    1      -30.228  69.888  18.695  0.00  0.00    -0.251 NA
ATOM     34  C   LIG    1      -28.986  69.346  18.546  0.00  0.00    +0.144 A 
ATOM     35  C   LIG    1      -28.698  68.469  17.501  0.00  0.00    +0.033 A 
ATOM     36  C   LIG    1      -29.718  68.102  16.618  0.00  0.00    +0.010 A 
BRANCH  34  37
ATOM     37  C   LIG    1      -27.910  69.731  19.550  0.00  0.00    +0.434 C 
ATOM     38  F   LIG    1      -28.356  70.584  20.518  0.00  0.00    -0.164 F 
ATOM     39  F   LIG    1      -26.839  70.347  18.972  0.00  0.00    -0.164 F 
ATOM     40  F   LIG    1      -27.394  68.661  20.227  0.00  0.00    -0.164 F 
ENDBRANCH  34  37
ENDBRANCH  30  31
ENDBRANCH  29  30
ENDBRANCH   2  29
TORSDOF 12
ENDMDL
