MODEL 1
REMARK VINA RESULT:      -6.6      0.000      0.000
REMARK  Name = pdb/CHEMBL3948918.pdb
REMARK                            x       y       z     vdW  Elec       q    Type
REMARK                         _______ _______ _______ _____ _____    ______ ____
ROOT
ATOM      1  N   LIG    1      -34.543  74.394  27.534  0.00  0.00    -0.266 N 
ATOM      2  H   LIG    1      -34.344  73.992  26.624  0.00  0.00    +0.157 HD
ATOM      3  C   LIG    1      -35.910  74.641  27.922  0.00  0.00    +0.251 C 
ATOM      4  O   LIG    1      -36.175  75.178  28.987  0.00  0.00    -0.270 OA
ENDROOT
BRANCH   3   5
ATOM      5  C   LIG    1      -36.996  74.303  26.976  0.00  0.00    +0.056 A 
ATOM      6  C   LIG    1      -37.346  73.001  26.635  0.00  0.00    +0.054 A 
ATOM      7 CL   LIG    1      -36.618  71.602  27.338  0.00  0.00    -0.083 Cl
ATOM      8  C   LIG    1      -38.344  72.792  25.689  0.00  0.00    +0.041 A 
ATOM      9  C   LIG    1      -39.023  73.868  25.084  0.00  0.00    +0.052 A 
ATOM     10 CL   LIG    1      -40.092  73.405  23.808  0.00  0.00    -0.083 Cl
ATOM     11  C   LIG    1      -38.763  75.202  25.459  0.00  0.00    +0.022 A 
ATOM     12  C   LIG    1      -37.723  75.377  26.410  0.00  0.00    +0.026 A 
BRANCH  11  13
ATOM     13  C   LIG    1      -39.451  76.420  24.930  0.00  0.00    +0.107 A 
ATOM     14  C   LIG    1      -38.904  77.343  24.032  0.00  0.00    +0.149 A 
ATOM     15  F   LIG    1      -37.677  77.199  23.518  0.00  0.00    -0.203 F 
ATOM     16  C   LIG    1      -39.664  78.420  23.580  0.00  0.00    +0.042 A 
ATOM     17  C   LIG    1      -40.983  78.545  23.987  0.00  0.00    +0.023 A 
ATOM     18  C   LIG    1      -41.481  77.587  24.851  0.00  0.00    +0.111 A 
ATOM     19  N   LIG    1      -40.751  76.548  25.333  0.00  0.00    -0.252 NA
ENDBRANCH  11  13
ENDBRANCH   3   5
BRANCH   1  23
ATOM     20  C   LIG    1      -31.691  74.057  29.672  0.00  0.00    +0.149 A 
ATOM     21  N   LIG    1      -31.526  75.340  29.311  0.00  0.00    -0.160 NA
ATOM     22  N   LIG    1      -32.659  75.669  28.628  0.00  0.00    -0.218 N 
ATOM     23  C   LIG    1      -33.463  74.547  28.410  0.00  0.00    +0.129 A 
ATOM     24  C   LIG    1      -32.887  73.536  29.139  0.00  0.00    +0.078 A 
BRANCH  22  25
ATOM     25  C   LIG    1      -32.865  77.022  28.215  0.00  0.00    +0.067 A 
ATOM     26  C   LIG    1      -32.233  77.560  27.086  0.00  0.00    +0.028 A 
ATOM     27  C   LIG    1      -32.483  78.889  26.710  0.00  0.00    +0.002 A 
ATOM     28  C   LIG    1      -33.350  79.686  27.462  0.00  0.00    +0.000 A 
ATOM     29  C   LIG    1      -33.983  79.156  28.579  0.00  0.00    +0.002 A 
ATOM     30  C   LIG    1      -33.755  77.826  28.951  0.00  0.00    +0.028 A 
ENDBRANCH  22  25
BRANCH  20  33
ATOM     31  C   LIG    1      -29.534  72.879  32.467  0.00  0.00    +0.174 C 
ATOM     32  N   LIG    1      -30.486  73.617  31.666  0.00  0.00    -0.252 NA
ATOM     33  C   LIG    1      -30.726  73.285  30.446  0.00  0.00    +0.236 C 
BRANCH  33  34
ATOM     34  O   LIG    1      -30.184  72.218  29.827  0.00  0.00    -0.491 OA
ATOM     35  H   LIG    1      -29.810  71.590  30.460  0.00  0.00    +0.294 HD
ENDBRANCH  33  34
ENDBRANCH  20  33
ENDBRANCH   1  23
TORSDOF 6
ENDMDL
MODEL 2
REMARK VINA RESULT:      -6.5     10.948     15.811
REMARK  Name = pdb/CHEMBL3948918.pdb
REMARK                            x       y       z     vdW  Elec       q    Type
REMARK                         _______ _______ _______ _____ _____    ______ ____
ROOT
ATOM      1  N   LIG    1      -24.191  78.663  33.203  0.00  0.00    -0.266 N 
ATOM      2  H   LIG    1      -24.357  79.579  32.799  0.00  0.00    +0.157 HD
ATOM      3  C   LIG    1      -23.397  78.545  34.401  0.00  0.00    +0.251 C 
ATOM      4  O   LIG    1      -23.131  77.451  34.875  0.00  0.00    -0.270 OA
ENDROOT
BRANCH   3   5
ATOM      5  C   LIG    1      -22.837  79.770  35.014  0.00  0.00    +0.056 A 
ATOM      6  C   LIG    1      -21.505  80.152  34.896  0.00  0.00    +0.054 A 
ATOM      7 CL   LIG    1      -20.346  79.296  33.946  0.00  0.00    -0.083 Cl
ATOM      8  C   LIG    1      -21.065  81.291  35.562  0.00  0.00    +0.041 A 
ATOM      9  C   LIG    1      -21.941  82.079  36.333  0.00  0.00    +0.052 A 
ATOM     10 CL   LIG    1      -21.165  83.341  37.224  0.00  0.00    -0.083 Cl
ATOM     11  C   LIG    1      -23.317  81.781  36.413  0.00  0.00    +0.022 A 
ATOM     12  C   LIG    1      -23.725  80.597  35.740  0.00  0.00    +0.026 A 
BRANCH  11  13
ATOM     13  C   LIG    1      -24.352  82.565  37.154  0.00  0.00    +0.107 A 
ATOM     14  C   LIG    1      -24.361  82.814  38.531  0.00  0.00    +0.149 A 
ATOM     15  F   LIG    1      -23.387  82.381  39.341  0.00  0.00    -0.203 F 
ATOM     16  C   LIG    1      -25.363  83.598  39.098  0.00  0.00    +0.042 A 
ATOM     17  C   LIG    1      -26.326  84.172  38.283  0.00  0.00    +0.023 A 
ATOM     18  C   LIG    1      -26.251  83.919  36.926  0.00  0.00    +0.111 A 
ATOM     19  N   LIG    1      -25.305  83.131  36.353  0.00  0.00    -0.252 NA
ENDBRANCH  11  13
ENDBRANCH   3   5
BRANCH   1  23
ATOM     20  C   LIG    1      -26.548  76.301  31.906  0.00  0.00    +0.149 A 
ATOM     21  N   LIG    1      -25.499  75.990  31.129  0.00  0.00    -0.160 NA
ATOM     22  N   LIG    1      -24.452  76.698  31.640  0.00  0.00    -0.218 N 
ATOM     23  C   LIG    1      -24.876  77.584  32.634  0.00  0.00    +0.129 A 
ATOM     24  C   LIG    1      -26.196  77.279  32.857  0.00  0.00    +0.078 A 
BRANCH  22  25
ATOM     25  C   LIG    1      -23.138  76.488  31.117  0.00  0.00    +0.067 A 
ATOM     26  C   LIG    1      -22.764  76.932  29.843  0.00  0.00    +0.028 A 
ATOM     27  C   LIG    1      -21.456  76.719  29.382  0.00  0.00    +0.002 A 
ATOM     28  C   LIG    1      -20.523  76.056  30.182  0.00  0.00    +0.000 A 
ATOM     29  C   LIG    1      -20.886  75.619  31.450  0.00  0.00    +0.002 A 
ATOM     30  C   LIG    1      -22.183  75.843  31.926  0.00  0.00    +0.028 A 
ENDBRANCH  22  25
BRANCH  20  33
ATOM     31  C   LIG    1      -30.170  76.010  31.099  0.00  0.00    +0.174 C 
ATOM     32  N   LIG    1      -28.825  76.511  31.276  0.00  0.00    -0.252 NA
ATOM     33  C   LIG    1      -27.891  75.757  31.741  0.00  0.00    +0.236 C 
BRANCH  33  34
ATOM     34  O   LIG    1      -28.046  74.453  32.044  0.00  0.00    -0.491 OA
ATOM     35  H   LIG    1      -28.170  74.319  32.993  0.00  0.00    +0.294 HD
ENDBRANCH  33  34
ENDBRANCH  20  33
ENDBRANCH   1  23
TORSDOF 6
ENDMDL
MODEL 3
REMARK VINA RESULT:      -6.3     18.340     21.077
REMARK  Name = pdb/CHEMBL3948918.pdb
REMARK                            x       y       z     vdW  Elec       q    Type
REMARK                         _______ _______ _______ _____ _____    ______ ____
ROOT
ATOM      1  N   LIG    1      -21.704  80.654  14.153  0.00  0.00    -0.266 N 
ATOM      2  H   LIG    1      -21.476  80.668  13.164  0.00  0.00    +0.157 HD
ATOM      3  C   LIG    1      -21.274  81.740  15.000  0.00  0.00    +0.251 C 
ATOM      4  O   LIG    1      -21.483  81.721  16.204  0.00  0.00    -0.270 OA
ENDROOT
BRANCH   3   5
ATOM      5  C   LIG    1      -20.504  82.853  14.403  0.00  0.00    +0.056 A 
ATOM      6  C   LIG    1      -19.163  82.761  14.047  0.00  0.00    +0.054 A 
ATOM      7 CL   LIG    1      -18.239  81.307  14.173  0.00  0.00    -0.083 Cl
ATOM      8  C   LIG    1      -18.514  83.885  13.548  0.00  0.00    +0.041 A 
ATOM      9  C   LIG    1      -19.189  85.109  13.373  0.00  0.00    +0.052 A 
ATOM     10 CL   LIG    1      -18.166  86.426  12.918  0.00  0.00    -0.083 Cl
ATOM     11  C   LIG    1      -20.568  85.229  13.638  0.00  0.00    +0.022 A 
ATOM     12  C   LIG    1      -21.191  84.067  14.168  0.00  0.00    +0.026 A 
BRANCH  11  13
ATOM     13  C   LIG    1      -21.404  86.454  13.445  0.00  0.00    +0.107 A 
ATOM     14  C   LIG    1      -21.811  87.334  14.452  0.00  0.00    +0.149 A 
ATOM     15  F   LIG    1      -21.450  87.173  15.731  0.00  0.00    -0.203 F 
ATOM     16  C   LIG    1      -22.557  88.469  14.138  0.00  0.00    +0.042 A 
ATOM     17  C   LIG    1      -22.851  88.747  12.812  0.00  0.00    +0.023 A 
ATOM     18  C   LIG    1      -22.397  87.859  11.854  0.00  0.00    +0.111 A 
ATOM     19  N   LIG    1      -21.699  86.729  12.138  0.00  0.00    -0.252 NA
ENDBRANCH  11  13
ENDBRANCH   3   5
BRANCH   1  23
ATOM     20  C   LIG    1      -24.375  78.375  14.849  0.00  0.00    +0.149 A 
ATOM     21  N   LIG    1      -23.340  77.546  15.055  0.00  0.00    -0.160 NA
ATOM     22  N   LIG    1      -22.231  78.336  15.003  0.00  0.00    -0.218 N 
ATOM     23  C   LIG    1      -22.552  79.634  14.596  0.00  0.00    +0.129 A 
ATOM     24  C   LIG    1      -23.925  79.681  14.571  0.00  0.00    +0.078 A 
BRANCH  22  25
ATOM     25  C   LIG    1      -20.953  77.779  15.318  0.00  0.00    +0.067 A 
ATOM     26  C   LIG    1      -19.935  78.538  15.910  0.00  0.00    +0.028 A 
ATOM     27  C   LIG    1      -18.703  77.940  16.217  0.00  0.00    +0.002 A 
ATOM     28  C   LIG    1      -18.479  76.592  15.926  0.00  0.00    +0.000 A 
ATOM     29  C   LIG    1      -19.487  75.832  15.345  0.00  0.00    +0.002 A 
ATOM     30  C   LIG    1      -20.725  76.415  15.052  0.00  0.00    +0.028 A 
ENDBRANCH  22  25
BRANCH  20  33
ATOM     31  C   LIG    1      -27.511  76.522  14.081  0.00  0.00    +0.174 C 
ATOM     32  N   LIG    1      -26.132  76.958  14.121  0.00  0.00    -0.252 NA
ATOM     33  C   LIG    1      -25.775  77.966  14.839  0.00  0.00    +0.236 C 
BRANCH  33  34
ATOM     34  O   LIG    1      -26.603  78.657  15.645  0.00  0.00    -0.491 OA
ATOM     35  H   LIG    1      -26.847  78.146  16.429  0.00  0.00    +0.294 HD
ENDBRANCH  33  34
ENDBRANCH  20  33
ENDBRANCH   1  23
TORSDOF 6
ENDMDL
MODEL 4
REMARK VINA RESULT:      -6.2     10.935     13.493
REMARK  Name = pdb/CHEMBL3948918.pdb
REMARK                            x       y       z     vdW  Elec       q    Type
REMARK                         _______ _______ _______ _____ _____    ______ ____
ROOT
ATOM      1  N   LIG    1      -24.825  75.713  32.858  0.00  0.00    -0.266 N 
ATOM      2  H   LIG    1      -24.478  74.973  33.460  0.00  0.00    +0.157 HD
ATOM      3  C   LIG    1      -25.804  75.407  31.844  0.00  0.00    +0.251 C 
ATOM      4  O   LIG    1      -26.195  76.266  31.067  0.00  0.00    -0.270 OA
ENDROOT
BRANCH   3   5
ATOM      5  C   LIG    1      -26.279  74.013  31.703  0.00  0.00    +0.056 A 
ATOM      6  C   LIG    1      -27.567  73.600  32.028  0.00  0.00    +0.054 A 
ATOM      7 CL   LIG    1      -28.810  74.675  32.557  0.00  0.00    -0.083 Cl
ATOM      8  C   LIG    1      -27.897  72.253  31.915  0.00  0.00    +0.041 A 
ATOM      9  C   LIG    1      -26.963  71.302  31.458  0.00  0.00    +0.052 A 
ATOM     10 CL   LIG    1      -27.507  69.665  31.565  0.00  0.00    -0.083 Cl
ATOM     11  C   LIG    1      -25.674  71.685  31.036  0.00  0.00    +0.022 A 
ATOM     12  C   LIG    1      -25.366  73.064  31.188  0.00  0.00    +0.026 A 
BRANCH  11  13
ATOM     13  C   LIG    1      -24.617  70.780  30.486  0.00  0.00    +0.107 A 
ATOM     14  C   LIG    1      -24.723  70.010  29.324  0.00  0.00    +0.149 A 
ATOM     15  F   LIG    1      -25.812  70.037  28.546  0.00  0.00    -0.203 F 
ATOM     16  C   LIG    1      -23.648  69.236  28.892  0.00  0.00    +0.042 A 
ATOM     17  C   LIG    1      -22.454  69.271  29.595  0.00  0.00    +0.023 A 
ATOM     18  C   LIG    1      -22.396  70.074  30.720  0.00  0.00    +0.111 A 
ATOM     19  N   LIG    1      -23.439  70.810  31.180  0.00  0.00    -0.252 NA
ENDBRANCH  11  13
ENDBRANCH   3   5
BRANCH   1  23
ATOM     20  C   LIG    1      -24.151  78.933  34.269  0.00  0.00    +0.149 A 
ATOM     21  N   LIG    1      -23.081  78.834  33.466  0.00  0.00    -0.160 NA
ATOM     22  N   LIG    1      -23.298  77.718  32.714  0.00  0.00    -0.218 N 
ATOM     23  C   LIG    1      -24.423  77.018  33.159  0.00  0.00    +0.129 A 
ATOM     24  C   LIG    1      -25.011  77.830  34.099  0.00  0.00    +0.078 A 
BRANCH  22  25
ATOM     25  C   LIG    1      -22.397  77.397  31.652  0.00  0.00    +0.067 A 
ATOM     26  C   LIG    1      -22.848  76.969  30.396  0.00  0.00    +0.028 A 
ATOM     27  C   LIG    1      -21.923  76.684  29.380  0.00  0.00    +0.002 A 
ATOM     28  C   LIG    1      -20.552  76.812  29.614  0.00  0.00    +0.000 A 
ATOM     29  C   LIG    1      -20.099  77.242  30.855  0.00  0.00    +0.002 A 
ATOM     30  C   LIG    1      -21.014  77.546  31.869  0.00  0.00    +0.028 A 
ENDBRANCH  22  25
BRANCH  20  33
ATOM     31  C   LIG    1      -23.608  81.955  36.373  0.00  0.00    +0.174 C 
ATOM     32  N   LIG    1      -23.440  80.882  35.417  0.00  0.00    -0.252 NA
ATOM     33  C   LIG    1      -24.360  79.999  35.241  0.00  0.00    +0.236 C 
BRANCH  33  34
ATOM     34  O   LIG    1      -25.557  80.013  35.861  0.00  0.00    -0.491 OA
ATOM     35  H   LIG    1      -25.464  80.166  36.811  0.00  0.00    +0.294 HD
ENDBRANCH  33  34
ENDBRANCH  20  33
ENDBRANCH   1  23
TORSDOF 6
ENDMDL
MODEL 5
REMARK VINA RESULT:      -6.1      3.704      7.557
REMARK  Name = pdb/CHEMBL3948918.pdb
REMARK                            x       y       z     vdW  Elec       q    Type
REMARK                         _______ _______ _______ _____ _____    ______ ____
ROOT
ATOM      1  N   LIG    1      -34.590  72.036  26.903  0.00  0.00    -0.266 N 
ATOM      2  H   LIG    1      -33.941  72.427  26.226  0.00  0.00    +0.157 HD
ATOM      3  C   LIG    1      -34.475  72.401  28.293  0.00  0.00    +0.251 C 
ATOM      4  O   LIG    1      -35.204  71.902  29.138  0.00  0.00    -0.270 OA
ENDROOT
BRANCH   3   5
ATOM      5  C   LIG    1      -33.407  73.339  28.703  0.00  0.00    +0.056 A 
ATOM      6  C   LIG    1      -32.243  72.945  29.355  0.00  0.00    +0.054 A 
ATOM      7 CL   LIG    1      -31.848  71.299  29.695  0.00  0.00    -0.083 Cl
ATOM      8  C   LIG    1      -31.327  73.914  29.752  0.00  0.00    +0.041 A 
ATOM      9  C   LIG    1      -31.539  75.281  29.489  0.00  0.00    +0.052 A 
ATOM     10 CL   LIG    1      -30.381  76.334  30.222  0.00  0.00    -0.083 Cl
ATOM     11  C   LIG    1      -32.661  75.721  28.758  0.00  0.00    +0.022 A 
ATOM     12  C   LIG    1      -33.586  74.707  28.389  0.00  0.00    +0.026 A 
BRANCH  11  13
ATOM     13  C   LIG    1      -32.970  77.133  28.373  0.00  0.00    +0.107 A 
ATOM     14  C   LIG    1      -32.460  77.807  27.258  0.00  0.00    +0.149 A 
ATOM     15  F   LIG    1      -31.641  77.218  26.379  0.00  0.00    -0.203 F 
ATOM     16  C   LIG    1      -32.858  79.114  26.984  0.00  0.00    +0.042 A 
ATOM     17  C   LIG    1      -33.801  79.726  27.795  0.00  0.00    +0.023 A 
ATOM     18  C   LIG    1      -34.294  79.002  28.865  0.00  0.00    +0.111 A 
ATOM     19  N   LIG    1      -33.897  77.741  29.173  0.00  0.00    -0.252 NA
ENDBRANCH  11  13
ENDBRANCH   3   5
BRANCH   1  23
ATOM     20  C   LIG    1      -36.935  69.514  25.928  0.00  0.00    +0.149 A 
ATOM     21  N   LIG    1      -37.772  70.563  25.981  0.00  0.00    -0.160 NA
ATOM     22  N   LIG    1      -36.973  71.651  26.167  0.00  0.00    -0.218 N 
ATOM     23  C   LIG    1      -35.648  71.273  26.401  0.00  0.00    +0.129 A 
ATOM     24  C   LIG    1      -35.608  69.919  26.173  0.00  0.00    +0.078 A 
BRANCH  22  25
ATOM     25  C   LIG    1      -37.546  72.960  26.135  0.00  0.00    +0.067 A 
ATOM     26  C   LIG    1      -37.634  73.763  27.279  0.00  0.00    +0.028 A 
ATOM     27  C   LIG    1      -38.189  75.049  27.192  0.00  0.00    +0.002 A 
ATOM     28  C   LIG    1      -38.666  75.533  25.972  0.00  0.00    +0.000 A 
ATOM     29  C   LIG    1      -38.576  74.743  24.832  0.00  0.00    +0.002 A 
ATOM     30  C   LIG    1      -38.008  73.466  24.905  0.00  0.00    +0.028 A 
ENDBRANCH  22  25
BRANCH  20  33
ATOM     31  C   LIG    1      -38.674  66.511  24.581  0.00  0.00    +0.174 C 
ATOM     32  N   LIG    1      -38.232  67.868  24.817  0.00  0.00    -0.252 NA
ATOM     33  C   LIG    1      -37.352  68.133  25.719  0.00  0.00    +0.236 C 
BRANCH  33  34
ATOM     34  O   LIG    1      -36.728  67.203  26.469  0.00  0.00    -0.491 OA
ATOM     35  H   LIG    1      -35.945  67.564  26.906  0.00  0.00    +0.294 HD
ENDBRANCH  33  34
ENDBRANCH  20  33
ENDBRANCH   1  23
TORSDOF 6
ENDMDL
MODEL 6
REMARK VINA RESULT:      -6.0      3.997      6.991
REMARK  Name = pdb/CHEMBL3948918.pdb
REMARK                            x       y       z     vdW  Elec       q    Type
REMARK                         _______ _______ _______ _____ _____    ______ ____
ROOT
ATOM      1  N   LIG    1      -38.211  76.529  26.497  0.00  0.00    -0.266 N 
ATOM      2  H   LIG    1      -38.833  76.034  27.129  0.00  0.00    +0.157 HD
ATOM      3  C   LIG    1      -37.988  76.016  25.168  0.00  0.00    +0.251 C 
ATOM      4  O   LIG    1      -37.200  76.557  24.407  0.00  0.00    -0.270 OA
ENDROOT
BRANCH   3   5
ATOM      5  C   LIG    1      -38.674  74.771  24.756  0.00  0.00    +0.056 A 
ATOM      6  C   LIG    1      -39.904  74.745  24.110  0.00  0.00    +0.054 A 
ATOM      7 CL   LIG    1      -40.758  76.165  23.622  0.00  0.00    -0.083 Cl
ATOM      8  C   LIG    1      -40.493  73.519  23.817  0.00  0.00    +0.041 A 
ATOM      9  C   LIG    1      -39.860  72.303  24.141  0.00  0.00    +0.052 A 
ATOM     10 CL   LIG    1      -40.831  70.900  23.864  0.00  0.00    -0.083 Cl
ATOM     11  C   LIG    1      -38.574  72.277  24.719  0.00  0.00    +0.022 A 
ATOM     12  C   LIG    1      -38.016  73.547  25.024  0.00  0.00    +0.026 A 
BRANCH  11  13
ATOM     13  C   LIG    1      -37.781  71.056  25.060  0.00  0.00    +0.107 A 
ATOM     14  C   LIG    1      -37.346  70.083  24.154  0.00  0.00    +0.149 A 
ATOM     15  F   LIG    1      -37.581  70.175  22.840  0.00  0.00    -0.203 F 
ATOM     16  C   LIG    1      -36.574  69.008  24.592  0.00  0.00    +0.042 A 
ATOM     17  C   LIG    1      -36.199  68.934  25.924  0.00  0.00    +0.023 A 
ATOM     18  C   LIG    1      -36.632  69.939  26.769  0.00  0.00    +0.111 A 
ATOM     19  N   LIG    1      -37.412  70.977  26.374  0.00  0.00    -0.252 NA
ENDBRANCH  11  13
ENDBRANCH   3   5
BRANCH   1  23
ATOM     20  C   LIG    1      -37.669  79.908  27.550  0.00  0.00    +0.149 A 
ATOM     21  N   LIG    1      -36.641  79.327  28.188  0.00  0.00    -0.160 NA
ATOM     22  N   LIG    1      -36.611  78.045  27.728  0.00  0.00    -0.218 N 
ATOM     23  C   LIG    1      -37.722  77.767  26.927  0.00  0.00    +0.129 A 
ATOM     24  C   LIG    1      -38.356  78.972  26.751  0.00  0.00    +0.078 A 
BRANCH  22  25
ATOM     25  C   LIG    1      -35.538  77.182  28.115  0.00  0.00    +0.067 A 
ATOM     26  C   LIG    1      -34.720  76.544  27.174  0.00  0.00    +0.028 A 
ATOM     27  C   LIG    1      -33.668  75.721  27.604  0.00  0.00    +0.002 A 
ATOM     28  C   LIG    1      -33.435  75.524  28.967  0.00  0.00    +0.000 A 
ATOM     29  C   LIG    1      -34.239  76.160  29.905  0.00  0.00    +0.002 A 
ATOM     30  C   LIG    1      -35.280  76.997  29.486  0.00  0.00    +0.028 A 
ENDBRANCH  22  25
BRANCH  20  33
ATOM     31  C   LIG    1      -38.887  83.348  26.821  0.00  0.00    +0.174 C 
ATOM     32  N   LIG    1      -38.485  81.964  26.697  0.00  0.00    -0.252 NA
ATOM     33  C   LIG    1      -38.068  81.300  27.718  0.00  0.00    +0.236 C 
BRANCH  33  34
ATOM     34  O   LIG    1      -38.021  81.785  28.974  0.00  0.00    -0.491 OA
ATOM     35  H   LIG    1      -38.541  81.245  29.585  0.00  0.00    +0.294 HD
ENDBRANCH  33  34
ENDBRANCH  20  33
ENDBRANCH   1  23
TORSDOF 6
ENDMDL
MODEL 7
REMARK VINA RESULT:      -6.0     18.649     21.620
REMARK  Name = pdb/CHEMBL3948918.pdb
REMARK                            x       y       z     vdW  Elec       q    Type
REMARK                         _______ _______ _______ _____ _____    ______ ____
ROOT
ATOM      1  N   LIG    1      -22.941  91.366  35.487  0.00  0.00    -0.266 N 
ATOM      2  H   LIG    1      -23.119  91.182  34.505  0.00  0.00    +0.157 HD
ATOM      3  C   LIG    1      -24.022  91.272  36.438  0.00  0.00    +0.251 C 
ATOM      4  O   LIG    1      -23.851  91.546  37.616  0.00  0.00    -0.270 OA
ENDROOT
BRANCH   3   5
ATOM      5  C   LIG    1      -25.373  90.910  35.954  0.00  0.00    +0.056 A 
ATOM      6  C   LIG    1      -26.241  91.808  35.345  0.00  0.00    +0.054 A 
ATOM      7 CL   LIG    1      -25.827  93.447  34.990  0.00  0.00    -0.083 Cl
ATOM      8  C   LIG    1      -27.514  91.382  34.980  0.00  0.00    +0.041 A 
ATOM      9  C   LIG    1      -27.935  90.054  35.193  0.00  0.00    +0.052 A 
ATOM     10 CL   LIG    1      -29.604  89.773  34.842  0.00  0.00    -0.083 Cl
ATOM     11  C   LIG    1      -27.063  89.086  35.729  0.00  0.00    +0.022 A 
ATOM     12  C   LIG    1      -25.780  89.564  36.111  0.00  0.00    +0.026 A 
BRANCH  11  13
ATOM     13  C   LIG    1      -27.375  87.641  35.955  0.00  0.00    +0.107 A 
ATOM     14  C   LIG    1      -27.549  86.676  34.958  0.00  0.00    +0.149 A 
ATOM     15  F   LIG    1      -27.417  86.961  33.657  0.00  0.00    -0.203 F 
ATOM     16  C   LIG    1      -27.797  85.347  35.299  0.00  0.00    +0.042 A 
ATOM     17  C   LIG    1      -27.820  84.977  36.635  0.00  0.00    +0.023 A 
ATOM     18  C   LIG    1      -27.610  85.967  37.577  0.00  0.00    +0.111 A 
ATOM     19  N   LIG    1      -27.402  87.273  37.272  0.00  0.00    -0.252 NA
ENDBRANCH  11  13
ENDBRANCH   3   5
BRANCH   1  23
ATOM     20  C   LIG    1      -19.447  91.165  36.239  0.00  0.00    +0.149 A 
ATOM     21  N   LIG    1      -19.530  92.484  36.000  0.00  0.00    -0.160 NA
ATOM     22  N   LIG    1      -20.862  92.743  35.875  0.00  0.00    -0.218 N 
ATOM     23  C   LIG    1      -21.610  91.563  35.866  0.00  0.00    +0.129 A 
ATOM     24  C   LIG    1      -20.719  90.563  36.174  0.00  0.00    +0.078 A 
BRANCH  22  25
ATOM     25  C   LIG    1      -21.307  94.096  35.745  0.00  0.00    +0.067 A 
ATOM     26  C   LIG    1      -22.343  94.616  36.530  0.00  0.00    +0.028 A 
ATOM     27  C   LIG    1      -22.732  95.957  36.378  0.00  0.00    +0.002 A 
ATOM     28  C   LIG    1      -22.099  96.775  35.440  0.00  0.00    +0.000 A 
ATOM     29  C   LIG    1      -21.066  96.265  34.663  0.00  0.00    +0.002 A 
ATOM     30  C   LIG    1      -20.659  94.935  34.820  0.00  0.00    +0.028 A 
ENDBRANCH  22  25
BRANCH  20  33
ATOM     31  C   LIG    1      -16.903  88.872  37.695  0.00  0.00    +0.174 C 
ATOM     32  N   LIG    1      -18.121  89.609  37.439  0.00  0.00    -0.252 NA
ATOM     33  C   LIG    1      -18.202  90.441  36.460  0.00  0.00    +0.236 C 
BRANCH  33  34
ATOM     34  O   LIG    1      -17.218  90.661  35.567  0.00  0.00    -0.491 OA
ATOM     35  H   LIG    1      -17.218  91.576  35.254  0.00  0.00    +0.294 HD
ENDBRANCH  33  34
ENDBRANCH  20  33
ENDBRANCH   1  23
TORSDOF 6
ENDMDL
MODEL 8
REMARK VINA RESULT:      -6.0      3.348      8.228
REMARK  Name = pdb/CHEMBL3948918.pdb
REMARK                            x       y       z     vdW  Elec       q    Type
REMARK                         _______ _______ _______ _____ _____    ______ ____
ROOT
ATOM      1  N   LIG    1      -37.815  74.039  25.248  0.00  0.00    -0.266 N 
ATOM      2  H   LIG    1      -36.984  74.241  24.701  0.00  0.00    +0.157 HD
ATOM      3  C   LIG    1      -37.729  73.997  26.687  0.00  0.00    +0.251 C 
ATOM      4  O   LIG    1      -38.700  73.699  27.367  0.00  0.00    -0.270 OA
ENDROOT
BRANCH   3   5
ATOM      5  C   LIG    1      -36.423  74.246  27.335  0.00  0.00    +0.056 A 
ATOM      6  C   LIG    1      -35.667  73.256  27.954  0.00  0.00    +0.054 A 
ATOM      7 CL   LIG    1      -36.110  71.587  27.971  0.00  0.00    -0.083 Cl
ATOM      8  C   LIG    1      -34.479  73.606  28.587  0.00  0.00    +0.041 A 
ATOM      9  C   LIG    1      -34.013  74.935  28.597  0.00  0.00    +0.052 A 
ATOM     10 CL   LIG    1      -32.621  75.192  29.589  0.00  0.00    -0.083 Cl
ATOM     11  C   LIG    1      -34.699  75.957  27.912  0.00  0.00    +0.022 A 
ATOM     12  C   LIG    1      -35.920  75.568  27.297  0.00  0.00    +0.026 A 
BRANCH  11  13
ATOM     13  C   LIG    1      -34.280  77.389  27.807  0.00  0.00    +0.107 A 
ATOM     14  C   LIG    1      -33.125  77.860  27.174  0.00  0.00    +0.149 A 
ATOM     15  F   LIG    1      -32.269  77.041  26.550  0.00  0.00    -0.203 F 
ATOM     16  C   LIG    1      -32.866  79.227  27.107  0.00  0.00    +0.042 A 
ATOM     17  C   LIG    1      -33.785  80.124  27.629  0.00  0.00    +0.023 A 
ATOM     18  C   LIG    1      -34.924  79.605  28.216  0.00  0.00    +0.111 A 
ATOM     19  N   LIG    1      -35.183  78.276  28.324  0.00  0.00    -0.252 NA
ENDBRANCH  11  13
ENDBRANCH   3   5
BRANCH   1  23
ATOM     20  C   LIG    1      -40.907  73.121  23.694  0.00  0.00    +0.149 A 
ATOM     21  N   LIG    1      -41.157  74.424  23.892  0.00  0.00    -0.160 NA
ATOM     22  N   LIG    1      -39.977  74.955  24.321  0.00  0.00    -0.218 N 
ATOM     23  C   LIG    1      -39.027  73.957  24.555  0.00  0.00    +0.129 A 
ATOM     24  C   LIG    1      -39.592  72.797  24.084  0.00  0.00    +0.078 A 
BRANCH  22  25
ATOM     25  C   LIG    1      -39.864  76.370  24.498  0.00  0.00    +0.067 A 
ATOM     26  C   LIG    1      -39.879  77.259  23.416  0.00  0.00    +0.028 A 
ATOM     27  C   LIG    1      -39.783  78.641  23.644  0.00  0.00    +0.002 A 
ATOM     28  C   LIG    1      -39.661  79.137  24.944  0.00  0.00    +0.000 A 
ATOM     29  C   LIG    1      -39.651  78.259  26.022  0.00  0.00    +0.002 A 
ATOM     30  C   LIG    1      -39.765  76.881  25.806  0.00  0.00    +0.028 A 
ENDBRANCH  22  25
BRANCH  20  33
ATOM     31  C   LIG    1      -44.076  71.625  22.439  0.00  0.00    +0.174 C 
ATOM     32  N   LIG    1      -43.074  72.552  22.918  0.00  0.00    -0.252 NA
ATOM     33  C   LIG    1      -41.886  72.154  23.211  0.00  0.00    +0.236 C 
BRANCH  33  34
ATOM     34  O   LIG    1      -41.446  70.891  23.052  0.00  0.00    -0.491 OA
ATOM     35  H   LIG    1      -41.683  70.537  22.183  0.00  0.00    +0.294 HD
ENDBRANCH  33  34
ENDBRANCH  20  33
ENDBRANCH   1  23
TORSDOF 6
ENDMDL
MODEL 9
REMARK VINA RESULT:      -5.9      6.973      9.594
REMARK  Name = pdb/CHEMBL3948918.pdb
REMARK                            x       y       z     vdW  Elec       q    Type
REMARK                         _______ _______ _______ _____ _____    ______ ____
ROOT
ATOM      1  N   LIG    1      -36.812  69.993  23.588  0.00  0.00    -0.266 N 
ATOM      2  H   LIG    1      -36.301  70.486  22.862  0.00  0.00    +0.157 HD
ATOM      3  C   LIG    1      -37.480  68.754  23.273  0.00  0.00    +0.251 C 
ATOM      4  O   LIG    1      -38.151  68.170  24.111  0.00  0.00    -0.270 OA
ENDROOT
BRANCH   3   5
ATOM      5  C   LIG    1      -37.407  68.231  21.891  0.00  0.00    +0.056 A 
ATOM      6  C   LIG    1      -38.409  68.413  20.943  0.00  0.00    +0.054 A 
ATOM      7 CL   LIG    1      -39.832  69.349  21.225  0.00  0.00    -0.083 Cl
ATOM      8  C   LIG    1      -38.270  67.828  19.688  0.00  0.00    +0.041 A 
ATOM      9  C   LIG    1      -37.129  67.075  19.348  0.00  0.00    +0.052 A 
ATOM     10 CL   LIG    1      -37.231  66.284  17.815  0.00  0.00    -0.083 Cl
ATOM     11  C   LIG    1      -36.051  66.934  20.245  0.00  0.00    +0.022 A 
ATOM     12  C   LIG    1      -36.238  67.525  21.523  0.00  0.00    +0.026 A 
BRANCH  11  13
ATOM     13  C   LIG    1      -34.771  66.206  19.982  0.00  0.00    +0.107 A 
ATOM     14  C   LIG    1      -34.650  64.848  19.675  0.00  0.00    +0.149 A 
ATOM     15  F   LIG    1      -35.715  64.046  19.551  0.00  0.00    -0.203 F 
ATOM     16  C   LIG    1      -33.399  64.294  19.410  0.00  0.00    +0.042 A 
ATOM     17  C   LIG    1      -32.278  65.109  19.404  0.00  0.00    +0.023 A 
ATOM     18  C   LIG    1      -32.459  66.451  19.684  0.00  0.00    +0.111 A 
ATOM     19  N   LIG    1      -33.662  67.007  19.980  0.00  0.00    -0.252 NA
ENDBRANCH  11  13
ENDBRANCH   3   5
BRANCH   1  23
ATOM     20  C   LIG    1      -35.878  70.933  26.913  0.00  0.00    +0.149 A 
ATOM     21  N   LIG    1      -36.696  71.960  26.632  0.00  0.00    -0.160 NA
ATOM     22  N   LIG    1      -37.280  71.639  25.443  0.00  0.00    -0.218 N 
ATOM     23  C   LIG    1      -36.706  70.491  24.890  0.00  0.00    +0.129 A 
ATOM     24  C   LIG    1      -35.867  69.998  25.860  0.00  0.00    +0.078 A 
BRANCH  22  25
ATOM     25  C   LIG    1      -38.317  72.471  24.920  0.00  0.00    +0.067 A 
ATOM     26  C   LIG    1      -39.462  71.940  24.312  0.00  0.00    +0.028 A 
ATOM     27  C   LIG    1      -40.462  72.800  23.830  0.00  0.00    +0.002 A 
ATOM     28  C   LIG    1      -40.320  74.185  23.943  0.00  0.00    +0.000 A 
ATOM     29  C   LIG    1      -39.189  74.717  24.551  0.00  0.00    +0.002 A 
ATOM     30  C   LIG    1      -38.195  73.868  25.050  0.00  0.00    +0.028 A 
ENDBRANCH  22  25
BRANCH  20  33
ATOM     31  C   LIG    1      -32.956  70.435  29.164  0.00  0.00    +0.174 C 
ATOM     32  N   LIG    1      -33.806  70.545  27.999  0.00  0.00    -0.252 NA
ATOM     33  C   LIG    1      -35.055  70.835  28.112  0.00  0.00    +0.236 C 
BRANCH  33  34
ATOM     34  O   LIG    1      -35.667  71.117  29.279  0.00  0.00    -0.491 OA
ATOM     35  H   LIG    1      -35.360  71.956  29.650  0.00  0.00    +0.294 HD
ENDBRANCH  33  34
ENDBRANCH  20  33
ENDBRANCH   1  23
TORSDOF 6
ENDMDL
