MODEL 1
REMARK VINA RESULT:      -7.4      0.000      0.000
REMARK  Name = pdb/CHEMBL3979424.pdb
REMARK                            x       y       z     vdW  Elec       q    Type
REMARK                         _______ _______ _______ _____ _____    ______ ____
ROOT
ATOM      1  C   LIG    1      -29.916  76.035  31.278  0.00  0.00    +0.149 A 
ATOM      2  N   LIG    1      -29.412  74.791  31.339  0.00  0.00    -0.160 NA
ATOM      3  N   LIG    1      -28.232  74.932  32.002  0.00  0.00    -0.218 N 
ATOM      4  C   LIG    1      -27.909  76.278  32.214  0.00  0.00    +0.129 A 
ATOM      5  C   LIG    1      -29.009  76.988  31.791  0.00  0.00    +0.078 A 
ENDROOT
BRANCH   3   6
ATOM      6  C   LIG    1      -27.495  73.777  32.378  0.00  0.00    +0.067 A 
ATOM      7  C   LIG    1      -27.906  72.979  33.449  0.00  0.00    +0.028 A 
ATOM      8  C   LIG    1      -27.130  71.891  33.856  0.00  0.00    +0.002 A 
ATOM      9  C   LIG    1      -25.957  71.576  33.171  0.00  0.00    +0.000 A 
ATOM     10  C   LIG    1      -25.578  72.327  32.060  0.00  0.00    +0.002 A 
ATOM     11  C   LIG    1      -26.351  73.418  31.652  0.00  0.00    +0.028 A 
ENDBRANCH   3   6
BRANCH   4  12
ATOM     12  N   LIG    1      -26.689  76.807  32.662  0.00  0.00    -0.266 N 
ATOM     13  H   LIG    1      -26.606  77.008  33.655  0.00  0.00    +0.157 HD
ATOM     14  C   LIG    1      -25.571  77.077  31.798  0.00  0.00    +0.251 C 
ATOM     15  O   LIG    1      -25.658  76.882  30.590  0.00  0.00    -0.270 OA
BRANCH  14  16
ATOM     16  C   LIG    1      -24.308  77.596  32.383  0.00  0.00    +0.056 A 
ATOM     17  C   LIG    1      -23.041  77.059  32.136  0.00  0.00    +0.056 A 
ATOM     18 CL   LIG    1      -22.752  75.706  31.120  0.00  0.00    -0.083 Cl
ATOM     19  C   LIG    1      -21.920  77.598  32.766  0.00  0.00    +0.059 A 
ATOM     20  C   LIG    1      -22.053  78.657  33.660  0.00  0.00    +0.134 A 
ATOM     21  F   LIG    1      -20.930  79.125  34.222  0.00  0.00    -0.205 F 
ATOM     22  C   LIG    1      -23.299  79.216  33.965  0.00  0.00    +0.036 A 
ATOM     23  C   LIG    1      -24.418  78.665  33.300  0.00  0.00    +0.027 A 
BRANCH  22  24
ATOM     24  C   LIG    1      -23.469  80.321  34.935  0.00  0.00    +0.074 A 
ATOM     25  N   LIG    1      -24.641  80.309  35.625  0.00  0.00    -0.252 NA
ATOM     26  C   LIG    1      -24.839  81.280  36.554  0.00  0.00    +0.149 A 
ATOM     27  C   LIG    1      -23.917  82.267  36.840  0.00  0.00    +0.141 A 
ATOM     28  F   LIG    1      -24.165  83.190  37.776  0.00  0.00    -0.204 F 
ATOM     29  C   LIG    1      -22.724  82.281  36.142  0.00  0.00    +0.042 A 
ATOM     30  C   LIG    1      -22.494  81.297  35.177  0.00  0.00    +0.031 A 
ENDBRANCH  22  24
ENDBRANCH  14  16
ENDBRANCH   4  12
BRANCH   1  31
ATOM     31  C   LIG    1      -31.231  76.273  30.695  0.00  0.00    +0.236 C 
ATOM     32  N   LIG    1      -31.409  76.199  29.426  0.00  0.00    -0.244 NA
BRANCH  31  33
ATOM     33  O   LIG    1      -32.202  76.562  31.594  0.00  0.00    -0.491 OA
ATOM     34  H   LIG    1      -32.621  77.407  31.345  0.00  0.00    +0.294 HD
ENDBRANCH  31  33
BRANCH  32  35
ATOM     35  C   LIG    1      -32.773  76.451  28.960  0.00  0.00    +0.183 C 
BRANCH  35  36
ATOM     36  C   LIG    1      -32.764  77.494  27.903  0.00  0.00    +0.011 A 
ATOM     37  C   LIG    1      -33.323  78.755  27.946  0.00  0.00    +0.110 A 
ATOM     38  N   LIG    1      -33.050  79.340  26.747  0.00  0.00    -0.284 N 
ATOM     39  H   LIG    1      -33.309  80.267  26.428  0.00  0.00    +0.188 HD
ATOM     40  N   LIG    1      -32.351  78.551  25.916  0.00  0.00    -0.182 NA
ATOM     41  C   LIG    1      -32.176  77.429  26.619  0.00  0.00    +0.139 A 
ENDBRANCH  35  36
ENDBRANCH  32  35
ENDBRANCH   1  31
TORSDOF 8
ENDMDL
MODEL 2
REMARK VINA RESULT:      -6.8      7.112     13.448
REMARK  Name = pdb/CHEMBL3979424.pdb
REMARK                            x       y       z     vdW  Elec       q    Type
REMARK                         _______ _______ _______ _____ _____    ______ ____
ROOT
ATOM      1  C   LIG    1      -31.623  74.303  29.765  0.00  0.00    +0.149 A 
ATOM      2  N   LIG    1      -31.528  75.604  29.444  0.00  0.00    -0.160 NA
ATOM      3  N   LIG    1      -32.652  75.861  28.721  0.00  0.00    -0.218 N 
ATOM      4  C   LIG    1      -33.373  74.693  28.443  0.00  0.00    +0.129 A 
ATOM      5  C   LIG    1      -32.740  73.697  29.150  0.00  0.00    +0.078 A 
ENDROOT
BRANCH   3   6
ATOM      6  C   LIG    1      -32.953  77.196  28.341  0.00  0.00    +0.067 A 
ATOM      7  C   LIG    1      -33.919  77.939  29.027  0.00  0.00    +0.028 A 
ATOM      8  C   LIG    1      -34.258  79.223  28.594  0.00  0.00    +0.002 A 
ATOM      9  C   LIG    1      -33.610  79.783  27.495  0.00  0.00    +0.000 A 
ATOM     10  C   LIG    1      -32.599  79.074  26.849  0.00  0.00    +0.002 A 
ATOM     11  C   LIG    1      -32.258  77.788  27.277  0.00  0.00    +0.028 A 
ENDBRANCH   3   6
BRANCH   4  12
ATOM     12  N   LIG    1      -34.448  74.540  27.554  0.00  0.00    -0.266 N 
ATOM     13  H   LIG    1      -34.223  74.389  26.574  0.00  0.00    +0.157 HD
ATOM     14  C   LIG    1      -35.828  74.590  27.955  0.00  0.00    +0.251 C 
ATOM     15  O   LIG    1      -36.128  74.810  29.124  0.00  0.00    -0.270 OA
BRANCH  14  16
ATOM     16  C   LIG    1      -36.889  74.370  26.939  0.00  0.00    +0.056 A 
ATOM     17  C   LIG    1      -37.210  73.129  26.383  0.00  0.00    +0.056 A 
ATOM     18 CL   LIG    1      -36.414  71.661  26.785  0.00  0.00    -0.083 Cl
ATOM     19  C   LIG    1      -38.200  73.036  25.406  0.00  0.00    +0.059 A 
ATOM     20  C   LIG    1      -38.862  74.177  24.961  0.00  0.00    +0.134 A 
ATOM     21  F   LIG    1      -39.806  74.008  24.024  0.00  0.00    -0.205 F 
ATOM     22  C   LIG    1      -38.564  75.449  25.464  0.00  0.00    +0.036 A 
ATOM     23  C   LIG    1      -37.569  75.514  26.466  0.00  0.00    +0.027 A 
BRANCH  22  24
ATOM     24  C   LIG    1      -39.233  76.679  24.983  0.00  0.00    +0.074 A 
ATOM     25  N   LIG    1      -40.343  77.043  25.680  0.00  0.00    -0.252 NA
ATOM     26  C   LIG    1      -40.980  78.182  25.306  0.00  0.00    +0.149 A 
ATOM     27  C   LIG    1      -40.560  78.991  24.269  0.00  0.00    +0.141 A 
ATOM     28  F   LIG    1      -41.224  80.109  23.955  0.00  0.00    -0.204 F 
ATOM     29  C   LIG    1      -39.431  78.625  23.560  0.00  0.00    +0.042 A 
ATOM     30  C   LIG    1      -38.757  77.455  23.919  0.00  0.00    +0.031 A 
ENDBRANCH  22  24
ENDBRANCH  14  16
ENDBRANCH   4  12
BRANCH   1  31
ATOM     31  C   LIG    1      -30.620  73.676  30.617  0.00  0.00    +0.236 C 
ATOM     32  N   LIG    1      -30.214  74.255  31.688  0.00  0.00    -0.244 NA
BRANCH  31  33
ATOM     33  O   LIG    1      -30.186  72.469  30.182  0.00  0.00    -0.491 OA
ATOM     34  H   LIG    1      -29.506  72.607  29.497  0.00  0.00    +0.294 HD
ENDBRANCH  31  33
BRANCH  32  35
ATOM     35  C   LIG    1      -29.211  73.527  32.465  0.00  0.00    +0.183 C 
BRANCH  35  36
ATOM     36  C   LIG    1      -27.848  73.982  32.089  0.00  0.00    +0.011 A 
ATOM     37  C   LIG    1      -26.735  73.210  31.826  0.00  0.00    +0.110 A 
ATOM     38  N   LIG    1      -25.727  74.075  31.524  0.00  0.00    -0.284 N 
ATOM     39  H   LIG    1      -24.767  73.859  31.278  0.00  0.00    +0.188 HD
ATOM     40  N   LIG    1      -26.100  75.364  31.570  0.00  0.00    -0.182 NA
ATOM     41  C   LIG    1      -27.389  75.307  31.913  0.00  0.00    +0.139 A 
ENDBRANCH  35  36
ENDBRANCH  32  35
ENDBRANCH   1  31
TORSDOF 8
ENDMDL
MODEL 3
REMARK VINA RESULT:      -6.7      8.469     13.627
REMARK  Name = pdb/CHEMBL3979424.pdb
REMARK                            x       y       z     vdW  Elec       q    Type
REMARK                         _______ _______ _______ _____ _____    ______ ____
ROOT
ATOM      1  C   LIG    1      -31.782  74.179  29.912  0.00  0.00    +0.149 A 
ATOM      2  N   LIG    1      -31.616  75.454  29.521  0.00  0.00    -0.160 NA
ATOM      3  N   LIG    1      -32.697  75.715  28.736  0.00  0.00    -0.218 N 
ATOM      4  C   LIG    1      -33.457  74.564  28.494  0.00  0.00    +0.129 A 
ATOM      5  C   LIG    1      -32.899  73.585  29.285  0.00  0.00    +0.078 A 
ENDROOT
BRANCH   3   6
ATOM      6  C   LIG    1      -32.923  77.037  28.267  0.00  0.00    +0.067 A 
ATOM      7  C   LIG    1      -33.840  77.879  28.903  0.00  0.00    +0.028 A 
ATOM      8  C   LIG    1      -34.107  79.148  28.386  0.00  0.00    +0.002 A 
ATOM      9  C   LIG    1      -33.434  79.595  27.250  0.00  0.00    +0.000 A 
ATOM     10  C   LIG    1      -32.469  78.787  26.652  0.00  0.00    +0.002 A 
ATOM     11  C   LIG    1      -32.200  77.515  27.165  0.00  0.00    +0.028 A 
ENDBRANCH   3   6
BRANCH   4  12
ATOM     12  N   LIG    1      -34.499  74.404  27.569  0.00  0.00    -0.266 N 
ATOM     13  H   LIG    1      -34.240  74.237  26.600  0.00  0.00    +0.157 HD
ATOM     14  C   LIG    1      -35.893  74.467  27.919  0.00  0.00    +0.251 C 
ATOM     15  O   LIG    1      -36.234  74.707  29.073  0.00  0.00    -0.270 OA
BRANCH  14  16
ATOM     16  C   LIG    1      -36.918  74.238  26.869  0.00  0.00    +0.056 A 
ATOM     17  C   LIG    1      -37.198  72.997  26.292  0.00  0.00    +0.056 A 
ATOM     18 CL   LIG    1      -36.389  71.540  26.705  0.00  0.00    -0.083 Cl
ATOM     19  C   LIG    1      -38.157  72.896  25.283  0.00  0.00    +0.059 A 
ATOM     20  C   LIG    1      -38.825  74.029  24.829  0.00  0.00    +0.134 A 
ATOM     21  F   LIG    1      -39.736  73.852  23.862  0.00  0.00    -0.205 F 
ATOM     22  C   LIG    1      -38.567  75.301  25.352  0.00  0.00    +0.036 A 
ATOM     23  C   LIG    1      -37.604  75.375  26.385  0.00  0.00    +0.027 A 
BRANCH  22  24
ATOM     24  C   LIG    1      -39.242  76.524  24.863  0.00  0.00    +0.074 A 
ATOM     25  N   LIG    1      -40.476  76.752  25.389  0.00  0.00    -0.252 NA
ATOM     26  C   LIG    1      -41.131  77.877  25.002  0.00  0.00    +0.149 A 
ATOM     27  C   LIG    1      -40.613  78.800  24.116  0.00  0.00    +0.141 A 
ATOM     28  F   LIG    1      -41.303  79.897  23.782  0.00  0.00    -0.204 F 
ATOM     29  C   LIG    1      -39.359  78.571  23.580  0.00  0.00    +0.042 A 
ATOM     30  C   LIG    1      -38.663  77.420  23.956  0.00  0.00    +0.031 A 
ENDBRANCH  22  24
ENDBRANCH  14  16
ENDBRANCH   4  12
BRANCH   1  31
ATOM     31  C   LIG    1      -30.843  73.563  30.842  0.00  0.00    +0.236 C 
ATOM     32  N   LIG    1      -30.885  72.301  31.076  0.00  0.00    -0.244 NA
BRANCH  31  33
ATOM     33  O   LIG    1      -29.959  74.421  31.402  0.00  0.00    -0.491 OA
ATOM     34  H   LIG    1      -29.990  74.317  32.372  0.00  0.00    +0.294 HD
ENDBRANCH  31  33
BRANCH  32  35
ATOM     35  C   LIG    1      -29.890  71.796  32.021  0.00  0.00    +0.183 C 
BRANCH  35  36
ATOM     36  C   LIG    1      -28.886  70.967  31.308  0.00  0.00    +0.011 A 
ATOM     37  C   LIG    1      -29.069  69.739  30.704  0.00  0.00    +0.110 A 
ATOM     38  N   LIG    1      -27.863  69.382  30.182  0.00  0.00    -0.284 N 
ATOM     39  H   LIG    1      -27.626  68.540  29.668  0.00  0.00    +0.188 HD
ATOM     40  N   LIG    1      -26.898  70.289  30.400  0.00  0.00    -0.182 NA
ATOM     41  C   LIG    1      -27.520  71.253  31.084  0.00  0.00    +0.139 A 
ENDBRANCH  35  36
ENDBRANCH  32  35
ENDBRANCH   1  31
TORSDOF 8
ENDMDL
MODEL 4
REMARK VINA RESULT:      -6.7     11.529     17.463
REMARK  Name = pdb/CHEMBL3979424.pdb
REMARK                            x       y       z     vdW  Elec       q    Type
REMARK                         _______ _______ _______ _____ _____    ______ ____
ROOT
ATOM      1  C   LIG    1      -35.913  71.496  27.057  0.00  0.00    +0.149 A 
ATOM      2  N   LIG    1      -36.750  72.492  26.720  0.00  0.00    -0.160 NA
ATOM      3  N   LIG    1      -37.295  72.096  25.537  0.00  0.00    -0.218 N 
ATOM      4  C   LIG    1      -36.684  70.937  25.043  0.00  0.00    +0.129 A 
ATOM      5  C   LIG    1      -35.828  70.522  26.038  0.00  0.00    +0.078 A 
ENDROOT
BRANCH   3   6
ATOM      6  C   LIG    1      -38.349  72.853  24.960  0.00  0.00    +0.067 A 
ATOM      7  C   LIG    1      -38.320  74.251  24.970  0.00  0.00    +0.028 A 
ATOM      8  C   LIG    1      -39.399  74.982  24.467  0.00  0.00    +0.002 A 
ATOM      9  C   LIG    1      -40.496  74.319  23.920  0.00  0.00    +0.000 A 
ATOM     10  C   LIG    1      -40.500  72.928  23.845  0.00  0.00    +0.002 A 
ATOM     11  C   LIG    1      -39.424  72.193  24.350  0.00  0.00    +0.028 A 
ENDBRANCH   3   6
BRANCH   4  12
ATOM     12  N   LIG    1      -36.829  70.368  23.768  0.00  0.00    -0.266 N 
ATOM     13  H   LIG    1      -36.419  70.871  22.986  0.00  0.00    +0.157 HD
ATOM     14  C   LIG    1      -37.520  69.131  23.520  0.00  0.00    +0.251 C 
ATOM     15  O   LIG    1      -38.058  68.524  24.441  0.00  0.00    -0.270 OA
BRANCH  14  16
ATOM     16  C   LIG    1      -37.576  68.594  22.137  0.00  0.00    +0.056 A 
ATOM     17  C   LIG    1      -38.664  68.741  21.273  0.00  0.00    +0.056 A 
ATOM     18 CL   LIG    1      -40.114  69.562  21.685  0.00  0.00    -0.083 Cl
ATOM     19  C   LIG    1      -38.631  68.164  20.003  0.00  0.00    +0.059 A 
ATOM     20  C   LIG    1      -37.527  67.422  19.594  0.00  0.00    +0.134 A 
ATOM     21  F   LIG    1      -37.564  66.903  18.359  0.00  0.00    -0.205 F 
ATOM     22  C   LIG    1      -36.420  67.220  20.427  0.00  0.00    +0.036 A 
ATOM     23  C   LIG    1      -36.470  67.829  21.702  0.00  0.00    +0.027 A 
BRANCH  22  24
ATOM     24  C   LIG    1      -35.249  66.408  20.025  0.00  0.00    +0.074 A 
ATOM     25  N   LIG    1      -34.412  67.004  19.134  0.00  0.00    -0.252 NA
ATOM     26  C   LIG    1      -33.302  66.320  18.752  0.00  0.00    +0.149 A 
ATOM     27  C   LIG    1      -32.975  65.064  19.224  0.00  0.00    +0.141 A 
ATOM     28  F   LIG    1      -31.860  64.445  18.820  0.00  0.00    -0.204 F 
ATOM     29  C   LIG    1      -33.824  64.457  20.132  0.00  0.00    +0.042 A 
ATOM     30  C   LIG    1      -34.975  65.134  20.539  0.00  0.00    +0.031 A 
ENDBRANCH  22  24
ENDBRANCH  14  16
ENDBRANCH   4  12
BRANCH   1  31
ATOM     31  C   LIG    1      -35.194  71.531  28.325  0.00  0.00    +0.236 C 
ATOM     32  N   LIG    1      -34.174  72.295  28.480  0.00  0.00    -0.244 NA
BRANCH  31  33
ATOM     33  O   LIG    1      -35.698  70.715  29.281  0.00  0.00    -0.491 OA
ATOM     34  H   LIG    1      -36.278  70.055  28.857  0.00  0.00    +0.294 HD
ENDBRANCH  31  33
BRANCH  32  35
ATOM     35  C   LIG    1      -33.540  72.249  29.797  0.00  0.00    +0.183 C 
BRANCH  35  36
ATOM     36  C   LIG    1      -32.169  71.689  29.682  0.00  0.00    +0.011 A 
ATOM     37  C   LIG    1      -31.800  70.373  29.492  0.00  0.00    +0.110 A 
ATOM     38  N   LIG    1      -30.439  70.356  29.446  0.00  0.00    -0.284 N 
ATOM     39  H   LIG    1      -29.825  69.559  29.319  0.00  0.00    +0.188 HD
ATOM     40  N   LIG    1      -29.886  71.570  29.594  0.00  0.00    -0.182 NA
ATOM     41  C   LIG    1      -30.938  72.380  29.737  0.00  0.00    +0.139 A 
ENDBRANCH  35  36
ENDBRANCH  32  35
ENDBRANCH   1  31
TORSDOF 8
ENDMDL
MODEL 5
REMARK VINA RESULT:      -6.7      8.576     14.501
REMARK  Name = pdb/CHEMBL3979424.pdb
REMARK                            x       y       z     vdW  Elec       q    Type
REMARK                         _______ _______ _______ _____ _____    ______ ____
ROOT
ATOM      1  C   LIG    1      -32.735  74.066  29.735  0.00  0.00    +0.149 A 
ATOM      2  N   LIG    1      -32.331  75.309  29.424  0.00  0.00    -0.160 NA
ATOM      3  N   LIG    1      -33.304  75.789  28.602  0.00  0.00    -0.218 N 
ATOM      4  C   LIG    1      -34.234  74.800  28.260  0.00  0.00    +0.129 A 
ATOM      5  C   LIG    1      -33.898  73.704  29.022  0.00  0.00    +0.078 A 
ENDROOT
BRANCH   3   6
ATOM      6  C   LIG    1      -33.272  77.150  28.195  0.00  0.00    +0.067 A 
ATOM      7  C   LIG    1      -34.127  78.092  28.773  0.00  0.00    +0.028 A 
ATOM      8  C   LIG    1      -34.138  79.411  28.311  0.00  0.00    +0.002 A 
ATOM      9  C   LIG    1      -33.271  79.800  27.292  0.00  0.00    +0.000 A 
ATOM     10  C   LIG    1      -32.369  78.881  26.759  0.00  0.00    +0.002 A 
ATOM     11  C   LIG    1      -32.356  77.561  27.217  0.00  0.00    +0.028 A 
ENDBRANCH   3   6
BRANCH   4  12
ATOM     12  N   LIG    1      -35.233  74.865  27.277  0.00  0.00    -0.266 N 
ATOM     13  H   LIG    1      -34.980  74.575  26.336  0.00  0.00    +0.157 HD
ATOM     14  C   LIG    1      -36.574  75.319  27.531  0.00  0.00    +0.251 C 
ATOM     15  O   LIG    1      -36.895  75.713  28.648  0.00  0.00    -0.270 OA
BRANCH  14  16
ATOM     16  C   LIG    1      -37.568  75.307  26.428  0.00  0.00    +0.056 A 
ATOM     17  C   LIG    1      -38.227  76.439  25.941  0.00  0.00    +0.056 A 
ATOM     18 CL   LIG    1      -37.992  78.025  26.554  0.00  0.00    -0.083 Cl
ATOM     19  C   LIG    1      -39.173  76.313  24.924  0.00  0.00    +0.059 A 
ATOM     20  C   LIG    1      -39.485  75.062  24.402  0.00  0.00    +0.134 A 
ATOM     21  F   LIG    1      -40.400  75.021  23.423  0.00  0.00    -0.205 F 
ATOM     22  C   LIG    1      -38.876  73.891  24.868  0.00  0.00    +0.036 A 
ATOM     23  C   LIG    1      -37.908  74.046  25.887  0.00  0.00    +0.027 A 
BRANCH  22  24
ATOM     24  C   LIG    1      -39.215  72.547  24.350  0.00  0.00    +0.074 A 
ATOM     25  N   LIG    1      -38.213  71.630  24.422  0.00  0.00    -0.252 NA
ATOM     26  C   LIG    1      -38.475  70.369  23.991  0.00  0.00    +0.149 A 
ATOM     27  C   LIG    1      -39.699  69.968  23.494  0.00  0.00    +0.141 A 
ATOM     28  F   LIG    1      -39.900  68.707  23.095  0.00  0.00    -0.204 F 
ATOM     29  C   LIG    1      -40.720  70.897  23.420  0.00  0.00    +0.042 A 
ATOM     30  C   LIG    1      -40.478  72.203  23.852  0.00  0.00    +0.031 A 
ENDBRANCH  22  24
ENDBRANCH  14  16
ENDBRANCH   4  12
BRANCH   1  31
ATOM     31  C   LIG    1      -31.972  73.253  30.675  0.00  0.00    +0.236 C 
ATOM     32  N   LIG    1      -30.719  73.466  30.860  0.00  0.00    -0.244 NA
BRANCH  31  33
ATOM     33  O   LIG    1      -32.692  72.298  31.308  0.00  0.00    -0.491 OA
ATOM     34  H   LIG    1      -32.633  72.444  32.271  0.00  0.00    +0.294 HD
ENDBRANCH  31  33
BRANCH  32  35
ATOM     35  C   LIG    1      -30.062  72.593  31.831  0.00  0.00    +0.183 C 
BRANCH  35  36
ATOM     36  C   LIG    1      -29.086  71.711  31.143  0.00  0.00    +0.011 A 
ATOM     37  C   LIG    1      -29.339  70.712  30.225  0.00  0.00    +0.110 A 
ATOM     38  N   LIG    1      -28.130  70.192  29.877  0.00  0.00    -0.284 N 
ATOM     39  H   LIG    1      -27.934  69.441  29.223  0.00  0.00    +0.188 HD
ATOM     40  N   LIG    1      -27.097  70.777  30.503  0.00  0.00    -0.182 NA
ATOM     41  C   LIG    1      -27.678  71.701  31.272  0.00  0.00    +0.139 A 
ENDBRANCH  35  36
ENDBRANCH  32  35
ENDBRANCH   1  31
TORSDOF 8
ENDMDL
MODEL 6
REMARK VINA RESULT:      -6.7      4.350      7.458
REMARK  Name = pdb/CHEMBL3979424.pdb
REMARK                            x       y       z     vdW  Elec       q    Type
REMARK                         _______ _______ _______ _____ _____    ______ ____
ROOT
ATOM      1  C   LIG    1      -33.520  73.355  28.717  0.00  0.00    +0.149 A 
ATOM      2  N   LIG    1      -33.944  74.559  28.295  0.00  0.00    -0.160 NA
ATOM      3  N   LIG    1      -32.960  75.420  28.675  0.00  0.00    -0.218 N 
ATOM      4  C   LIG    1      -31.998  74.793  29.477  0.00  0.00    +0.129 A 
ATOM      5  C   LIG    1      -32.330  73.458  29.468  0.00  0.00    +0.078 A 
ENDROOT
BRANCH   3   6
ATOM      6  C   LIG    1      -33.011  76.775  28.253  0.00  0.00    +0.067 A 
ATOM      7  C   LIG    1      -33.746  77.724  28.970  0.00  0.00    +0.028 A 
ATOM      8  C   LIG    1      -33.849  79.036  28.501  0.00  0.00    +0.002 A 
ATOM      9  C   LIG    1      -33.189  79.414  27.333  0.00  0.00    +0.000 A 
ATOM     10  C   LIG    1      -32.399  78.489  26.652  0.00  0.00    +0.002 A 
ATOM     11  C   LIG    1      -32.296  77.175  27.116  0.00  0.00    +0.028 A 
ENDBRANCH   3   6
BRANCH   4  12
ATOM     12  N   LIG    1      -30.974  75.400  30.220  0.00  0.00    -0.266 N 
ATOM     13  H   LIG    1      -30.473  76.168  29.780  0.00  0.00    +0.157 HD
ATOM     14  C   LIG    1      -30.603  74.992  31.548  0.00  0.00    +0.251 C 
ATOM     15  O   LIG    1      -31.163  74.042  32.086  0.00  0.00    -0.270 OA
BRANCH  14  16
ATOM     16  C   LIG    1      -29.533  75.732  32.264  0.00  0.00    +0.056 A 
ATOM     17  C   LIG    1      -29.704  76.388  33.486  0.00  0.00    +0.056 A 
ATOM     18 CL   LIG    1      -31.189  76.445  34.346  0.00  0.00    -0.083 Cl
ATOM     19  C   LIG    1      -28.642  77.088  34.058  0.00  0.00    +0.059 A 
ATOM     20  C   LIG    1      -27.413  77.158  33.410  0.00  0.00    +0.134 A 
ATOM     21  F   LIG    1      -26.438  77.844  34.024  0.00  0.00    -0.205 F 
ATOM     22  C   LIG    1      -27.191  76.543  32.172  0.00  0.00    +0.036 A 
ATOM     23  C   LIG    1      -28.278  75.825  31.622  0.00  0.00    +0.027 A 
BRANCH  22  24
ATOM     24  C   LIG    1      -25.903  76.631  31.450  0.00  0.00    +0.074 A 
ATOM     25  N   LIG    1      -25.651  77.832  30.862  0.00  0.00    -0.252 NA
ATOM     26  C   LIG    1      -24.468  77.983  30.212  0.00  0.00    +0.149 A 
ATOM     27  C   LIG    1      -23.510  76.993  30.123  0.00  0.00    +0.141 A 
ATOM     28  F   LIG    1      -22.357  77.206  29.478  0.00  0.00    -0.204 F 
ATOM     29  C   LIG    1      -23.762  75.772  30.720  0.00  0.00    +0.042 A 
ATOM     30  C   LIG    1      -24.973  75.586  31.392  0.00  0.00    +0.031 A 
ENDBRANCH  22  24
ENDBRANCH  14  16
ENDBRANCH   4  12
BRANCH   1  31
ATOM     31  C   LIG    1      -34.291  72.154  28.418  0.00  0.00    +0.236 C 
ATOM     32  N   LIG    1      -35.475  72.238  27.930  0.00  0.00    -0.244 NA
BRANCH  31  33
ATOM     33  O   LIG    1      -33.651  70.992  28.691  0.00  0.00    -0.491 OA
ATOM     34  H   LIG    1      -33.315  70.614  27.856  0.00  0.00    +0.294 HD
ENDBRANCH  31  33
BRANCH  32  35
ATOM     35  C   LIG    1      -36.146  70.966  27.666  0.00  0.00    +0.183 C 
BRANCH  35  36
ATOM     36  C   LIG    1      -36.411  70.823  26.211  0.00  0.00    +0.011 A 
ATOM     37  C   LIG    1      -37.080  71.696  25.378  0.00  0.00    +0.110 A 
ATOM     38  N   LIG    1      -37.061  71.135  24.136  0.00  0.00    -0.284 N 
ATOM     39  H   LIG    1      -37.459  71.499  23.277  0.00  0.00    +0.188 HD
ATOM     40  N   LIG    1      -36.427  69.953  24.096  0.00  0.00    -0.182 NA
ATOM     41  C   LIG    1      -36.032  69.763  25.357  0.00  0.00    +0.139 A 
ENDBRANCH  35  36
ENDBRANCH  32  35
ENDBRANCH   1  31
TORSDOF 8
ENDMDL
MODEL 7
REMARK VINA RESULT:      -6.7     11.151     17.486
REMARK  Name = pdb/CHEMBL3979424.pdb
REMARK                            x       y       z     vdW  Elec       q    Type
REMARK                         _______ _______ _______ _____ _____    ______ ____
ROOT
ATOM      1  C   LIG    1      -37.804  76.706  26.322  0.00  0.00    +0.149 A 
ATOM      2  N   LIG    1      -38.955  77.339  26.041  0.00  0.00    -0.160 NA
ATOM      3  N   LIG    1      -39.697  76.419  25.367  0.00  0.00    -0.218 N 
ATOM      4  C   LIG    1      -38.959  75.265  25.076  0.00  0.00    +0.129 A 
ATOM      5  C   LIG    1      -37.758  75.426  25.727  0.00  0.00    +0.078 A 
ENDROOT
BRANCH   3   6
ATOM      6  C   LIG    1      -41.050  76.707  25.042  0.00  0.00    +0.067 A 
ATOM      7  C   LIG    1      -41.407  77.131  23.759  0.00  0.00    +0.028 A 
ATOM      8  C   LIG    1      -42.729  77.484  23.476  0.00  0.00    +0.002 A 
ATOM      9  C   LIG    1      -43.705  77.381  24.465  0.00  0.00    +0.000 A 
ATOM     10  C   LIG    1      -43.368  76.894  25.726  0.00  0.00    +0.002 A 
ATOM     11  C   LIG    1      -42.046  76.543  26.014  0.00  0.00    +0.028 A 
ENDBRANCH   3   6
BRANCH   4  12
ATOM     12  N   LIG    1      -39.316  74.212  24.220  0.00  0.00    -0.266 N 
ATOM     13  H   LIG    1      -38.941  74.232  23.275  0.00  0.00    +0.157 HD
ATOM     14  C   LIG    1      -40.176  73.125  24.608  0.00  0.00    +0.251 C 
ATOM     15  O   LIG    1      -40.675  73.097  25.728  0.00  0.00    -0.270 OA
BRANCH  14  16
ATOM     16  C   LIG    1      -40.455  72.036  23.637  0.00  0.00    +0.056 A 
ATOM     17  C   LIG    1      -41.615  71.940  22.866  0.00  0.00    +0.056 A 
ATOM     18 CL   LIG    1      -42.908  73.068  22.929  0.00  0.00    -0.083 Cl
ATOM     19  C   LIG    1      -41.797  70.854  22.009  0.00  0.00    +0.059 A 
ATOM     20  C   LIG    1      -40.837  69.849  21.931  0.00  0.00    +0.134 A 
ATOM     21  F   LIG    1      -41.079  68.841  21.082  0.00  0.00    -0.205 F 
ATOM     22  C   LIG    1      -39.668  69.880  22.700  0.00  0.00    +0.036 A 
ATOM     23  C   LIG    1      -39.499  71.000  23.547  0.00  0.00    +0.027 A 
BRANCH  22  24
ATOM     24  C   LIG    1      -38.649  68.807  22.656  0.00  0.00    +0.074 A 
ATOM     25  N   LIG    1      -38.988  67.663  23.309  0.00  0.00    -0.252 NA
ATOM     26  C   LIG    1      -38.106  66.631  23.276  0.00  0.00    +0.149 A 
ATOM     27  C   LIG    1      -36.895  66.677  22.613  0.00  0.00    +0.141 A 
ATOM     28  F   LIG    1      -36.073  65.621  22.608  0.00  0.00    -0.204 F 
ATOM     29  C   LIG    1      -36.549  67.838  21.948  0.00  0.00    +0.042 A 
ATOM     30  C   LIG    1      -37.435  68.918  21.968  0.00  0.00    +0.031 A 
ENDBRANCH  22  24
ENDBRANCH  14  16
ENDBRANCH   4  12
BRANCH   1  31
ATOM     31  C   LIG    1      -36.773  77.362  27.117  0.00  0.00    +0.236 C 
ATOM     32  N   LIG    1      -35.806  76.687  27.624  0.00  0.00    -0.244 NA
BRANCH  31  33
ATOM     33  O   LIG    1      -36.933  78.700  27.253  0.00  0.00    -0.491 OA
ATOM     34  H   LIG    1      -36.586  78.972  28.124  0.00  0.00    +0.294 HD
ENDBRANCH  31  33
BRANCH  32  35
ATOM     35  C   LIG    1      -34.830  77.455  28.396  0.00  0.00    +0.183 C 
BRANCH  35  36
ATOM     36  C   LIG    1      -33.716  77.891  27.517  0.00  0.00    +0.011 A 
ATOM     37  C   LIG    1      -33.313  79.179  27.227  0.00  0.00    +0.110 A 
ATOM     38  N   LIG    1      -32.250  79.070  26.382  0.00  0.00    -0.284 N 
ATOM     39  H   LIG    1      -31.701  79.814  25.964  0.00  0.00    +0.188 HD
ATOM     40  N   LIG    1      -31.926  77.799  26.095  0.00  0.00    -0.182 NA
ATOM     41  C   LIG    1      -32.816  77.083  26.785  0.00  0.00    +0.139 A 
ENDBRANCH  35  36
ENDBRANCH  32  35
ENDBRANCH   1  31
TORSDOF 8
ENDMDL
MODEL 8
REMARK VINA RESULT:      -6.6     10.907     14.897
REMARK  Name = pdb/CHEMBL3979424.pdb
REMARK                            x       y       z     vdW  Elec       q    Type
REMARK                         _______ _______ _______ _____ _____    ______ ____
ROOT
ATOM      1  C   LIG    1      -37.311  79.615  27.841  0.00  0.00    +0.149 A 
ATOM      2  N   LIG    1      -36.286  78.887  28.315  0.00  0.00    -0.160 NA
ATOM      3  N   LIG    1      -36.441  77.663  27.739  0.00  0.00    -0.218 N 
ATOM      4  C   LIG    1      -37.648  77.565  27.037  0.00  0.00    +0.129 A 
ATOM      5  C   LIG    1      -38.189  78.830  27.061  0.00  0.00    +0.078 A 
ENDROOT
BRANCH   3   6
ATOM      6  C   LIG    1      -35.434  76.675  27.907  0.00  0.00    +0.067 A 
ATOM      7  C   LIG    1      -34.081  76.994  27.755  0.00  0.00    +0.028 A 
ATOM      8  C   LIG    1      -33.108  75.996  27.847  0.00  0.00    +0.002 A 
ATOM      9  C   LIG    1      -33.479  74.682  28.125  0.00  0.00    +0.000 A 
ATOM     10  C   LIG    1      -34.820  74.371  28.345  0.00  0.00    +0.002 A 
ATOM     11  C   LIG    1      -35.797  75.366  28.251  0.00  0.00    +0.028 A 
ENDBRANCH   3   6
BRANCH   4  12
ATOM     12  N   LIG    1      -38.241  76.408  26.508  0.00  0.00    -0.266 N 
ATOM     13  H   LIG    1      -38.890  75.903  27.105  0.00  0.00    +0.157 HD
ATOM     14  C   LIG    1      -37.975  75.909  25.185  0.00  0.00    +0.251 C 
ATOM     15  O   LIG    1      -37.166  76.476  24.458  0.00  0.00    -0.270 OA
BRANCH  14  16
ATOM     16  C   LIG    1      -38.691  74.700  24.706  0.00  0.00    +0.056 A 
ATOM     17  C   LIG    1      -39.964  74.708  24.128  0.00  0.00    +0.056 A 
ATOM     18 CL   LIG    1      -40.902  76.126  23.892  0.00  0.00    -0.083 Cl
ATOM     19  C   LIG    1      -40.566  73.510  23.745  0.00  0.00    +0.059 A 
ATOM     20  C   LIG    1      -39.916  72.296  23.954  0.00  0.00    +0.134 A 
ATOM     21  F   LIG    1      -40.554  71.187  23.554  0.00  0.00    -0.205 F 
ATOM     22  C   LIG    1      -38.652  72.225  24.551  0.00  0.00    +0.036 A 
ATOM     23  C   LIG    1      -38.056  73.455  24.914  0.00  0.00    +0.027 A 
BRANCH  22  24
ATOM     24  C   LIG    1      -37.957  70.945  24.811  0.00  0.00    +0.074 A 
ATOM     25  N   LIG    1      -37.523  70.288  23.701  0.00  0.00    -0.252 NA
ATOM     26  C   LIG    1      -36.849  69.122  23.878  0.00  0.00    +0.149 A 
ATOM     27  C   LIG    1      -36.574  68.576  25.117  0.00  0.00    +0.141 A 
ATOM     28  F   LIG    1      -35.894  67.429  25.227  0.00  0.00    -0.204 F 
ATOM     29  C   LIG    1      -37.012  69.242  26.246  0.00  0.00    +0.042 A 
ATOM     30  C   LIG    1      -37.712  70.441  26.094  0.00  0.00    +0.031 A 
ENDBRANCH  22  24
ENDBRANCH  14  16
ENDBRANCH   4  12
BRANCH   1  31
ATOM     31  C   LIG    1      -37.436  81.026  28.183  0.00  0.00    +0.236 C 
ATOM     32  N   LIG    1      -36.531  81.868  27.837  0.00  0.00    -0.244 NA
BRANCH  31  33
ATOM     33  O   LIG    1      -38.561  81.343  28.869  0.00  0.00    -0.491 OA
ATOM     34  H   LIG    1      -38.695  82.308  28.824  0.00  0.00    +0.294 HD
ENDBRANCH  31  33
BRANCH  32  35
ATOM     35  C   LIG    1      -36.769  83.256  28.230  0.00  0.00    +0.183 C 
BRANCH  35  36
ATOM     36  C   LIG    1      -36.078  84.176  27.292  0.00  0.00    +0.011 A 
ATOM     37  C   LIG    1      -35.315  85.286  27.594  0.00  0.00    +0.110 A 
ATOM     38  N   LIG    1      -34.890  85.798  26.406  0.00  0.00    -0.284 N 
ATOM     39  H   LIG    1      -34.308  86.614  26.246  0.00  0.00    +0.188 HD
ATOM     40  N   LIG    1      -35.322  85.104  25.342  0.00  0.00    -0.182 NA
ATOM     41  C   LIG    1      -36.044  84.118  25.880  0.00  0.00    +0.139 A 
ENDBRANCH  35  36
ENDBRANCH  32  35
ENDBRANCH   1  31
TORSDOF 8
ENDMDL
MODEL 9
REMARK VINA RESULT:      -6.6      7.668     14.244
REMARK  Name = pdb/CHEMBL3979424.pdb
REMARK                            x       y       z     vdW  Elec       q    Type
REMARK                         _______ _______ _______ _____ _____    ______ ____
ROOT
ATOM      1  C   LIG    1      -32.154  75.307  29.489  0.00  0.00    +0.149 A 
ATOM      2  N   LIG    1      -32.258  76.647  29.511  0.00  0.00    -0.160 NA
ATOM      3  N   LIG    1      -33.400  76.913  28.821  0.00  0.00    -0.218 N 
ATOM      4  C   LIG    1      -33.929  75.764  28.222  0.00  0.00    +0.129 A 
ATOM      5  C   LIG    1      -33.158  74.723  28.686  0.00  0.00    +0.078 A 
ENDROOT
BRANCH   3   6
ATOM      6  C   LIG    1      -33.900  78.242  28.776  0.00  0.00    +0.067 A 
ATOM      7  C   LIG    1      -33.739  79.032  27.634  0.00  0.00    +0.028 A 
ATOM      8  C   LIG    1      -34.169  80.362  27.631  0.00  0.00    +0.002 A 
ATOM      9  C   LIG    1      -34.791  80.897  28.757  0.00  0.00    +0.000 A 
ATOM     10  C   LIG    1      -35.015  80.094  29.874  0.00  0.00    +0.002 A 
ATOM     11  C   LIG    1      -34.584  78.764  29.882  0.00  0.00    +0.028 A 
ENDBRANCH   3   6
BRANCH   4  12
ATOM     12  N   LIG    1      -34.958  75.689  27.271  0.00  0.00    -0.266 N 
ATOM     13  H   LIG    1      -34.685  75.546  26.302  0.00  0.00    +0.157 HD
ATOM     14  C   LIG    1      -36.355  75.806  27.595  0.00  0.00    +0.251 C 
ATOM     15  O   LIG    1      -36.709  76.019  28.750  0.00  0.00    -0.270 OA
BRANCH  14  16
ATOM     16  C   LIG    1      -37.366  75.666  26.516  0.00  0.00    +0.056 A 
ATOM     17  C   LIG    1      -38.161  76.709  26.035  0.00  0.00    +0.056 A 
ATOM     18 CL   LIG    1      -38.095  78.320  26.627  0.00  0.00    -0.083 Cl
ATOM     19  C   LIG    1      -39.110  76.465  25.042  0.00  0.00    +0.059 A 
ATOM     20  C   LIG    1      -39.288  75.179  24.539  0.00  0.00    +0.134 A 
ATOM     21  F   LIG    1      -40.215  75.022  23.583  0.00  0.00    -0.205 F 
ATOM     22  C   LIG    1      -38.539  74.091  25.002  0.00  0.00    +0.036 A 
ATOM     23  C   LIG    1      -37.571  74.369  25.995  0.00  0.00    +0.027 A 
BRANCH  22  24
ATOM     24  C   LIG    1      -38.733  72.711  24.505  0.00  0.00    +0.074 A 
ATOM     25  N   LIG    1      -37.628  71.919  24.552  0.00  0.00    -0.252 NA
ATOM     26  C   LIG    1      -37.754  70.631  24.139  0.00  0.00    +0.149 A 
ATOM     27  C   LIG    1      -38.937  70.084  23.684  0.00  0.00    +0.141 A 
ATOM     28  F   LIG    1      -39.001  68.803  23.302  0.00  0.00    -0.204 F 
ATOM     29  C   LIG    1      -40.062  70.886  23.636  0.00  0.00    +0.042 A 
ATOM     30  C   LIG    1      -39.962  72.216  24.051  0.00  0.00    +0.031 A 
ENDBRANCH  22  24
ENDBRANCH  14  16
ENDBRANCH   4  12
BRANCH   1  31
ATOM     31  C   LIG    1      -31.075  74.636  30.204  0.00  0.00    +0.236 C 
ATOM     32  N   LIG    1      -30.400  75.255  31.103  0.00  0.00    -0.244 NA
BRANCH  31  33
ATOM     33  O   LIG    1      -30.874  73.348  29.840  0.00  0.00    -0.491 OA
ATOM     34  H   LIG    1      -30.158  72.974  30.387  0.00  0.00    +0.294 HD
ENDBRANCH  31  33
BRANCH  32  35
ATOM     35  C   LIG    1      -29.348  74.477  31.757  0.00  0.00    +0.183 C 
BRANCH  35  36
ATOM     36  C   LIG    1      -28.172  75.341  32.029  0.00  0.00    +0.011 A 
ATOM     37  C   LIG    1      -26.857  74.959  32.205  0.00  0.00    +0.110 A 
ATOM     38  N   LIG    1      -26.149  76.102  32.423  0.00  0.00    -0.284 N 
ATOM     39  H   LIG    1      -25.153  76.201  32.591  0.00  0.00    +0.188 HD
ATOM     40  N   LIG    1      -26.906  77.210  32.405  0.00  0.00    -0.182 NA
ATOM     41  C   LIG    1      -28.136  76.747  32.166  0.00  0.00    +0.139 A 
ENDBRANCH  35  36
ENDBRANCH  32  35
ENDBRANCH   1  31
TORSDOF 8
ENDMDL
