MODEL 1
REMARK VINA RESULT:      -6.8      0.000      0.000
REMARK  Name = pdb/CHEMBL3942546.pdb
REMARK                            x       y       z     vdW  Elec       q    Type
REMARK                         _______ _______ _______ _____ _____    ______ ____
ROOT
ATOM      1  C   LIG    1      -37.187  76.195  26.068  0.00  0.00    +0.149 A 
ATOM      2  N   LIG    1      -37.929  75.149  25.669  0.00  0.00    -0.160 NA
ATOM      3  N   LIG    1      -38.932  75.669  24.915  0.00  0.00    -0.218 N 
ATOM      4  C   LIG    1      -38.871  77.071  24.892  0.00  0.00    +0.129 A 
ATOM      5  C   LIG    1      -37.760  77.409  25.627  0.00  0.00    +0.078 A 
ENDROOT
BRANCH   3   6
ATOM      6  C   LIG    1      -39.882  74.782  24.312  0.00  0.00    +0.067 A 
ATOM      7  C   LIG    1      -39.586  73.405  24.256  0.00  0.00    +0.028 A 
ATOM      8  C   LIG    1      -40.499  72.496  23.704  0.00  0.00    +0.002 A 
ATOM      9  C   LIG    1      -41.704  72.941  23.174  0.00  0.00    +0.000 A 
ATOM     10  C   LIG    1      -41.990  74.311  23.189  0.00  0.00    +0.002 A 
ATOM     11  C   LIG    1      -41.087  75.229  23.752  0.00  0.00    +0.028 A 
ENDBRANCH   3   6
BRANCH   4  12
ATOM     12  N   LIG    1      -39.795  77.959  24.326  0.00  0.00    -0.266 N 
ATOM     13  H   LIG    1      -39.767  78.059  23.319  0.00  0.00    +0.157 HD
ATOM     14  C   LIG    1      -40.842  78.651  25.035  0.00  0.00    +0.251 C 
ATOM     15  O   LIG    1      -41.003  78.511  26.236  0.00  0.00    -0.270 OA
BRANCH  14  16
ATOM     16  C   LIG    1      -41.701  79.579  24.238  0.00  0.00    +0.056 A 
ATOM     17  C   LIG    1      -43.020  79.290  23.892  0.00  0.00    +0.054 A 
ATOM     18 CL   LIG    1      -43.859  77.867  24.397  0.00  0.00    -0.083 Cl
ATOM     19  C   LIG    1      -43.739  80.175  23.091  0.00  0.00    +0.041 A 
ATOM     20  C   LIG    1      -43.162  81.364  22.622  0.00  0.00    +0.052 A 
ATOM     21 CL   LIG    1      -44.171  82.263  21.538  0.00  0.00    -0.083 Cl
ATOM     22  C   LIG    1      -41.847  81.727  22.978  0.00  0.00    +0.019 A 
ATOM     23  C   LIG    1      -41.139  80.800  23.798  0.00  0.00    +0.026 A 
BRANCH  22  24
ATOM     24  C   LIG    1      -41.155  82.968  22.527  0.00  0.00    +0.072 A 
ATOM     25  N   LIG    1      -41.127  83.972  23.444  0.00  0.00    -0.255 NA
ATOM     26  C   LIG    1      -40.503  85.130  23.107  0.00  0.00    +0.111 A 
ATOM     27  C   LIG    1      -39.879  85.349  21.894  0.00  0.00    +0.020 A 
ATOM     28  C   LIG    1      -39.920  84.331  20.957  0.00  0.00    +0.004 A 
ATOM     29  C   LIG    1      -40.584  83.145  21.266  0.00  0.00    +0.028 A 
ENDBRANCH  22  24
ENDBRANCH  14  16
ENDBRANCH   4  12
BRANCH   1  31
ATOM     30  N   LIG    1      -35.250  77.073  27.158  0.00  0.00    -0.208 NA
ATOM     31  C   LIG    1      -35.972  76.035  26.875  0.00  0.00    +0.241 C 
BRANCH  30  34
ATOM     32  C   LIG    1      -32.214  77.634  26.398  0.00  0.00    +0.070 C 
ATOM     33  C   LIG    1      -32.812  77.245  27.700  0.00  0.00    +0.085 A 
ATOM     34  C   LIG    1      -34.167  76.967  28.043  0.00  0.00    +0.111 A 
ATOM     35  C   LIG    1      -34.166  76.814  29.414  0.00  0.00    +0.059 A 
ATOM     36  C   LIG    1      -35.215  76.614  30.442  0.00  0.00    +0.067 C 
ATOM     37  N   LIG    1      -32.852  76.932  29.788  0.00  0.00    -0.279 N 
ATOM     38  H   LIG    1      -32.464  76.892  30.725  0.00  0.00    +0.189 HD
ATOM     39  N   LIG    1      -32.015  77.175  28.775  0.00  0.00    -0.177 NA
ENDBRANCH  30  34
BRANCH  31  40
ATOM     40  O   LIG    1      -35.709  74.752  27.216  0.00  0.00    -0.491 OA
ATOM     41  H   LIG    1      -34.911  74.439  26.773  0.00  0.00    +0.294 HD
ENDBRANCH  31  40
ENDBRANCH   1  31
TORSDOF 7
ENDMDL
MODEL 2
REMARK VINA RESULT:      -6.8      7.261     10.530
REMARK  Name = pdb/CHEMBL3942546.pdb
REMARK                            x       y       z     vdW  Elec       q    Type
REMARK                         _______ _______ _______ _____ _____    ______ ____
ROOT
ATOM      1  C   LIG    1      -35.458  67.175  22.617  0.00  0.00    +0.149 A 
ATOM      2  N   LIG    1      -35.030  67.485  23.852  0.00  0.00    -0.160 NA
ATOM      3  N   LIG    1      -35.825  68.501  24.278  0.00  0.00    -0.218 N 
ATOM      4  C   LIG    1      -36.725  68.893  23.274  0.00  0.00    +0.129 A 
ATOM      5  C   LIG    1      -36.492  68.049  22.214  0.00  0.00    +0.078 A 
ENDROOT
BRANCH   3   6
ATOM      6  C   LIG    1      -35.631  69.032  25.595  0.00  0.00    +0.067 A 
ATOM      7  C   LIG    1      -34.439  69.728  25.877  0.00  0.00    +0.028 A 
ATOM      8  C   LIG    1      -34.220  70.292  27.142  0.00  0.00    +0.002 A 
ATOM      9  C   LIG    1      -35.165  70.150  28.151  0.00  0.00    +0.000 A 
ATOM     10  C   LIG    1      -36.335  69.428  27.891  0.00  0.00    +0.002 A 
ATOM     11  C   LIG    1      -36.570  68.869  26.623  0.00  0.00    +0.028 A 
ENDBRANCH   3   6
BRANCH   4  12
ATOM     12  N   LIG    1      -37.612  69.976  23.296  0.00  0.00    -0.266 N 
ATOM     13  H   LIG    1      -37.322  70.808  22.798  0.00  0.00    +0.157 HD
ATOM     14  C   LIG    1      -38.936  69.970  23.866  0.00  0.00    +0.251 C 
ATOM     15  O   LIG    1      -39.398  68.975  24.402  0.00  0.00    -0.270 OA
BRANCH  14  16
ATOM     16  C   LIG    1      -39.705  71.249  23.806  0.00  0.00    +0.056 A 
ATOM     17  C   LIG    1      -40.911  71.383  23.119  0.00  0.00    +0.054 A 
ATOM     18 CL   LIG    1      -41.711  70.081  22.314  0.00  0.00    -0.083 Cl
ATOM     19  C   LIG    1      -41.540  72.625  23.052  0.00  0.00    +0.041 A 
ATOM     20  C   LIG    1      -40.984  73.755  23.668  0.00  0.00    +0.052 A 
ATOM     21 CL   LIG    1      -41.845  75.227  23.361  0.00  0.00    -0.083 Cl
ATOM     22  C   LIG    1      -39.790  73.668  24.413  0.00  0.00    +0.019 A 
ATOM     23  C   LIG    1      -39.173  72.384  24.462  0.00  0.00    +0.026 A 
BRANCH  22  24
ATOM     24  C   LIG    1      -39.129  74.814  25.101  0.00  0.00    +0.072 A 
ATOM     25  N   LIG    1      -39.859  75.380  26.098  0.00  0.00    -0.255 NA
ATOM     26  C   LIG    1      -39.315  76.423  26.777  0.00  0.00    +0.111 A 
ATOM     27  C   LIG    1      -38.058  76.938  26.528  0.00  0.00    +0.020 A 
ATOM     28  C   LIG    1      -37.321  76.368  25.504  0.00  0.00    +0.004 A 
ATOM     29  C   LIG    1      -37.871  75.318  24.769  0.00  0.00    +0.028 A 
ENDBRANCH  22  24
ENDBRANCH  14  16
ENDBRANCH   4  12
BRANCH   1  31
ATOM     30  N   LIG    1      -34.796  66.188  20.544  0.00  0.00    -0.208 NA
ATOM     31  C   LIG    1      -34.870  66.082  21.833  0.00  0.00    +0.241 C 
BRANCH  30  34
ATOM     32  C   LIG    1      -31.734  66.362  19.708  0.00  0.00    +0.070 C 
ATOM     33  C   LIG    1      -32.732  65.297  19.441  0.00  0.00    +0.085 A 
ATOM     34  C   LIG    1      -34.112  65.223  19.789  0.00  0.00    +0.111 A 
ATOM     35  C   LIG    1      -34.505  63.950  19.429  0.00  0.00    +0.059 A 
ATOM     36  C   LIG    1      -35.749  63.159  19.586  0.00  0.00    +0.067 C 
ATOM     37  N   LIG    1      -33.403  63.386  18.842  0.00  0.00    -0.279 N 
ATOM     38  H   LIG    1      -33.306  62.447  18.468  0.00  0.00    +0.189 HD
ATOM     39  N   LIG    1      -32.328  64.180  18.822  0.00  0.00    -0.177 NA
ENDBRANCH  30  34
BRANCH  31  40
ATOM     40  O   LIG    1      -34.491  65.019  22.579  0.00  0.00    -0.491 OA
ATOM     41  H   LIG    1      -35.256  64.610  23.002  0.00  0.00    +0.294 HD
ENDBRANCH  31  40
ENDBRANCH   1  31
TORSDOF 7
ENDMDL
MODEL 3
REMARK VINA RESULT:      -6.8      7.577     11.148
REMARK  Name = pdb/CHEMBL3942546.pdb
REMARK                            x       y       z     vdW  Elec       q    Type
REMARK                         _______ _______ _______ _____ _____    ______ ____
ROOT
ATOM      1  C   LIG    1      -36.483  69.332  25.228  0.00  0.00    +0.149 A 
ATOM      2  N   LIG    1      -36.091  68.473  26.184  0.00  0.00    -0.160 NA
ATOM      3  N   LIG    1      -35.297  69.187  27.023  0.00  0.00    -0.218 N 
ATOM      4  C   LIG    1      -35.121  70.500  26.559  0.00  0.00    +0.129 A 
ATOM      5  C   LIG    1      -35.876  70.595  25.414  0.00  0.00    +0.078 A 
ENDROOT
BRANCH   3   6
ATOM      6  C   LIG    1      -34.746  68.541  28.178  0.00  0.00    +0.067 A 
ATOM      7  C   LIG    1      -33.803  67.510  27.995  0.00  0.00    +0.028 A 
ATOM      8  C   LIG    1      -33.214  66.872  29.096  0.00  0.00    +0.002 A 
ATOM      9  C   LIG    1      -33.572  67.227  30.390  0.00  0.00    +0.000 A 
ATOM     10  C   LIG    1      -34.536  68.223  30.582  0.00  0.00    +0.002 A 
ATOM     11  C   LIG    1      -35.123  68.877  29.486  0.00  0.00    +0.028 A 
ENDBRANCH   3   6
BRANCH   4  12
ATOM     12  N   LIG    1      -34.280  71.489  27.084  0.00  0.00    -0.266 N 
ATOM     13  H   LIG    1      -33.389  71.616  26.623  0.00  0.00    +0.157 HD
ATOM     14  C   LIG    1      -34.617  72.406  28.144  0.00  0.00    +0.251 C 
ATOM     15  O   LIG    1      -35.709  72.381  28.690  0.00  0.00    -0.270 OA
BRANCH  14  16
ATOM     16  C   LIG    1      -33.555  73.366  28.573  0.00  0.00    +0.056 A 
ATOM     17  C   LIG    1      -32.477  73.002  29.378  0.00  0.00    +0.054 A 
ATOM     18 CL   LIG    1      -32.183  71.390  29.924  0.00  0.00    -0.083 Cl
ATOM     19  C   LIG    1      -31.560  73.967  29.791  0.00  0.00    +0.041 A 
ATOM     20  C   LIG    1      -31.696  75.309  29.409  0.00  0.00    +0.052 A 
ATOM     21 CL   LIG    1      -30.533  76.373  30.129  0.00  0.00    -0.083 Cl
ATOM     22  C   LIG    1      -32.741  75.724  28.559  0.00  0.00    +0.019 A 
ATOM     23  C   LIG    1      -33.662  74.713  28.155  0.00  0.00    +0.026 A 
BRANCH  22  24
ATOM     24  C   LIG    1      -32.962  77.126  28.102  0.00  0.00    +0.072 A 
ATOM     25  N   LIG    1      -33.889  77.821  28.814  0.00  0.00    -0.255 NA
ATOM     26  C   LIG    1      -34.134  79.109  28.462  0.00  0.00    +0.111 A 
ATOM     27  C   LIG    1      -33.490  79.766  27.431  0.00  0.00    +0.020 A 
ATOM     28  C   LIG    1      -32.556  79.053  26.699  0.00  0.00    +0.004 A 
ATOM     29  C   LIG    1      -32.310  77.719  27.019  0.00  0.00    +0.028 A 
ENDBRANCH  22  24
ENDBRANCH  14  16
ENDBRANCH   4  12
BRANCH   1  31
ATOM     30  N   LIG    1      -37.305  69.519  22.992  0.00  0.00    -0.208 NA
ATOM     31  C   LIG    1      -37.398  68.943  24.148  0.00  0.00    +0.241 C 
BRANCH  30  34
ATOM     32  C   LIG    1      -36.356  67.348  20.873  0.00  0.00    +0.070 C 
ATOM     33  C   LIG    1      -37.646  68.073  20.977  0.00  0.00    +0.085 A 
ATOM     34  C   LIG    1      -38.070  69.066  21.908  0.00  0.00    +0.111 A 
ATOM     35  C   LIG    1      -39.406  69.271  21.630  0.00  0.00    +0.059 A 
ATOM     36  C   LIG    1      -40.490  70.071  22.249  0.00  0.00    +0.067 C 
ATOM     37  N   LIG    1      -39.674  68.477  20.546  0.00  0.00    -0.279 N 
ATOM     38  H   LIG    1      -40.561  68.351  20.068  0.00  0.00    +0.189 HD
ATOM     39  N   LIG    1      -38.630  67.758  20.123  0.00  0.00    -0.177 NA
ENDBRANCH  30  34
BRANCH  31  40
ATOM     40  O   LIG    1      -38.305  68.008  24.514  0.00  0.00    -0.491 OA
ATOM     41  H   LIG    1      -38.198  67.206  23.987  0.00  0.00    +0.294 HD
ENDBRANCH  31  40
ENDBRANCH   1  31
TORSDOF 7
ENDMDL
MODEL 4
REMARK VINA RESULT:      -6.8      3.964      8.597
REMARK  Name = pdb/CHEMBL3942546.pdb
REMARK                            x       y       z     vdW  Elec       q    Type
REMARK                         _______ _______ _______ _____ _____    ______ ____
ROOT
ATOM      1  C   LIG    1      -37.084  79.824  27.659  0.00  0.00    +0.149 A 
ATOM      2  N   LIG    1      -36.132  78.959  28.045  0.00  0.00    -0.160 NA
ATOM      3  N   LIG    1      -36.469  77.764  27.494  0.00  0.00    -0.218 N 
ATOM      4  C   LIG    1      -37.689  77.850  26.807  0.00  0.00    +0.129 A 
ATOM      5  C   LIG    1      -38.084  79.163  26.911  0.00  0.00    +0.078 A 
ENDROOT
BRANCH   3   6
ATOM      6  C   LIG    1      -35.612  76.634  27.703  0.00  0.00    +0.067 A 
ATOM      7  C   LIG    1      -34.241  76.755  27.396  0.00  0.00    +0.028 A 
ATOM      8  C   LIG    1      -33.360  75.687  27.613  0.00  0.00    +0.002 A 
ATOM      9  C   LIG    1      -33.828  74.477  28.110  0.00  0.00    +0.000 A 
ATOM     10  C   LIG    1      -35.193  74.334  28.382  0.00  0.00    +0.002 A 
ATOM     11  C   LIG    1      -36.084  75.402  28.179  0.00  0.00    +0.028 A 
ENDBRANCH   3   6
BRANCH   4  12
ATOM     12  N   LIG    1      -38.416  76.808  26.217  0.00  0.00    -0.266 N 
ATOM     13  H   LIG    1      -39.264  76.524  26.690  0.00  0.00    +0.157 HD
ATOM     14  C   LIG    1      -38.121  76.187  24.950  0.00  0.00    +0.251 C 
ATOM     15  O   LIG    1      -37.169  76.537  24.271  0.00  0.00    -0.270 OA
BRANCH  14  16
ATOM     16  C   LIG    1      -39.012  75.067  24.521  0.00  0.00    +0.056 A 
ATOM     17  C   LIG    1      -40.278  75.267  23.971  0.00  0.00    +0.054 A 
ATOM     18 CL   LIG    1      -40.952  76.824  23.644  0.00  0.00    -0.083 Cl
ATOM     19  C   LIG    1      -41.080  74.172  23.654  0.00  0.00    +0.041 A 
ATOM     20  C   LIG    1      -40.638  72.860  23.875  0.00  0.00    +0.052 A 
ATOM     21 CL   LIG    1      -41.827  71.645  23.539  0.00  0.00    -0.083 Cl
ATOM     22  C   LIG    1      -39.351  72.599  24.387  0.00  0.00    +0.019 A 
ATOM     23  C   LIG    1      -38.556  73.740  24.700  0.00  0.00    +0.026 A 
BRANCH  22  24
ATOM     24  C   LIG    1      -38.798  71.239  24.652  0.00  0.00    +0.072 A 
ATOM     25  N   LIG    1      -39.250  70.651  25.791  0.00  0.00    -0.255 NA
ATOM     26  C   LIG    1      -38.799  69.406  26.091  0.00  0.00    +0.111 A 
ATOM     27  C   LIG    1      -37.917  68.691  25.304  0.00  0.00    +0.020 A 
ATOM     28  C   LIG    1      -37.448  69.297  24.151  0.00  0.00    +0.004 A 
ATOM     29  C   LIG    1      -37.870  70.588  23.838  0.00  0.00    +0.028 A 
ENDBRANCH  22  24
ENDBRANCH  14  16
ENDBRANCH   4  12
BRANCH   1  31
ATOM     30  N   LIG    1      -35.965  81.929  27.823  0.00  0.00    -0.208 NA
ATOM     31  C   LIG    1      -37.047  81.246  28.020  0.00  0.00    +0.241 C 
BRANCH  30  34
ATOM     32  C   LIG    1      -34.655  83.391  30.323  0.00  0.00    +0.070 C 
ATOM     33  C   LIG    1      -35.340  83.965  29.139  0.00  0.00    +0.085 A 
ATOM     34  C   LIG    1      -35.952  83.317  28.027  0.00  0.00    +0.111 A 
ATOM     35  C   LIG    1      -36.287  84.335  27.158  0.00  0.00    +0.059 A 
ATOM     36  C   LIG    1      -36.851  84.394  25.788  0.00  0.00    +0.067 C 
ATOM     37  N   LIG    1      -35.938  85.491  27.806  0.00  0.00    -0.279 N 
ATOM     38  H   LIG    1      -36.020  86.445  27.469  0.00  0.00    +0.189 HD
ATOM     39  N   LIG    1      -35.381  85.298  29.005  0.00  0.00    -0.177 NA
ENDBRANCH  30  34
BRANCH  31  40
ATOM     40  O   LIG    1      -38.193  81.694  28.583  0.00  0.00    -0.491 OA
ATOM     41  H   LIG    1      -38.148  82.646  28.735  0.00  0.00    +0.294 HD
ENDBRANCH  31  40
ENDBRANCH   1  31
TORSDOF 7
ENDMDL
MODEL 5
REMARK VINA RESULT:      -6.8     17.205     19.807
REMARK  Name = pdb/CHEMBL3942546.pdb
REMARK                            x       y       z     vdW  Elec       q    Type
REMARK                         _______ _______ _______ _____ _____    ______ ____
ROOT
ATOM      1  C   LIG    1      -26.150  77.660  14.019  0.00  0.00    +0.149 A 
ATOM      2  N   LIG    1      -24.958  77.675  14.638  0.00  0.00    -0.160 NA
ATOM      3  N   LIG    1      -24.514  78.956  14.562  0.00  0.00    -0.218 N 
ATOM      4  C   LIG    1      -25.400  79.755  13.822  0.00  0.00    +0.129 A 
ATOM      5  C   LIG    1      -26.444  78.931  13.474  0.00  0.00    +0.078 A 
ENDROOT
BRANCH   3   6
ATOM      6  C   LIG    1      -23.264  79.298  15.174  0.00  0.00    +0.067 A 
ATOM      7  C   LIG    1      -22.119  78.546  14.843  0.00  0.00    +0.028 A 
ATOM      8  C   LIG    1      -20.868  78.864  15.393  0.00  0.00    +0.002 A 
ATOM      9  C   LIG    1      -20.742  79.911  16.298  0.00  0.00    +0.000 A 
ATOM     10  C   LIG    1      -21.880  80.638  16.662  0.00  0.00    +0.002 A 
ATOM     11  C   LIG    1      -23.136  80.336  16.108  0.00  0.00    +0.028 A 
ENDBRANCH   3   6
BRANCH   4  12
ATOM     12  N   LIG    1      -25.227  81.088  13.429  0.00  0.00    -0.266 N 
ATOM     13  H   LIG    1      -25.712  81.787  13.976  0.00  0.00    +0.157 HD
ATOM     14  C   LIG    1      -24.340  81.552  12.391  0.00  0.00    +0.251 C 
ATOM     15  O   LIG    1      -23.648  80.779  11.748  0.00  0.00    -0.270 OA
BRANCH  14  16
ATOM     16  C   LIG    1      -24.332  83.020  12.113  0.00  0.00    +0.056 A 
ATOM     17  C   LIG    1      -25.226  83.635  11.238  0.00  0.00    +0.054 A 
ATOM     18 CL   LIG    1      -26.501  82.805  10.421  0.00  0.00    -0.083 Cl
ATOM     19  C   LIG    1      -25.117  85.000  10.979  0.00  0.00    +0.041 A 
ATOM     20  C   LIG    1      -24.121  85.778  11.585  0.00  0.00    +0.052 A 
ATOM     21 CL   LIG    1      -24.069  87.420  11.036  0.00  0.00    -0.083 Cl
ATOM     22  C   LIG    1      -23.219  85.216  12.512  0.00  0.00    +0.019 A 
ATOM     23  C   LIG    1      -23.357  83.819  12.756  0.00  0.00    +0.026 A 
BRANCH  22  24
ATOM     24  C   LIG    1      -22.132  85.966  13.205  0.00  0.00    +0.072 A 
ATOM     25  N   LIG    1      -22.484  86.509  14.400  0.00  0.00    -0.255 NA
ATOM     26  C   LIG    1      -21.540  87.197  15.093  0.00  0.00    +0.111 A 
ATOM     27  C   LIG    1      -20.237  87.369  14.667  0.00  0.00    +0.020 A 
ATOM     28  C   LIG    1      -19.884  86.826  13.444  0.00  0.00    +0.004 A 
ATOM     29  C   LIG    1      -20.844  86.144  12.697  0.00  0.00    +0.028 A 
ENDBRANCH  22  24
ENDBRANCH  14  16
ENDBRANCH   4  12
BRANCH   1  31
ATOM     30  N   LIG    1      -26.657  75.519  13.088  0.00  0.00    -0.208 NA
ATOM     31  C   LIG    1      -26.975  76.450  13.930  0.00  0.00    +0.241 C 
BRANCH  30  34
ATOM     32  C   LIG    1      -25.957  73.030  14.938  0.00  0.00    +0.070 C 
ATOM     33  C   LIG    1      -27.039  73.194  13.937  0.00  0.00    +0.085 A 
ATOM     34  C   LIG    1      -27.344  74.296  13.085  0.00  0.00    +0.111 A 
ATOM     35  C   LIG    1      -28.540  73.963  12.481  0.00  0.00    +0.059 A 
ATOM     36  C   LIG    1      -29.480  74.661  11.572  0.00  0.00    +0.067 C 
ATOM     37  N   LIG    1      -28.831  72.701  12.931  0.00  0.00    -0.279 N 
ATOM     38  H   LIG    1      -29.644  72.133  12.715  0.00  0.00    +0.189 HD
ATOM     39  N   LIG    1      -27.937  72.210  13.795  0.00  0.00    -0.177 NA
ENDBRANCH  30  34
BRANCH  31  40
ATOM     40  O   LIG    1      -28.051  76.463  14.750  0.00  0.00    -0.491 OA
ATOM     41  H   LIG    1      -28.390  75.568  14.880  0.00  0.00    +0.294 HD
ENDBRANCH  31  40
ENDBRANCH   1  31
TORSDOF 7
ENDMDL
MODEL 6
REMARK VINA RESULT:      -6.7      2.610      7.534
REMARK  Name = pdb/CHEMBL3942546.pdb
REMARK                            x       y       z     vdW  Elec       q    Type
REMARK                         _______ _______ _______ _____ _____    ______ ____
ROOT
ATOM      1  C   LIG    1      -37.263  76.795  26.486  0.00  0.00    +0.149 A 
ATOM      2  N   LIG    1      -37.921  77.917  26.151  0.00  0.00    -0.160 NA
ATOM      3  N   LIG    1      -38.962  77.520  25.374  0.00  0.00    -0.218 N 
ATOM      4  C   LIG    1      -38.928  76.135  25.150  0.00  0.00    +0.129 A 
ATOM      5  C   LIG    1      -37.845  75.670  25.858  0.00  0.00    +0.078 A 
ENDROOT
BRANCH   3   6
ATOM      6  C   LIG    1      -39.880  78.506  24.883  0.00  0.00    +0.067 A 
ATOM      7  C   LIG    1      -39.408  79.487  23.988  0.00  0.00    +0.028 A 
ATOM      8  C   LIG    1      -40.277  80.451  23.457  0.00  0.00    +0.002 A 
ATOM      9  C   LIG    1      -41.615  80.474  23.828  0.00  0.00    +0.000 A 
ATOM     10  C   LIG    1      -42.085  79.529  24.746  0.00  0.00    +0.002 A 
ATOM     11  C   LIG    1      -41.226  78.550  25.275  0.00  0.00    +0.028 A 
ENDBRANCH   3   6
BRANCH   4  12
ATOM     12  N   LIG    1      -39.756  75.382  24.308  0.00  0.00    -0.266 N 
ATOM     13  H   LIG    1      -39.377  75.140  23.401  0.00  0.00    +0.157 HD
ATOM     14  C   LIG    1      -41.042  74.836  24.660  0.00  0.00    +0.251 C 
ATOM     15  O   LIG    1      -41.528  75.002  25.767  0.00  0.00    -0.270 OA
BRANCH  14  16
ATOM     16  C   LIG    1      -41.774  74.086  23.594  0.00  0.00    +0.056 A 
ATOM     17  C   LIG    1      -42.784  74.653  22.818  0.00  0.00    +0.054 A 
ATOM     18 CL   LIG    1      -43.272  76.306  22.930  0.00  0.00    -0.083 Cl
ATOM     19  C   LIG    1      -43.466  73.873  21.887  0.00  0.00    +0.041 A 
ATOM     20  C   LIG    1      -43.156  72.517  21.707  0.00  0.00    +0.052 A 
ATOM     21 CL   LIG    1      -44.201  71.691  20.599  0.00  0.00    -0.083 Cl
ATOM     22  C   LIG    1      -42.114  71.905  22.432  0.00  0.00    +0.019 A 
ATOM     23  C   LIG    1      -41.436  72.729  23.377  0.00  0.00    +0.026 A 
BRANCH  22  24
ATOM     24  C   LIG    1      -41.715  70.473  22.306  0.00  0.00    +0.072 A 
ATOM     25  N   LIG    1      -42.098  69.679  23.341  0.00  0.00    -0.255 NA
ATOM     26  C   LIG    1      -41.779  68.360  23.289  0.00  0.00    +0.111 A 
ATOM     27  C   LIG    1      -41.100  67.769  22.241  0.00  0.00    +0.020 A 
ATOM     28  C   LIG    1      -40.699  68.581  21.194  0.00  0.00    +0.004 A 
ATOM     29  C   LIG    1      -40.985  69.945  21.240  0.00  0.00    +0.028 A 
ENDBRANCH  22  24
ENDBRANCH  14  16
ENDBRANCH   4  12
BRANCH   1  31
ATOM     30  N   LIG    1      -34.902  76.771  26.852  0.00  0.00    -0.208 NA
ATOM     31  C   LIG    1      -36.090  76.804  27.367  0.00  0.00    +0.241 C 
BRANCH  30  34
ATOM     32  C   LIG    1      -33.503  74.430  28.484  0.00  0.00    +0.070 C 
ATOM     33  C   LIG    1      -33.134  75.862  28.373  0.00  0.00    +0.085 A 
ATOM     34  C   LIG    1      -33.769  76.923  27.665  0.00  0.00    +0.111 A 
ATOM     35  C   LIG    1      -32.911  77.998  27.783  0.00  0.00    +0.059 A 
ATOM     36  C   LIG    1      -32.877  79.371  27.226  0.00  0.00    +0.067 C 
ATOM     37  N   LIG    1      -31.891  77.557  28.585  0.00  0.00    -0.279 N 
ATOM     38  H   LIG    1      -31.064  78.067  28.879  0.00  0.00    +0.189 HD
ATOM     39  N   LIG    1      -32.008  76.282  28.966  0.00  0.00    -0.177 NA
ENDBRANCH  30  34
BRANCH  31  40
ATOM     40  O   LIG    1      -36.398  76.807  28.685  0.00  0.00    -0.491 OA
ATOM     41  H   LIG    1      -35.757  76.287  29.185  0.00  0.00    +0.294 HD
ENDBRANCH  31  40
ENDBRANCH   1  31
TORSDOF 7
ENDMDL
MODEL 7
REMARK VINA RESULT:      -6.7     11.961     18.628
REMARK  Name = pdb/CHEMBL3942546.pdb
REMARK                            x       y       z     vdW  Elec       q    Type
REMARK                         _______ _______ _______ _____ _____    ______ ____
ROOT
ATOM      1  C   LIG    1      -27.257  76.169  31.801  0.00  0.00    +0.149 A 
ATOM      2  N   LIG    1      -26.817  74.902  31.724  0.00  0.00    -0.160 NA
ATOM      3  N   LIG    1      -25.485  74.954  31.982  0.00  0.00    -0.218 N 
ATOM      4  C   LIG    1      -25.055  76.279  32.156  0.00  0.00    +0.129 A 
ATOM      5  C   LIG    1      -26.183  77.056  32.040  0.00  0.00    +0.078 A 
ENDROOT
BRANCH   3   6
ATOM      6  C   LIG    1      -24.732  73.735  32.006  0.00  0.00    +0.067 A 
ATOM      7  C   LIG    1      -24.250  73.258  33.241  0.00  0.00    +0.028 A 
ATOM      8  C   LIG    1      -23.535  72.054  33.317  0.00  0.00    +0.002 A 
ATOM      9  C   LIG    1      -23.265  71.322  32.167  0.00  0.00    +0.000 A 
ATOM     10  C   LIG    1      -23.706  71.806  30.931  0.00  0.00    +0.002 A 
ATOM     11  C   LIG    1      -24.433  73.006  30.846  0.00  0.00    +0.028 A 
ENDBRANCH   3   6
BRANCH   4  12
ATOM     12  N   LIG    1      -23.742  76.739  32.315  0.00  0.00    -0.266 N 
ATOM     13  H   LIG    1      -23.327  76.612  33.230  0.00  0.00    +0.157 HD
ATOM     14  C   LIG    1      -22.903  77.273  31.272  0.00  0.00    +0.251 C 
ATOM     15  O   LIG    1      -23.296  77.371  30.121  0.00  0.00    -0.270 OA
BRANCH  14  16
ATOM     16  C   LIG    1      -21.539  77.735  31.670  0.00  0.00    +0.056 A 
ATOM     17  C   LIG    1      -20.407  77.544  30.879  0.00  0.00    +0.054 A 
ATOM     18 CL   LIG    1      -20.438  76.819  29.311  0.00  0.00    -0.083 Cl
ATOM     19  C   LIG    1      -19.156  77.945  31.345  0.00  0.00    +0.041 A 
ATOM     20  C   LIG    1      -19.008  78.546  32.603  0.00  0.00    +0.052 A 
ATOM     21 CL   LIG    1      -17.363  78.852  33.054  0.00  0.00    -0.083 Cl
ATOM     22  C   LIG    1      -20.124  78.804  33.425  0.00  0.00    +0.019 A 
ATOM     23  C   LIG    1      -21.388  78.382  32.919  0.00  0.00    +0.026 A 
BRANCH  22  24
ATOM     24  C   LIG    1      -20.061  79.438  34.773  0.00  0.00    +0.072 A 
ATOM     25  N   LIG    1      -19.252  78.805  35.665  0.00  0.00    -0.255 NA
ATOM     26  C   LIG    1      -19.137  79.333  36.911  0.00  0.00    +0.111 A 
ATOM     27  C   LIG    1      -19.779  80.483  37.328  0.00  0.00    +0.020 A 
ATOM     28  C   LIG    1      -20.612  81.118  36.423  0.00  0.00    +0.004 A 
ATOM     29  C   LIG    1      -20.774  80.578  35.148  0.00  0.00    +0.028 A 
ENDBRANCH  22  24
ENDBRANCH  14  16
ENDBRANCH   4  12
BRANCH   1  31
ATOM     30  N   LIG    1      -29.576  75.600  31.706  0.00  0.00    -0.208 NA
ATOM     31  C   LIG    1      -28.671  76.522  31.625  0.00  0.00    +0.241 C 
BRANCH  30  34
ATOM     32  C   LIG    1      -31.283  76.465  34.244  0.00  0.00    +0.070 C 
ATOM     33  C   LIG    1      -31.689  76.347  32.823  0.00  0.00    +0.085 A 
ATOM     34  C   LIG    1      -30.938  75.935  31.683  0.00  0.00    +0.111 A 
ATOM     35  C   LIG    1      -31.767  76.166  30.604  0.00  0.00    +0.059 A 
ATOM     36  C   LIG    1      -31.616  76.070  29.133  0.00  0.00    +0.067 C 
ATOM     37  N   LIG    1      -32.945  76.614  31.145  0.00  0.00    -0.279 N 
ATOM     38  H   LIG    1      -33.786  76.902  30.656  0.00  0.00    +0.189 HD
ATOM     39  N   LIG    1      -32.930  76.717  32.477  0.00  0.00    -0.177 NA
ENDBRANCH  30  34
BRANCH  31  40
ATOM     40  O   LIG    1      -28.874  77.830  31.345  0.00  0.00    -0.491 OA
ATOM     41  H   LIG    1      -29.733  77.959  30.925  0.00  0.00    +0.294 HD
ENDBRANCH  31  40
ENDBRANCH   1  31
TORSDOF 7
ENDMDL
MODEL 8
REMARK VINA RESULT:      -6.7      3.165      6.198
REMARK  Name = pdb/CHEMBL3942546.pdb
REMARK                            x       y       z     vdW  Elec       q    Type
REMARK                         _______ _______ _______ _____ _____    ______ ____
ROOT
ATOM      1  C   LIG    1      -37.222  76.799  26.467  0.00  0.00    +0.149 A 
ATOM      2  N   LIG    1      -37.875  77.911  26.095  0.00  0.00    -0.160 NA
ATOM      3  N   LIG    1      -38.913  77.494  25.325  0.00  0.00    -0.218 N 
ATOM      4  C   LIG    1      -38.881  76.102  25.144  0.00  0.00    +0.129 A 
ATOM      5  C   LIG    1      -37.803  75.656  25.872  0.00  0.00    +0.078 A 
ENDROOT
BRANCH   3   6
ATOM      6  C   LIG    1      -39.826  78.466  24.800  0.00  0.00    +0.067 A 
ATOM      7  C   LIG    1      -41.189  78.376  25.149  0.00  0.00    +0.028 A 
ATOM      8  C   LIG    1      -42.113  79.323  24.684  0.00  0.00    +0.002 A 
ATOM      9  C   LIG    1      -41.704  80.354  23.846  0.00  0.00    +0.000 A 
ATOM     10  C   LIG    1      -40.361  80.429  23.463  0.00  0.00    +0.002 A 
ATOM     11  C   LIG    1      -39.424  79.492  23.933  0.00  0.00    +0.028 A 
ENDBRANCH   3   6
BRANCH   4  12
ATOM     12  N   LIG    1      -39.707  75.326  24.322  0.00  0.00    -0.266 N 
ATOM     13  H   LIG    1      -39.373  75.151  23.383  0.00  0.00    +0.157 HD
ATOM     14  C   LIG    1      -40.926  74.672  24.727  0.00  0.00    +0.251 C 
ATOM     15  O   LIG    1      -41.348  74.755  25.869  0.00  0.00    -0.270 OA
BRANCH  14  16
ATOM     16  C   LIG    1      -41.670  73.915  23.675  0.00  0.00    +0.056 A 
ATOM     17  C   LIG    1      -41.331  72.621  23.281  0.00  0.00    +0.054 A 
ATOM     18 CL   LIG    1      -40.062  71.696  24.001  0.00  0.00    -0.083 Cl
ATOM     19  C   LIG    1      -42.031  72.003  22.248  0.00  0.00    +0.041 A 
ATOM     20  C   LIG    1      -43.082  72.656  21.589  0.00  0.00    +0.052 A 
ATOM     21 CL   LIG    1      -43.739  71.773  20.250  0.00  0.00    -0.083 Cl
ATOM     22  C   LIG    1      -43.497  73.947  21.976  0.00  0.00    +0.019 A 
ATOM     23  C   LIG    1      -42.760  74.552  23.036  0.00  0.00    +0.026 A 
BRANCH  22  24
ATOM     24  C   LIG    1      -44.602  74.715  21.335  0.00  0.00    +0.072 A 
ATOM     25  N   LIG    1      -45.752  74.773  22.058  0.00  0.00    -0.255 NA
ATOM     26  C   LIG    1      -46.799  75.466  21.540  0.00  0.00    +0.111 A 
ATOM     27  C   LIG    1      -46.766  76.130  20.329  0.00  0.00    +0.020 A 
ATOM     28  C   LIG    1      -45.599  76.059  19.589  0.00  0.00    +0.004 A 
ATOM     29  C   LIG    1      -44.520  75.325  20.082  0.00  0.00    +0.028 A 
ENDBRANCH  22  24
ENDBRANCH  14  16
ENDBRANCH   4  12
BRANCH   1  31
ATOM     30  N   LIG    1      -34.862  76.786  26.845  0.00  0.00    -0.208 NA
ATOM     31  C   LIG    1      -36.052  76.833  27.354  0.00  0.00    +0.241 C 
BRANCH  30  34
ATOM     32  C   LIG    1      -33.381  74.461  28.429  0.00  0.00    +0.070 C 
ATOM     33  C   LIG    1      -33.060  75.907  28.345  0.00  0.00    +0.085 A 
ATOM     34  C   LIG    1      -33.733  76.960  27.659  0.00  0.00    +0.111 A 
ATOM     35  C   LIG    1      -32.912  78.060  27.797  0.00  0.00    +0.059 A 
ATOM     36  C   LIG    1      -32.925  79.445  27.267  0.00  0.00    +0.067 C 
ATOM     37  N   LIG    1      -31.875  77.639  28.588  0.00  0.00    -0.279 N 
ATOM     38  H   LIG    1      -31.065  78.170  28.891  0.00  0.00    +0.189 HD
ATOM     39  N   LIG    1      -31.948  76.353  28.944  0.00  0.00    -0.177 NA
ENDBRANCH  30  34
BRANCH  31  40
ATOM     40  O   LIG    1      -36.367  76.871  28.669  0.00  0.00    -0.491 OA
ATOM     41  H   LIG    1      -35.587  76.696  29.210  0.00  0.00    +0.294 HD
ENDBRANCH  31  40
ENDBRANCH   1  31
TORSDOF 7
ENDMDL
MODEL 9
REMARK VINA RESULT:      -6.5      4.365      8.104
REMARK  Name = pdb/CHEMBL3942546.pdb
REMARK                            x       y       z     vdW  Elec       q    Type
REMARK                         _______ _______ _______ _____ _____    ______ ____
ROOT
ATOM      1  C   LIG    1      -31.500  74.264  29.835  0.00  0.00    +0.149 A 
ATOM      2  N   LIG    1      -31.458  75.555  29.466  0.00  0.00    -0.160 NA
ATOM      3  N   LIG    1      -32.584  75.770  28.737  0.00  0.00    -0.218 N 
ATOM      4  C   LIG    1      -33.318  74.585  28.576  0.00  0.00    +0.129 A 
ATOM      5  C   LIG    1      -32.628  73.622  29.275  0.00  0.00    +0.078 A 
ENDROOT
BRANCH   3   6
ATOM      6  C   LIG    1      -32.842  77.085  28.226  0.00  0.00    +0.067 A 
ATOM      7  C   LIG    1      -33.747  77.916  28.916  0.00  0.00    +0.028 A 
ATOM      8  C   LIG    1      -34.006  79.220  28.471  0.00  0.00    +0.002 A 
ATOM      9  C   LIG    1      -33.394  79.707  27.322  0.00  0.00    +0.000 A 
ATOM     10  C   LIG    1      -32.524  78.876  26.609  0.00  0.00    +0.002 A 
ATOM     11  C   LIG    1      -32.248  77.572  27.053  0.00  0.00    +0.028 A 
ENDBRANCH   3   6
BRANCH   4  12
ATOM     12  N   LIG    1      -34.460  74.384  27.792  0.00  0.00    -0.266 N 
ATOM     13  H   LIG    1      -34.323  73.918  26.905  0.00  0.00    +0.157 HD
ATOM     14  C   LIG    1      -35.815  74.682  28.185  0.00  0.00    +0.251 C 
ATOM     15  O   LIG    1      -36.075  75.157  29.279  0.00  0.00    -0.270 OA
BRANCH  14  16
ATOM     16  C   LIG    1      -36.886  74.416  27.178  0.00  0.00    +0.056 A 
ATOM     17  C   LIG    1      -37.225  73.135  26.744  0.00  0.00    +0.054 A 
ATOM     18 CL   LIG    1      -36.510  71.688  27.360  0.00  0.00    -0.083 Cl
ATOM     19  C   LIG    1      -38.191  72.969  25.753  0.00  0.00    +0.041 A 
ATOM     20  C   LIG    1      -38.839  74.071  25.178  0.00  0.00    +0.052 A 
ATOM     21 CL   LIG    1      -39.909  73.666  23.877  0.00  0.00    -0.083 Cl
ATOM     22  C   LIG    1      -38.568  75.385  25.611  0.00  0.00    +0.019 A 
ATOM     23  C   LIG    1      -37.576  75.521  26.625  0.00  0.00    +0.026 A 
BRANCH  22  24
ATOM     24  C   LIG    1      -39.209  76.613  25.059  0.00  0.00    +0.072 A 
ATOM     25  N   LIG    1      -40.347  77.000  25.695  0.00  0.00    -0.255 NA
ATOM     26  C   LIG    1      -40.979  78.117  25.254  0.00  0.00    +0.111 A 
ATOM     27  C   LIG    1      -40.532  78.897  24.205  0.00  0.00    +0.020 A 
ATOM     28  C   LIG    1      -39.381  78.495  23.550  0.00  0.00    +0.004 A 
ATOM     29  C   LIG    1      -38.731  77.332  23.963  0.00  0.00    +0.028 A 
ENDBRANCH  22  24
ENDBRANCH  14  16
ENDBRANCH   4  12
BRANCH   1  31
ATOM     30  N   LIG    1      -30.041  74.290  31.727  0.00  0.00    -0.208 NA
ATOM     31  C   LIG    1      -30.468  73.655  30.682  0.00  0.00    +0.241 C 
BRANCH  30  34
ATOM     32  C   LIG    1      -26.970  75.031  32.082  0.00  0.00    +0.070 C 
ATOM     33  C   LIG    1      -27.793  74.026  32.798  0.00  0.00    +0.085 A 
ATOM     34  C   LIG    1      -29.163  73.670  32.628  0.00  0.00    +0.111 A 
ATOM     35  C   LIG    1      -29.437  72.796  33.660  0.00  0.00    +0.059 A 
ATOM     36  C   LIG    1      -30.659  72.118  34.156  0.00  0.00    +0.067 C 
ATOM     37  N   LIG    1      -28.246  72.629  34.317  0.00  0.00    -0.279 N 
ATOM     38  H   LIG    1      -28.061  72.069  35.143  0.00  0.00    +0.189 HD
ATOM     39  N   LIG    1      -27.238  73.345  33.810  0.00  0.00    -0.177 NA
ENDBRANCH  30  34
BRANCH  31  40
ATOM     40  O   LIG    1      -30.032  72.456  30.232  0.00  0.00    -0.491 OA
ATOM     41  H   LIG    1      -30.749  71.809  30.238  0.00  0.00    +0.294 HD
ENDBRANCH  31  40
ENDBRANCH   1  31
TORSDOF 7
ENDMDL
