MODEL 1
REMARK VINA RESULT:      -6.0      0.000      0.000
REMARK  Name = pdb/CHEMBL3673480.pdb
REMARK                            x       y       z     vdW  Elec       q    Type
REMARK                         _______ _______ _______ _____ _____    ______ ____
ROOT
ATOM      1  N   LIG    1      -33.764  72.506  29.319  0.00  0.00    -0.293 N 
ATOM      2  C   LIG    1      -33.958  73.770  28.817  0.00  0.00    +0.162 A 
ATOM      3  N   LIG    1      -35.071  74.254  28.232  0.00  0.00    -0.235 NA
ATOM      4  C   LIG    1      -34.949  75.569  27.918  0.00  0.00    +0.121 A 
ATOM      5  C   LIG    1      -33.822  76.376  28.118  0.00  0.00    +0.005 A 
ATOM      6  C   LIG    1      -32.691  75.788  28.706  0.00  0.00    +0.041 A 
ATOM      7  C   LIG    1      -32.773  74.443  29.078  0.00  0.00    +0.110 A 
ATOM      8  N   LIG    1      -31.870  73.612  29.698  0.00  0.00    -0.213 NA
ATOM      9  C   LIG    1      -32.496  72.478  29.859  0.00  0.00    +0.195 A 
ENDROOT
BRANCH   5  10
ATOM     10  C   LIG    1      -33.822  77.783  27.763  0.00  0.00    +0.021 A 
ATOM     11  C   LIG    1      -34.753  78.713  28.183  0.00  0.00    +0.116 A 
ATOM     12  N   LIG    1      -34.383  79.906  27.625  0.00  0.00    -0.274 N 
ATOM     13  C   LIG    1      -35.057  81.170  27.790  0.00  0.00    +0.172 C 
ATOM     14  N   LIG    1      -33.274  79.822  26.872  0.00  0.00    -0.179 NA
ATOM     15  C   LIG    1      -32.936  78.532  26.953  0.00  0.00    +0.143 A 
ENDBRANCH   5  10
BRANCH   9  16
ATOM     16  N   LIG    1      -32.000  71.393  30.493  0.00  0.00    -0.329 N 
ATOM     17  H   LIG    1      -31.707  71.598  31.447  0.00  0.00    +0.145 HD
ATOM     18  H   LIG    1      -32.530  70.535  30.454  0.00  0.00    +0.145 HD
ENDBRANCH   9  16
BRANCH   1  19
ATOM     19  C   LIG    1      -34.720  71.428  29.219  0.00  0.00    +0.161 C 
BRANCH  19  24
ATOM     20  C   LIG    1      -35.629  70.368  25.671  0.00  0.00    +0.162 A 
ATOM     21  C   LIG    1      -34.656  69.395  25.391  0.00  0.00    +0.162 A 
ATOM     22  C   LIG    1      -33.692  69.101  26.363  0.00  0.00    +0.050 A 
ATOM     23  C   LIG    1      -33.696  69.765  27.595  0.00  0.00    +0.009 A 
ATOM     24  C   LIG    1      -34.665  70.735  27.881  0.00  0.00    -0.024 A 
ATOM     25  C   LIG    1      -35.633  71.017  26.910  0.00  0.00    +0.054 A 
BRANCH  20  27
ATOM     26  C   LIG    1      -37.323  71.822  24.904  0.00  0.00    +0.277 C 
ATOM     27  O   LIG    1      -36.619  70.596  24.754  0.00  0.00    -0.491 OA
ENDBRANCH  20  27
BRANCH  21  28
ATOM     28  O   LIG    1      -34.561  68.664  24.231  0.00  0.00    -0.482 OA
BRANCH  28  29
ATOM     29  C   LIG    1      -35.277  67.418  24.222  0.00  0.00    +0.285 C 
BRANCH  29  30
ATOM     30  C   LIG    1      -35.086  66.676  22.943  0.00  0.00    +0.086 A 
ATOM     31  N   LIG    1      -34.034  67.048  22.128  0.00  0.00    -0.246 NA
ATOM     32  C   LIG    1      -33.978  66.263  21.080  0.00  0.00    +0.076 A 
ATOM     33  C   LIG    1      -32.890  66.331  20.074  0.00  0.00    +0.073 C 
ATOM     34  S   LIG    1      -35.251  65.120  20.942  0.00  0.00    -0.080 S 
ATOM     35  C   LIG    1      -35.883  65.666  22.438  0.00  0.00    +0.073 A 
ENDBRANCH  29  30
ENDBRANCH  28  29
ENDBRANCH  21  28
ENDBRANCH  19  24
ENDBRANCH   1  19
TORSDOF 8
ENDMDL
MODEL 2
REMARK VINA RESULT:      -5.9     12.778     17.208
REMARK  Name = pdb/CHEMBL3673480.pdb
REMARK                            x       y       z     vdW  Elec       q    Type
REMARK                         _______ _______ _______ _____ _____    ______ ____
ROOT
ATOM      1  N   LIG    1      -30.945  87.060  32.181  0.00  0.00    -0.293 N 
ATOM      2  C   LIG    1      -31.882  86.135  31.790  0.00  0.00    +0.162 A 
ATOM      3  N   LIG    1      -32.859  85.594  32.543  0.00  0.00    -0.235 NA
ATOM      4  C   LIG    1      -33.657  84.766  31.820  0.00  0.00    +0.121 A 
ATOM      5  C   LIG    1      -33.519  84.442  30.465  0.00  0.00    +0.005 A 
ATOM      6  C   LIG    1      -32.455  85.024  29.757  0.00  0.00    +0.041 A 
ATOM      7  C   LIG    1      -31.620  85.910  30.446  0.00  0.00    +0.110 A 
ATOM      8  N   LIG    1      -30.542  86.655  30.031  0.00  0.00    -0.213 NA
ATOM      9  C   LIG    1      -30.181  87.354  31.073  0.00  0.00    +0.195 A 
ENDROOT
BRANCH   5  10
ATOM     10  C   LIG    1      -34.456  83.561  29.795  0.00  0.00    +0.021 A 
ATOM     11  C   LIG    1      -35.336  83.937  28.800  0.00  0.00    +0.116 A 
ATOM     12  N   LIG    1      -36.025  82.809  28.449  0.00  0.00    -0.274 N 
ATOM     13  C   LIG    1      -37.051  82.716  27.439  0.00  0.00    +0.172 C 
ATOM     14  N   LIG    1      -35.656  81.720  29.142  0.00  0.00    -0.179 NA
ATOM     15  C   LIG    1      -34.705  82.177  29.962  0.00  0.00    +0.143 A 
ENDBRANCH   5  10
BRANCH   9  16
ATOM     16  N   LIG    1      -29.197  88.279  31.092  0.00  0.00    -0.329 N 
ATOM     17  H   LIG    1      -29.550  89.222  31.246  0.00  0.00    +0.145 HD
ATOM     18  H   LIG    1      -28.385  88.099  31.664  0.00  0.00    +0.145 HD
ENDBRANCH   9  16
BRANCH   1  19
ATOM     19  C   LIG    1      -30.795  87.555  33.530  0.00  0.00    +0.161 C 
BRANCH  19  24
ATOM     20  C   LIG    1      -27.403  87.077  35.204  0.00  0.00    +0.162 A 
ATOM     21  C   LIG    1      -27.419  85.712  35.529  0.00  0.00    +0.162 A 
ATOM     22  C   LIG    1      -28.553  84.953  35.214  0.00  0.00    +0.050 A 
ATOM     23  C   LIG    1      -29.653  85.545  34.582  0.00  0.00    +0.009 A 
ATOM     24  C   LIG    1      -29.642  86.906  34.254  0.00  0.00    -0.024 A 
ATOM     25  C   LIG    1      -28.502  87.657  34.562  0.00  0.00    +0.054 A 
BRANCH  20  27
ATOM     26  C   LIG    1      -26.461  89.094  35.992  0.00  0.00    +0.277 C 
ATOM     27  O   LIG    1      -26.264  87.799  35.438  0.00  0.00    -0.491 OA
ENDBRANCH  20  27
BRANCH  21  28
ATOM     28  O   LIG    1      -26.397  85.015  36.129  0.00  0.00    -0.482 OA
BRANCH  28  29
ATOM     29  C   LIG    1      -26.798  83.902  36.944  0.00  0.00    +0.285 C 
BRANCH  29  30
ATOM     30  C   LIG    1      -25.703  82.903  37.100  0.00  0.00    +0.086 A 
ATOM     31  N   LIG    1      -25.868  81.662  36.514  0.00  0.00    -0.246 NA
ATOM     32  C   LIG    1      -24.795  80.931  36.700  0.00  0.00    +0.076 A 
ATOM     33  C   LIG    1      -24.614  79.591  36.094  0.00  0.00    +0.073 C 
ATOM     34  S   LIG    1      -23.583  81.634  37.691  0.00  0.00    -0.080 S 
ATOM     35  C   LIG    1      -24.531  83.055  37.818  0.00  0.00    +0.073 A 
ENDBRANCH  29  30
ENDBRANCH  28  29
ENDBRANCH  21  28
ENDBRANCH  19  24
ENDBRANCH   1  19
TORSDOF 8
ENDMDL
MODEL 3
REMARK VINA RESULT:      -5.8      5.560      7.318
REMARK  Name = pdb/CHEMBL3673480.pdb
REMARK                            x       y       z     vdW  Elec       q    Type
REMARK                         _______ _______ _______ _____ _____    ______ ____
ROOT
ATOM      1  N   LIG    1      -38.974  71.804  24.675  0.00  0.00    -0.293 N 
ATOM      2  C   LIG    1      -39.941  72.667  24.221  0.00  0.00    +0.162 A 
ATOM      3  N   LIG    1      -41.172  72.350  23.774  0.00  0.00    -0.235 NA
ATOM      4  C   LIG    1      -41.902  73.455  23.472  0.00  0.00    +0.121 A 
ATOM      5  C   LIG    1      -41.478  74.787  23.558  0.00  0.00    +0.005 A 
ATOM      6  C   LIG    1      -40.169  75.032  24.004  0.00  0.00    +0.041 A 
ATOM      7  C   LIG    1      -39.385  73.930  24.359  0.00  0.00    +0.110 A 
ATOM      8  N   LIG    1      -38.107  73.845  24.858  0.00  0.00    -0.213 NA
ATOM      9  C   LIG    1      -37.900  72.573  25.068  0.00  0.00    +0.195 A 
ENDROOT
BRANCH   5  10
ATOM     10  C   LIG    1      -42.364  75.889  23.231  0.00  0.00    +0.021 A 
ATOM     11  C   LIG    1      -42.241  77.181  23.702  0.00  0.00    +0.116 A 
ATOM     12  N   LIG    1      -43.270  77.892  23.149  0.00  0.00    -0.274 N 
ATOM     13  C   LIG    1      -43.544  79.294  23.351  0.00  0.00    +0.172 C 
ATOM     14  N   LIG    1      -44.057  77.157  22.347  0.00  0.00    -0.179 NA
ATOM     15  C   LIG    1      -43.508  75.939  22.399  0.00  0.00    +0.143 A 
ENDBRANCH   5  10
BRANCH   9  16
ATOM     16  N   LIG    1      -36.789  72.042  25.623  0.00  0.00    -0.329 N 
ATOM     17  H   LIG    1      -36.743  71.030  25.515  0.00  0.00    +0.145 HD
ATOM     18  H   LIG    1      -35.899  72.469  25.410  0.00  0.00    +0.145 HD
ENDBRANCH   9  16
BRANCH   1  19
ATOM     19  C   LIG    1      -39.088  70.364  24.664  0.00  0.00    +0.161 C 
BRANCH  19  24
ATOM     20  C   LIG    1      -39.602  68.717  21.264  0.00  0.00    +0.162 A 
ATOM     21  C   LIG    1      -38.286  68.582  20.795  0.00  0.00    +0.162 A 
ATOM     22  C   LIG    1      -37.231  69.048  21.590  0.00  0.00    +0.050 A 
ATOM     23  C   LIG    1      -37.484  69.639  22.833  0.00  0.00    +0.009 A 
ATOM     24  C   LIG    1      -38.795  69.775  23.307  0.00  0.00    -0.024 A 
ATOM     25  C   LIG    1      -39.844  69.298  22.514  0.00  0.00    +0.054 A 
BRANCH  20  27
ATOM     26  C   LIG    1      -41.109  66.925  20.963  0.00  0.00    +0.277 C 
ATOM     27  O   LIG    1      -40.625  68.188  20.525  0.00  0.00    -0.491 OA
ENDBRANCH  20  27
BRANCH  21  28
ATOM     28  O   LIG    1      -37.911  68.003  19.606  0.00  0.00    -0.482 OA
BRANCH  28  29
ATOM     29  C   LIG    1      -37.211  66.753  19.717  0.00  0.00    +0.285 C 
BRANCH  29  30
ATOM     30  C   LIG    1      -35.841  66.829  19.135  0.00  0.00    +0.086 A 
ATOM     31  N   LIG    1      -34.769  66.552  19.963  0.00  0.00    -0.246 NA
ATOM     32  C   LIG    1      -33.650  66.610  19.282  0.00  0.00    +0.076 A 
ATOM     33  C   LIG    1      -32.332  66.250  19.858  0.00  0.00    +0.073 C 
ATOM     34  S   LIG    1      -33.801  67.122  17.651  0.00  0.00    -0.080 S 
ATOM     35  C   LIG    1      -35.501  67.198  17.847  0.00  0.00    +0.073 A 
ENDBRANCH  29  30
ENDBRANCH  28  29
ENDBRANCH  21  28
ENDBRANCH  19  24
ENDBRANCH   1  19
TORSDOF 8
ENDMDL
MODEL 4
REMARK VINA RESULT:      -5.6     16.992     21.587
REMARK  Name = pdb/CHEMBL3673480.pdb
REMARK                            x       y       z     vdW  Elec       q    Type
REMARK                         _______ _______ _______ _____ _____    ______ ____
ROOT
ATOM      1  N   LIG    1      -32.213  94.657  23.830  0.00  0.00    -0.293 N 
ATOM      2  C   LIG    1      -32.568  94.011  22.672  0.00  0.00    +0.162 A 
ATOM      3  N   LIG    1      -33.799  93.595  22.314  0.00  0.00    -0.235 NA
ATOM      4  C   LIG    1      -33.810  93.058  21.066  0.00  0.00    +0.121 A 
ATOM      5  C   LIG    1      -32.710  92.894  20.216  0.00  0.00    +0.005 A 
ATOM      6  C   LIG    1      -31.455  93.325  20.676  0.00  0.00    +0.041 A 
ATOM      7  C   LIG    1      -31.392  93.915  21.942  0.00  0.00    +0.110 A 
ATOM      8  N   LIG    1      -30.342  94.462  22.640  0.00  0.00    -0.213 NA
ATOM      9  C   LIG    1      -30.864  94.925  23.744  0.00  0.00    +0.195 A 
ENDROOT
BRANCH   5  10
ATOM     10  C   LIG    1      -32.854  92.327  18.888  0.00  0.00    +0.021 A 
ATOM     11  C   LIG    1      -33.653  91.248  18.562  0.00  0.00    +0.116 A 
ATOM     12  N   LIG    1      -33.499  91.049  17.218  0.00  0.00    -0.274 N 
ATOM     13  C   LIG    1      -34.148  90.031  16.427  0.00  0.00    +0.172 C 
ATOM     14  N   LIG    1      -32.658  91.922  16.640  0.00  0.00    -0.179 NA
ATOM     15  C   LIG    1      -32.264  92.696  17.656  0.00  0.00    +0.143 A 
ENDBRANCH   5  10
BRANCH   9  16
ATOM     16  N   LIG    1      -30.196  95.610  24.698  0.00  0.00    -0.329 N 
ATOM     17  H   LIG    1      -29.767  96.462  24.340  0.00  0.00    +0.145 HD
ATOM     18  H   LIG    1      -30.663  95.782  25.576  0.00  0.00    +0.145 HD
ENDBRANCH   9  16
BRANCH   1  19
ATOM     19  C   LIG    1      -33.112  94.926  24.928  0.00  0.00    +0.161 C 
BRANCH  19  24
ATOM     20  C   LIG    1      -32.424  93.451  28.377  0.00  0.00    +0.162 A 
ATOM     21  C   LIG    1      -32.596  92.076  28.154  0.00  0.00    +0.162 A 
ATOM     22  C   LIG    1      -32.954  91.636  26.874  0.00  0.00    +0.050 A 
ATOM     23  C   LIG    1      -33.138  92.552  25.831  0.00  0.00    +0.009 A 
ATOM     24  C   LIG    1      -32.967  93.925  26.047  0.00  0.00    -0.024 A 
ATOM     25  C   LIG    1      -32.598  94.358  27.326  0.00  0.00    +0.054 A 
BRANCH  20  27
ATOM     26  C   LIG    1      -30.892  94.772  29.595  0.00  0.00    +0.277 C 
ATOM     27  O   LIG    1      -31.994  93.874  29.605  0.00  0.00    -0.491 OA
ENDBRANCH  20  27
BRANCH  21  28
ATOM     28  O   LIG    1      -32.424  91.083  29.088  0.00  0.00    -0.482 OA
BRANCH  28  29
ATOM     29  C   LIG    1      -33.146  89.865  28.839  0.00  0.00    +0.285 C 
BRANCH  29  30
ATOM     30  C   LIG    1      -32.462  88.682  29.433  0.00  0.00    +0.086 A 
ATOM     31  N   LIG    1      -31.164  88.840  29.880  0.00  0.00    -0.246 NA
ATOM     32  C   LIG    1      -30.736  87.724  30.420  0.00  0.00    +0.076 A 
ATOM     33  C   LIG    1      -29.422  87.604  31.097  0.00  0.00    +0.073 C 
ATOM     34  S   LIG    1      -31.808  86.389  30.309  0.00  0.00    -0.080 S 
ATOM     35  C   LIG    1      -32.965  87.399  29.550  0.00  0.00    +0.073 A 
ENDBRANCH  29  30
ENDBRANCH  28  29
ENDBRANCH  21  28
ENDBRANCH  19  24
ENDBRANCH   1  19
TORSDOF 8
ENDMDL
MODEL 5
REMARK VINA RESULT:      -5.6     13.391     16.463
REMARK  Name = pdb/CHEMBL3673480.pdb
REMARK                            x       y       z     vdW  Elec       q    Type
REMARK                         _______ _______ _______ _____ _____    ______ ____
ROOT
ATOM      1  N   LIG    1      -19.177  76.913  31.218  0.00  0.00    -0.293 N 
ATOM      2  C   LIG    1      -19.392  77.751  32.285  0.00  0.00    +0.162 A 
ATOM      3  N   LIG    1      -20.408  78.620  32.450  0.00  0.00    -0.235 NA
ATOM      4  C   LIG    1      -20.355  79.239  33.657  0.00  0.00    +0.121 A 
ATOM      5  C   LIG    1      -19.376  79.070  34.643  0.00  0.00    +0.005 A 
ATOM      6  C   LIG    1      -18.331  78.168  34.381  0.00  0.00    +0.041 A 
ATOM      7  C   LIG    1      -18.354  77.479  33.165  0.00  0.00    +0.110 A 
ATOM      8  N   LIG    1      -17.515  76.522  32.645  0.00  0.00    -0.213 NA
ATOM      9  C   LIG    1      -18.046  76.179  31.503  0.00  0.00    +0.195 A 
ENDROOT
BRANCH   5  10
ATOM     10  C   LIG    1      -19.443  79.773  35.910  0.00  0.00    +0.021 A 
ATOM     11  C   LIG    1      -18.565  79.609  36.963  0.00  0.00    +0.116 A 
ATOM     12  N   LIG    1      -18.986  80.457  37.950  0.00  0.00    -0.274 N 
ATOM     13  C   LIG    1      -18.369  80.635  39.242  0.00  0.00    +0.172 C 
ATOM     14  N   LIG    1      -20.077  81.166  37.617  0.00  0.00    -0.179 NA
ATOM     15  C   LIG    1      -20.356  80.748  36.379  0.00  0.00    +0.143 A 
ENDBRANCH   5  10
BRANCH   9  16
ATOM     16  N   LIG    1      -17.582  75.211  30.683  0.00  0.00    -0.329 N 
ATOM     17  H   LIG    1      -16.693  75.457  30.250  0.00  0.00    +0.145 HD
ATOM     18  H   LIG    1      -17.565  74.262  31.028  0.00  0.00    +0.145 HD
ENDBRANCH   9  16
BRANCH   1  19
ATOM     19  C   LIG    1      -19.984  76.888  30.020  0.00  0.00    +0.161 C 
BRANCH  19  24
ATOM     20  C   LIG    1      -23.136  75.223  31.373  0.00  0.00    +0.162 A 
ATOM     21  C   LIG    1      -24.154  76.013  30.816  0.00  0.00    +0.162 A 
ATOM     22  C   LIG    1      -23.803  77.103  30.010  0.00  0.00    +0.050 A 
ATOM     23  C   LIG    1      -22.458  77.401  29.762  0.00  0.00    +0.009 A 
ATOM     24  C   LIG    1      -21.438  76.616  30.313  0.00  0.00    -0.024 A 
ATOM     25  C   LIG    1      -21.795  75.522  31.109  0.00  0.00    +0.054 A 
BRANCH  20  27
ATOM     26  C   LIG    1      -23.624  72.913  31.341  0.00  0.00    +0.277 C 
ATOM     27  O   LIG    1      -23.481  74.112  32.093  0.00  0.00    -0.491 OA
ENDBRANCH  20  27
BRANCH  21  28
ATOM     28  O   LIG    1      -25.505  75.810  30.970  0.00  0.00    -0.482 OA
BRANCH  28  29
ATOM     29  C   LIG    1      -26.237  76.906  31.542  0.00  0.00    +0.285 C 
BRANCH  29  30
ATOM     30  C   LIG    1      -25.836  77.166  32.954  0.00  0.00    +0.086 A 
ATOM     31  N   LIG    1      -25.125  78.320  33.224  0.00  0.00    -0.246 NA
ATOM     32  C   LIG    1      -24.904  78.419  34.513  0.00  0.00    +0.076 A 
ATOM     33  C   LIG    1      -24.266  79.604  35.136  0.00  0.00    +0.073 C 
ATOM     34  S   LIG    1      -25.418  77.082  35.458  0.00  0.00    -0.080 S 
ATOM     35  C   LIG    1      -26.054  76.348  34.047  0.00  0.00    +0.073 A 
ENDBRANCH  29  30
ENDBRANCH  28  29
ENDBRANCH  21  28
ENDBRANCH  19  24
ENDBRANCH   1  19
TORSDOF 8
ENDMDL
MODEL 6
REMARK VINA RESULT:      -5.5     12.778     15.619
REMARK  Name = pdb/CHEMBL3673480.pdb
REMARK                            x       y       z     vdW  Elec       q    Type
REMARK                         _______ _______ _______ _____ _____    ______ ____
ROOT
ATOM      1  N   LIG    1      -19.423  76.784  31.195  0.00  0.00    -0.293 N 
ATOM      2  C   LIG    1      -19.467  77.623  32.282  0.00  0.00    +0.162 A 
ATOM      3  N   LIG    1      -20.299  78.665  32.476  0.00  0.00    -0.235 NA
ATOM      4  C   LIG    1      -20.121  79.236  33.695  0.00  0.00    +0.121 A 
ATOM      5  C   LIG    1      -19.184  78.862  34.666  0.00  0.00    +0.005 A 
ATOM      6  C   LIG    1      -18.331  77.785  34.374  0.00  0.00    +0.041 A 
ATOM      7  C   LIG    1      -18.493  77.140  33.144  0.00  0.00    +0.110 A 
ATOM      8  N   LIG    1      -17.855  76.053  32.595  0.00  0.00    -0.213 NA
ATOM      9  C   LIG    1      -18.449  75.843  31.452  0.00  0.00    +0.195 A 
ENDROOT
BRANCH   5  10
ATOM     10  C   LIG    1      -19.108  79.537  35.948  0.00  0.00    +0.021 A 
ATOM     11  C   LIG    1      -18.155  79.302  36.920  0.00  0.00    +0.116 A 
ATOM     12  N   LIG    1      -18.446  80.145  37.956  0.00  0.00    -0.274 N 
ATOM     13  C   LIG    1      -17.715  80.260  39.194  0.00  0.00    +0.172 C 
ATOM     14  N   LIG    1      -19.521  80.918  37.730  0.00  0.00    -0.179 NA
ATOM     15  C   LIG    1      -19.925  80.545  36.512  0.00  0.00    +0.143 A 
ENDBRANCH   5  10
BRANCH   9  16
ATOM     16  N   LIG    1      -18.183  74.823  30.607  0.00  0.00    -0.329 N 
ATOM     17  H   LIG    1      -18.644  74.932  29.705  0.00  0.00    +0.145 HD
ATOM     18  H   LIG    1      -17.221  74.541  30.489  0.00  0.00    +0.145 HD
ENDBRANCH   9  16
BRANCH   1  19
ATOM     19  C   LIG    1      -20.228  76.939  30.006  0.00  0.00    +0.161 C 
BRANCH  19  24
ATOM     20  C   LIG    1      -23.522  75.388  31.138  0.00  0.00    +0.162 A 
ATOM     21  C   LIG    1      -24.459  76.354  30.742  0.00  0.00    +0.162 A 
ATOM     22  C   LIG    1      -24.007  77.523  30.118  0.00  0.00    +0.050 A 
ATOM     23  C   LIG    1      -22.640  77.726  29.892  0.00  0.00    +0.009 A 
ATOM     24  C   LIG    1      -21.700  76.765  30.283  0.00  0.00    -0.024 A 
ATOM     25  C   LIG    1      -22.159  75.594  30.897  0.00  0.00    +0.054 A 
BRANCH  20  27
ATOM     26  C   LIG    1      -24.295  73.194  30.734  0.00  0.00    +0.277 C 
ATOM     27  O   LIG    1      -23.971  74.211  31.673  0.00  0.00    -0.491 OA
ENDBRANCH  20  27
BRANCH  21  28
ATOM     28  O   LIG    1      -25.823  76.260  30.891  0.00  0.00    -0.482 OA
BRANCH  28  29
ATOM     29  C   LIG    1      -26.342  76.715  32.151  0.00  0.00    +0.285 C 
BRANCH  29  30
ATOM     30  C   LIG    1      -27.826  76.591  32.219  0.00  0.00    +0.086 A 
ATOM     31  N   LIG    1      -28.514  76.385  31.038  0.00  0.00    -0.246 NA
ATOM     32  C   LIG    1      -29.795  76.245  31.282  0.00  0.00    +0.076 A 
ATOM     33  C   LIG    1      -30.785  75.896  30.236  0.00  0.00    +0.073 C 
ATOM     34  S   LIG    1      -30.266  76.478  32.916  0.00  0.00    -0.080 S 
ATOM     35  C   LIG    1      -28.623  76.708  33.342  0.00  0.00    +0.073 A 
ENDBRANCH  29  30
ENDBRANCH  28  29
ENDBRANCH  21  28
ENDBRANCH  19  24
ENDBRANCH   1  19
TORSDOF 8
ENDMDL
MODEL 7
REMARK VINA RESULT:      -5.5      5.921      7.495
REMARK  Name = pdb/CHEMBL3673480.pdb
REMARK                            x       y       z     vdW  Elec       q    Type
REMARK                         _______ _______ _______ _____ _____    ______ ____
ROOT
ATOM      1  N   LIG    1      -36.858  68.304  24.045  0.00  0.00    -0.293 N 
ATOM      2  C   LIG    1      -37.808  69.270  23.822  0.00  0.00    +0.162 A 
ATOM      3  N   LIG    1      -38.959  69.139  23.134  0.00  0.00    -0.235 NA
ATOM      4  C   LIG    1      -39.704  70.274  23.170  0.00  0.00    +0.121 A 
ATOM      5  C   LIG    1      -39.363  71.479  23.796  0.00  0.00    +0.005 A 
ATOM      6  C   LIG    1      -38.130  71.545  24.465  0.00  0.00    +0.041 A 
ATOM      7  C   LIG    1      -37.338  70.393  24.486  0.00  0.00    +0.110 A 
ATOM      8  N   LIG    1      -36.125  70.133  25.079  0.00  0.00    -0.213 NA
ATOM      9  C   LIG    1      -35.880  68.875  24.830  0.00  0.00    +0.195 A 
ENDROOT
BRANCH   5  10
ATOM     10  C   LIG    1      -40.259  72.620  23.787  0.00  0.00    +0.021 A 
ATOM     11  C   LIG    1      -39.909  73.914  24.119  0.00  0.00    +0.116 A 
ATOM     12  N   LIG    1      -41.041  74.668  23.974  0.00  0.00    -0.274 N 
ATOM     13  C   LIG    1      -41.156  76.087  24.205  0.00  0.00    +0.172 C 
ATOM     14  N   LIG    1      -42.107  73.959  23.568  0.00  0.00    -0.179 NA
ATOM     15  C   LIG    1      -41.632  72.715  23.458  0.00  0.00    +0.143 A 
ENDBRANCH   5  10
BRANCH   9  16
ATOM     16  N   LIG    1      -34.816  68.179  25.288  0.00  0.00    -0.329 N 
ATOM     17  H   LIG    1      -34.796  67.222  24.940  0.00  0.00    +0.145 HD
ATOM     18  H   LIG    1      -33.903  68.607  25.223  0.00  0.00    +0.145 HD
ENDBRANCH   9  16
BRANCH   1  19
ATOM     19  C   LIG    1      -36.896  66.971  23.489  0.00  0.00    +0.161 C 
BRANCH  19  24
ATOM     20  C   LIG    1      -35.688  67.048  19.873  0.00  0.00    +0.162 A 
ATOM     21  C   LIG    1      -34.402  66.495  19.976  0.00  0.00    +0.162 A 
ATOM     22  C   LIG    1      -33.926  66.112  21.236  0.00  0.00    +0.050 A 
ATOM     23  C   LIG    1      -34.720  66.278  22.377  0.00  0.00    +0.009 A 
ATOM     24  C   LIG    1      -36.004  66.828  22.281  0.00  0.00    -0.024 A 
ATOM     25  C   LIG    1      -36.478  67.199  21.018  0.00  0.00    +0.054 A 
BRANCH  20  27
ATOM     26  C   LIG    1      -37.590  67.204  18.483  0.00  0.00    +0.277 C 
ATOM     27  O   LIG    1      -36.183  67.346  18.633  0.00  0.00    -0.491 OA
ENDBRANCH  20  27
BRANCH  21  28
ATOM     28  O   LIG    1      -33.540  66.264  18.930  0.00  0.00    -0.482 OA
BRANCH  28  29
ATOM     29  C   LIG    1      -32.238  65.777  19.294  0.00  0.00    +0.285 C 
BRANCH  29  30
ATOM     30  C   LIG    1      -31.169  66.774  19.002  0.00  0.00    +0.086 A 
ATOM     31  N   LIG    1      -31.555  68.060  18.671  0.00  0.00    -0.246 NA
ATOM     32  C   LIG    1      -30.497  68.816  18.501  0.00  0.00    +0.076 A 
ATOM     33  C   LIG    1      -30.576  70.275  18.252  0.00  0.00    +0.073 C 
ATOM     34  S   LIG    1      -28.986  68.008  18.601  0.00  0.00    -0.080 S 
ATOM     35  C   LIG    1      -29.805  66.551  18.975  0.00  0.00    +0.073 A 
ENDBRANCH  29  30
ENDBRANCH  28  29
ENDBRANCH  21  28
ENDBRANCH  19  24
ENDBRANCH   1  19
TORSDOF 8
ENDMDL
MODEL 8
REMARK VINA RESULT:      -5.4      7.702     10.175
REMARK  Name = pdb/CHEMBL3673480.pdb
REMARK                            x       y       z     vdW  Elec       q    Type
REMARK                         _______ _______ _______ _____ _____    ______ ____
ROOT
ATOM      1  N   LIG    1      -34.180  76.790  29.200  0.00  0.00    -0.293 N 
ATOM      2  C   LIG    1      -34.468  78.126  29.342  0.00  0.00    +0.162 A 
ATOM      3  N   LIG    1      -34.520  78.832  30.488  0.00  0.00    -0.235 NA
ATOM      4  C   LIG    1      -34.760  80.150  30.261  0.00  0.00    +0.121 A 
ATOM      5  C   LIG    1      -34.971  80.760  29.019  0.00  0.00    +0.005 A 
ATOM      6  C   LIG    1      -34.931  79.949  27.874  0.00  0.00    +0.041 A 
ATOM      7  C   LIG    1      -34.656  78.589  28.048  0.00  0.00    +0.110 A 
ATOM      8  N   LIG    1      -34.513  77.565  27.141  0.00  0.00    -0.213 NA
ATOM      9  C   LIG    1      -34.198  76.516  27.850  0.00  0.00    +0.195 A 
ENDROOT
BRANCH   5  10
ATOM     10  C   LIG    1      -35.193  82.189  28.903  0.00  0.00    +0.021 A 
ATOM     11  C   LIG    1      -34.576  83.159  29.669  0.00  0.00    +0.116 A 
ATOM     12  N   LIG    1      -35.063  84.360  29.235  0.00  0.00    -0.274 N 
ATOM     13  C   LIG    1      -34.699  85.662  29.740  0.00  0.00    +0.172 C 
ATOM     14  N   LIG    1      -35.955  84.246  28.238  0.00  0.00    -0.179 NA
ATOM     15  C   LIG    1      -36.036  82.927  28.039  0.00  0.00    +0.143 A 
ENDBRANCH   5  10
BRANCH   9  16
ATOM     16  N   LIG    1      -33.896  75.296  27.352  0.00  0.00    -0.329 N 
ATOM     17  H   LIG    1      -34.151  74.541  27.986  0.00  0.00    +0.145 HD
ATOM     18  H   LIG    1      -34.179  75.085  26.406  0.00  0.00    +0.145 HD
ENDBRANCH   9  16
BRANCH   1  19
ATOM     19  C   LIG    1      -33.966  75.876  30.298  0.00  0.00    +0.161 C 
BRANCH  19  24
ATOM     20  C   LIG    1      -31.240  76.528  32.883  0.00  0.00    +0.162 A 
ATOM     21  C   LIG    1      -30.070  76.436  32.113  0.00  0.00    +0.162 A 
ATOM     22  C   LIG    1      -30.177  76.143  30.748  0.00  0.00    +0.050 A 
ATOM     23  C   LIG    1      -31.431  75.945  30.158  0.00  0.00    +0.009 A 
ATOM     24  C   LIG    1      -32.602  76.037  30.921  0.00  0.00    -0.024 A 
ATOM     25  C   LIG    1      -32.489  76.341  32.282  0.00  0.00    +0.054 A 
BRANCH  20  27
ATOM     26  C   LIG    1      -31.346  78.275  34.467  0.00  0.00    +0.277 C 
ATOM     27  O   LIG    1      -31.140  76.894  34.197  0.00  0.00    -0.491 OA
ENDBRANCH  20  27
BRANCH  21  28
ATOM     28  O   LIG    1      -28.788  76.629  32.572  0.00  0.00    -0.482 OA
BRANCH  28  29
ATOM     29  C   LIG    1      -27.773  75.843  31.927  0.00  0.00    +0.285 C 
BRANCH  29  30
ATOM     30  C   LIG    1      -26.444  76.518  31.956  0.00  0.00    +0.086 A 
ATOM     31  N   LIG    1      -25.752  76.639  30.766  0.00  0.00    -0.246 NA
ATOM     32  C   LIG    1      -24.637  77.301  30.961  0.00  0.00    +0.076 A 
ATOM     33  C   LIG    1      -23.728  77.698  29.858  0.00  0.00    +0.073 C 
ATOM     34  S   LIG    1      -24.290  77.704  32.592  0.00  0.00    -0.080 S 
ATOM     35  C   LIG    1      -25.781  77.007  33.066  0.00  0.00    +0.073 A 
ENDBRANCH  29  30
ENDBRANCH  28  29
ENDBRANCH  21  28
ENDBRANCH  19  24
ENDBRANCH   1  19
TORSDOF 8
ENDMDL
MODEL 9
REMARK VINA RESULT:      -5.4      5.199      8.587
REMARK  Name = pdb/CHEMBL3673480.pdb
REMARK                            x       y       z     vdW  Elec       q    Type
REMARK                         _______ _______ _______ _____ _____    ______ ____
ROOT
ATOM      1  N   LIG    1      -36.399  67.639  22.519  0.00  0.00    -0.293 N 
ATOM      2  C   LIG    1      -35.795  67.810  23.741  0.00  0.00    +0.162 A 
ATOM      3  N   LIG    1      -34.933  66.973  24.350  0.00  0.00    -0.235 NA
ATOM      4  C   LIG    1      -34.468  67.484  25.519  0.00  0.00    +0.121 A 
ATOM      5  C   LIG    1      -34.826  68.709  26.098  0.00  0.00    +0.005 A 
ATOM      6  C   LIG    1      -35.756  69.510  25.415  0.00  0.00    +0.041 A 
ATOM      7  C   LIG    1      -36.242  69.044  24.190  0.00  0.00    +0.110 A 
ATOM      8  N   LIG    1      -37.112  69.604  23.284  0.00  0.00    -0.213 NA
ATOM      9  C   LIG    1      -37.161  68.763  22.286  0.00  0.00    +0.195 A 
ENDROOT
BRANCH   5  10
ATOM     10  C   LIG    1      -34.238  69.160  27.345  0.00  0.00    +0.021 A 
ATOM     11  C   LIG    1      -33.435  68.399  28.171  0.00  0.00    +0.116 A 
ATOM     12  N   LIG    1      -33.098  69.201  29.226  0.00  0.00    -0.274 N 
ATOM     13  C   LIG    1      -32.261  68.836  30.343  0.00  0.00    +0.172 C 
ATOM     14  N   LIG    1      -33.622  70.435  29.147  0.00  0.00    -0.179 NA
ATOM     15  C   LIG    1      -34.317  70.408  28.006  0.00  0.00    +0.143 A 
ENDBRANCH   5  10
BRANCH   9  16
ATOM     16  N   LIG    1      -37.847  68.951  21.138  0.00  0.00    -0.329 N 
ATOM     17  H   LIG    1      -38.487  68.185  20.935  0.00  0.00    +0.145 HD
ATOM     18  H   LIG    1      -38.295  69.844  20.990  0.00  0.00    +0.145 HD
ENDBRANCH   9  16
BRANCH   1  19
ATOM     19  C   LIG    1      -36.272  66.456  21.700  0.00  0.00    +0.161 C 
BRANCH  19  24
ATOM     20  C   LIG    1      -34.401  66.963  18.416  0.00  0.00    +0.162 A 
ATOM     21  C   LIG    1      -33.073  66.696  18.784  0.00  0.00    +0.162 A 
ATOM     22  C   LIG    1      -32.791  66.367  20.115  0.00  0.00    +0.050 A 
ATOM     23  C   LIG    1      -33.817  66.303  21.066  0.00  0.00    +0.009 A 
ATOM     24  C   LIG    1      -35.144  66.567  20.705  0.00  0.00    -0.024 A 
ATOM     25  C   LIG    1      -35.421  66.885  19.371  0.00  0.00    +0.054 A 
BRANCH  20  27
ATOM     26  C   LIG    1      -35.869  66.587  16.605  0.00  0.00    +0.277 C 
ATOM     27  O   LIG    1      -34.687  67.204  17.100  0.00  0.00    -0.491 OA
ENDBRANCH  20  27
BRANCH  21  28
ATOM     28  O   LIG    1      -31.988  66.707  17.941  0.00  0.00    -0.482 OA
BRANCH  28  29
ATOM     29  C   LIG    1      -30.832  67.411  18.425  0.00  0.00    +0.285 C 
BRANCH  29  30
ATOM     30  C   LIG    1      -30.854  68.849  18.035  0.00  0.00    +0.086 A 
ATOM     31  N   LIG    1      -29.859  69.671  18.532  0.00  0.00    -0.246 NA
ATOM     32  C   LIG    1      -29.995  70.882  18.049  0.00  0.00    +0.076 A 
ATOM     33  C   LIG    1      -29.017  71.968  18.300  0.00  0.00    +0.073 C 
ATOM     34  S   LIG    1      -31.386  71.142  17.080  0.00  0.00    -0.080 S 
ATOM     35  C   LIG    1      -31.799  69.488  17.255  0.00  0.00    +0.073 A 
ENDBRANCH  29  30
ENDBRANCH  28  29
ENDBRANCH  21  28
ENDBRANCH  19  24
ENDBRANCH   1  19
TORSDOF 8
ENDMDL
