MODEL 1
REMARK VINA RESULT:      -6.4      0.000      0.000
REMARK  Name = pdb/CHEMBL1970083.pdb
REMARK                            x       y       z     vdW  Elec       q    Type
REMARK                         _______ _______ _______ _____ _____    ______ ____
ROOT
ATOM      1  C   LIG    1      -38.925  83.932  24.254  0.00  0.00    -0.017 A 
ATOM      2  C   LIG    1      -37.978  83.054  24.783  0.00  0.00    +0.010 A 
ATOM      3  C   LIG    1      -36.764  83.541  25.295  0.00  0.00    +0.024 A 
ATOM      4  C   LIG    1      -36.461  84.907  25.268  0.00  0.00    +0.035 A 
ATOM      5  C   LIG    1      -37.356  85.773  24.655  0.00  0.00    +0.024 A 
ATOM      6  C   LIG    1      -38.579  85.295  24.183  0.00  0.00    +0.010 A 
ENDROOT
BRANCH   1   9
ATOM      7  C   LIG    1      -40.173  83.721  21.078  0.00  0.00    +0.125 A 
ATOM      8  C   LIG    1      -40.753  83.422  22.342  0.00  0.00    +0.037 A 
ATOM      9  C   LIG    1      -40.222  83.483  23.716  0.00  0.00    +0.000 A 
ATOM     10  C   LIG    1      -41.167  83.059  24.629  0.00  0.00    +0.055 A 
ATOM     11  S   LIG    1      -42.571  82.475  23.923  0.00  0.00    -0.095 S 
ATOM     12  C   LIG    1      -42.096  82.964  22.331  0.00  0.00    +0.032 A 
ATOM     13  C   LIG    1      -42.882  82.885  21.147  0.00  0.00    +0.015 A 
ATOM     14  C   LIG    1      -42.207  83.338  20.018  0.00  0.00    +0.122 A 
ATOM     15  N   LIG    1      -40.921  83.721  19.961  0.00  0.00    -0.239 NA
BRANCH  13  16
ATOM     16  C   LIG    1      -44.269  82.355  21.059  0.00  0.00    -0.012 A 
ATOM     17  C   LIG    1      -45.407  83.109  21.381  0.00  0.00    +0.028 A 
ATOM     18  C   LIG    1      -46.670  82.536  21.309  0.00  0.00    +0.111 A 
ATOM     19  N   LIG    1      -46.900  81.277  20.897  0.00  0.00    -0.263 NA
ATOM     20  C   LIG    1      -45.815  80.560  20.552  0.00  0.00    +0.111 A 
ATOM     21  C   LIG    1      -44.513  81.041  20.622  0.00  0.00    +0.028 A 
ENDBRANCH  13  16
BRANCH   7  22
ATOM     22  N   LIG    1      -38.826  83.974  20.828  0.00  0.00    -0.343 N 
ATOM     23  H   LIG    1      -38.574  83.644  19.902  0.00  0.00    +0.144 HD
ATOM     24  H   LIG    1      -38.715  84.983  20.907  0.00  0.00    +0.144 HD
ENDBRANCH   7  22
ENDBRANCH   1   9
BRANCH   4  25
ATOM     25  N   LIG    1      -35.284  85.337  25.913  0.00  0.00    -0.269 N 
ATOM     26  H   LIG    1      -34.424  85.118  25.428  0.00  0.00    +0.156 HD
ATOM     27  C   LIG    1      -35.158  85.813  27.204  0.00  0.00    +0.308 C 
ATOM     28  N   LIG    1      -33.838  86.110  27.496  0.00  0.00    -0.267 N 
ATOM     29  H   LIG    1      -33.162  86.025  26.747  0.00  0.00    +0.156 HD
ATOM     30  O   LIG    1      -36.097  85.959  27.995  0.00  0.00    -0.252 OA
BRANCH  28  31
ATOM     31  C   LIG    1      -33.322  86.603  28.717  0.00  0.00    +0.071 A 
ATOM     32  C   LIG    1      -33.405  87.973  28.976  0.00  0.00    +0.145 A 
ATOM     33  F   LIG    1      -33.937  88.792  28.053  0.00  0.00    -0.204 F 
ATOM     34  C   LIG    1      -32.934  88.518  30.172  0.00  0.00    +0.041 A 
ATOM     35  C   LIG    1      -32.379  87.681  31.146  0.00  0.00    +0.015 A 
ATOM     36  C   LIG    1      -32.277  86.302  30.908  0.00  0.00    +0.057 A 
ATOM     37  C   LIG    1      -32.734  85.786  29.683  0.00  0.00    +0.038 A 
BRANCH  36  38
ATOM     38  C   LIG    1      -31.688  85.346  31.922  0.00  0.00    +0.417 C 
ATOM     39  F   LIG    1      -30.846  85.961  32.797  0.00  0.00    -0.166 F 
ATOM     40  F   LIG    1      -30.968  84.348  31.342  0.00  0.00    -0.166 F 
ATOM     41  F   LIG    1      -32.626  84.725  32.691  0.00  0.00    -0.166 F 
ENDBRANCH  36  38
ENDBRANCH  28  31
ENDBRANCH   4  25
TORSDOF 6
ENDMDL
MODEL 2
REMARK VINA RESULT:      -6.3      8.923     10.727
REMARK  Name = pdb/CHEMBL1970083.pdb
REMARK                            x       y       z     vdW  Elec       q    Type
REMARK                         _______ _______ _______ _____ _____    ______ ____
ROOT
ATOM      1  C   LIG    1      -41.102  73.524  23.447  0.00  0.00    -0.017 A 
ATOM      2  C   LIG    1      -40.223  72.526  23.868  0.00  0.00    +0.010 A 
ATOM      3  C   LIG    1      -39.114  72.846  24.669  0.00  0.00    +0.024 A 
ATOM      4  C   LIG    1      -38.848  74.168  25.046  0.00  0.00    +0.035 A 
ATOM      5  C   LIG    1      -39.663  75.176  24.549  0.00  0.00    +0.024 A 
ATOM      6  C   LIG    1      -40.787  74.854  23.787  0.00  0.00    +0.010 A 
ENDROOT
BRANCH   1   9
ATOM      7  C   LIG    1      -41.956  70.918  21.406  0.00  0.00    +0.125 A 
ATOM      8  C   LIG    1      -42.632  72.128  21.724  0.00  0.00    +0.037 A 
ATOM      9  C   LIG    1      -42.291  73.249  22.619  0.00  0.00    +0.000 A 
ATOM     10  C   LIG    1      -43.289  74.202  22.619  0.00  0.00    +0.055 A 
ATOM     11  S   LIG    1      -44.641  73.760  21.731  0.00  0.00    -0.095 S 
ATOM     12  C   LIG    1      -43.883  72.342  21.090  0.00  0.00    +0.032 A 
ATOM     13  C   LIG    1      -44.422  71.458  20.113  0.00  0.00    +0.015 A 
ATOM     14  C   LIG    1      -43.575  70.392  19.821  0.00  0.00    +0.122 A 
ATOM     15  N   LIG    1      -42.413  70.109  20.434  0.00  0.00    -0.239 NA
BRANCH  13  16
ATOM     16  C   LIG    1      -45.752  71.589  19.460  0.00  0.00    -0.012 A 
ATOM     17  C   LIG    1      -45.971  72.335  18.293  0.00  0.00    +0.028 A 
ATOM     18  C   LIG    1      -47.248  72.443  17.761  0.00  0.00    +0.111 A 
ATOM     19  N   LIG    1      -48.329  71.828  18.273  0.00  0.00    -0.263 NA
ATOM     20  C   LIG    1      -48.119  71.081  19.372  0.00  0.00    +0.111 A 
ATOM     21  C   LIG    1      -46.883  70.943  19.991  0.00  0.00    +0.028 A 
ENDBRANCH  13  16
BRANCH   7  22
ATOM     22  N   LIG    1      -40.838  70.402  22.058  0.00  0.00    -0.343 N 
ATOM     23  H   LIG    1      -40.852  70.666  23.038  0.00  0.00    +0.144 HD
ATOM     24  H   LIG    1      -40.894  69.391  21.943  0.00  0.00    +0.144 HD
ENDBRANCH   7  22
ENDBRANCH   1   9
BRANCH   4  25
ATOM     25  N   LIG    1      -37.794  74.398  25.952  0.00  0.00    -0.269 N 
ATOM     26  H   LIG    1      -37.754  73.760  26.735  0.00  0.00    +0.156 HD
ATOM     27  C   LIG    1      -36.963  75.501  26.013  0.00  0.00    +0.308 C 
ATOM     28  N   LIG    1      -36.062  75.385  27.058  0.00  0.00    -0.267 N 
ATOM     29  H   LIG    1      -36.061  74.518  27.582  0.00  0.00    +0.156 HD
ATOM     30  O   LIG    1      -37.012  76.463  25.238  0.00  0.00    -0.252 OA
BRANCH  28  31
ATOM     31  C   LIG    1      -35.071  76.318  27.440  0.00  0.00    +0.071 A 
ATOM     32  C   LIG    1      -33.751  75.879  27.572  0.00  0.00    +0.145 A 
ATOM     33  F   LIG    1      -33.459  74.584  27.368  0.00  0.00    -0.204 F 
ATOM     34  C   LIG    1      -32.724  76.756  27.924  0.00  0.00    +0.041 A 
ATOM     35  C   LIG    1      -33.009  78.109  28.138  0.00  0.00    +0.015 A 
ATOM     36  C   LIG    1      -34.326  78.575  28.020  0.00  0.00    +0.057 A 
ATOM     37  C   LIG    1      -35.344  77.663  27.691  0.00  0.00    +0.038 A 
BRANCH  36  38
ATOM     38  C   LIG    1      -34.696  80.026  28.238  0.00  0.00    +0.417 C 
ATOM     39  F   LIG    1      -34.373  80.815  27.177  0.00  0.00    -0.166 F 
ATOM     40  F   LIG    1      -34.071  80.567  29.318  0.00  0.00    -0.166 F 
ATOM     41  F   LIG    1      -36.029  80.220  28.447  0.00  0.00    -0.166 F 
ENDBRANCH  36  38
ENDBRANCH  28  31
ENDBRANCH   4  25
TORSDOF 6
ENDMDL
MODEL 3
REMARK VINA RESULT:      -6.2     19.776     21.978
REMARK  Name = pdb/CHEMBL1970083.pdb
REMARK                            x       y       z     vdW  Elec       q    Type
REMARK                         _______ _______ _______ _____ _____    ______ ____
ROOT
ATOM      1  C   LIG    1      -22.388  79.590  15.304  0.00  0.00    -0.017 A 
ATOM      2  C   LIG    1      -23.134  80.253  14.328  0.00  0.00    +0.010 A 
ATOM      3  C   LIG    1      -23.327  81.642  14.402  0.00  0.00    +0.024 A 
ATOM      4  C   LIG    1      -22.803  82.392  15.462  0.00  0.00    +0.035 A 
ATOM      5  C   LIG    1      -22.145  81.725  16.486  0.00  0.00    +0.024 A 
ATOM      6  C   LIG    1      -21.918  80.351  16.392  0.00  0.00    +0.010 A 
ENDROOT
BRANCH   1   9
ATOM      7  C   LIG    1      -19.521  77.731  15.195  0.00  0.00    +0.125 A 
ATOM      8  C   LIG    1      -20.891  77.352  15.201  0.00  0.00    +0.037 A 
ATOM      9  C   LIG    1      -22.138  78.137  15.273  0.00  0.00    +0.000 A 
ATOM     10  C   LIG    1      -23.242  77.310  15.278  0.00  0.00    +0.055 A 
ATOM     11  S   LIG    1      -22.861  75.679  15.341  0.00  0.00    -0.095 S 
ATOM     12  C   LIG    1      -21.166  75.962  15.136  0.00  0.00    +0.032 A 
ATOM     13  C   LIG    1      -20.152  74.975  14.978  0.00  0.00    +0.015 A 
ATOM     14  C   LIG    1      -18.878  75.522  14.857  0.00  0.00    +0.122 A 
ATOM     15  N   LIG    1      -18.556  76.821  14.973  0.00  0.00    -0.239 NA
BRANCH  13  16
ATOM     16  C   LIG    1      -20.366  73.503  14.967  0.00  0.00    -0.012 A 
ATOM     17  C   LIG    1      -20.569  72.759  13.796  0.00  0.00    +0.028 A 
ATOM     18  C   LIG    1      -20.798  71.391  13.867  0.00  0.00    +0.111 A 
ATOM     19  N   LIG    1      -20.799  70.689  15.013  0.00  0.00    -0.263 NA
ATOM     20  C   LIG    1      -20.569  71.391  16.137  0.00  0.00    +0.111 A 
ATOM     21  C   LIG    1      -20.361  72.764  16.165  0.00  0.00    +0.028 A 
ENDBRANCH  13  16
BRANCH   7  22
ATOM     22  N   LIG    1      -19.015  79.001  15.464  0.00  0.00    -0.343 N 
ATOM     23  H   LIG    1      -18.929  79.533  14.603  0.00  0.00    +0.144 HD
ATOM     24  H   LIG    1      -19.680  79.433  16.104  0.00  0.00    +0.144 HD
ENDBRANCH   7  22
ENDBRANCH   1   9
BRANCH   4  25
ATOM     25  N   LIG    1      -22.928  83.794  15.404  0.00  0.00    -0.269 N 
ATOM     26  H   LIG    1      -23.637  84.188  16.008  0.00  0.00    +0.156 HD
ATOM     27  C   LIG    1      -22.361  84.653  14.480  0.00  0.00    +0.308 C 
ATOM     28  N   LIG    1      -22.734  85.963  14.728  0.00  0.00    -0.267 N 
ATOM     29  H   LIG    1      -23.284  86.145  15.558  0.00  0.00    +0.156 HD
ATOM     30  O   LIG    1      -21.618  84.301  13.557  0.00  0.00    -0.252 OA
BRANCH  28  31
ATOM     31  C   LIG    1      -22.365  87.111  13.988  0.00  0.00    +0.071 A 
ATOM     32  C   LIG    1      -21.076  87.625  14.147  0.00  0.00    +0.145 A 
ATOM     33  F   LIG    1      -20.232  87.044  15.016  0.00  0.00    -0.204 F 
ATOM     34  C   LIG    1      -20.644  88.742  13.429  0.00  0.00    +0.041 A 
ATOM     35  C   LIG    1      -21.508  89.358  12.517  0.00  0.00    +0.015 A 
ATOM     36  C   LIG    1      -22.811  88.867  12.345  0.00  0.00    +0.057 A 
ATOM     37  C   LIG    1      -23.226  87.757  13.102  0.00  0.00    +0.038 A 
BRANCH  36  38
ATOM     38  C   LIG    1      -23.790  89.489  11.374  0.00  0.00    +0.417 C 
ATOM     39  F   LIG    1      -24.279  88.593  10.474  0.00  0.00    -0.166 F 
ATOM     40  F   LIG    1      -23.234  90.494  10.645  0.00  0.00    -0.166 F 
ATOM     41  F   LIG    1      -24.882  90.034  11.980  0.00  0.00    -0.166 F 
ENDBRANCH  36  38
ENDBRANCH  28  31
ENDBRANCH   4  25
TORSDOF 6
ENDMDL
MODEL 4
REMARK VINA RESULT:      -6.2     12.273     19.115
REMARK  Name = pdb/CHEMBL1970083.pdb
REMARK                            x       y       z     vdW  Elec       q    Type
REMARK                         _______ _______ _______ _____ _____    ______ ____
ROOT
ATOM      1  C   LIG    1      -25.944  76.131  32.375  0.00  0.00    -0.017 A 
ATOM      2  C   LIG    1      -26.463  74.850  32.188  0.00  0.00    +0.010 A 
ATOM      3  C   LIG    1      -27.847  74.657  32.040  0.00  0.00    +0.024 A 
ATOM      4  C   LIG    1      -28.740  75.734  32.099  0.00  0.00    +0.035 A 
ATOM      5  C   LIG    1      -28.238  76.997  32.383  0.00  0.00    +0.024 A 
ATOM      6  C   LIG    1      -26.861  77.194  32.490  0.00  0.00    +0.010 A 
ENDROOT
BRANCH   1   9
ATOM      7  C   LIG    1      -23.572  77.319  30.217  0.00  0.00    +0.125 A 
ATOM      8  C   LIG    1      -23.487  76.889  31.570  0.00  0.00    +0.037 A 
ATOM      9  C   LIG    1      -24.501  76.398  32.522  0.00  0.00    +0.000 A 
ATOM     10  C   LIG    1      -23.935  76.126  33.750  0.00  0.00    +0.055 A 
ATOM     11  S   LIG    1      -22.317  76.553  33.854  0.00  0.00    -0.095 S 
ATOM     12  C   LIG    1      -22.201  76.929  32.168  0.00  0.00    +0.032 A 
ATOM     13  C   LIG    1      -21.022  77.286  31.456  0.00  0.00    +0.015 A 
ATOM     14  C   LIG    1      -21.261  77.552  30.111  0.00  0.00    +0.122 A 
ATOM     15  N   LIG    1      -22.462  77.589  29.510  0.00  0.00    -0.239 NA
BRANCH  13  16
ATOM     16  C   LIG    1      -19.658  77.409  32.037  0.00  0.00    -0.012 A 
ATOM     17  C   LIG    1      -18.702  76.384  31.991  0.00  0.00    +0.028 A 
ATOM     18  C   LIG    1      -17.461  76.559  32.588  0.00  0.00    +0.111 A 
ATOM     19  N   LIG    1      -17.072  77.694  33.194  0.00  0.00    -0.263 NA
ATOM     20  C   LIG    1      -17.972  78.694  33.211  0.00  0.00    +0.111 A 
ATOM     21  C   LIG    1      -19.247  78.598  32.667  0.00  0.00    +0.028 A 
ENDBRANCH  13  16
BRANCH   7  22
ATOM     22  N   LIG    1      -24.743  77.568  29.504  0.00  0.00    -0.343 N 
ATOM     23  H   LIG    1      -25.551  77.270  30.042  0.00  0.00    +0.144 HD
ATOM     24  H   LIG    1      -24.757  78.573  29.336  0.00  0.00    +0.144 HD
ENDBRANCH   7  22
ENDBRANCH   1   9
BRANCH   4  25
ATOM     25  N   LIG    1      -30.097  75.484  31.817  0.00  0.00    -0.269 N 
ATOM     26  H   LIG    1      -30.569  74.878  32.475  0.00  0.00    +0.156 HD
ATOM     27  C   LIG    1      -30.783  75.782  30.654  0.00  0.00    +0.308 C 
ATOM     28  N   LIG    1      -32.098  75.358  30.732  0.00  0.00    -0.267 N 
ATOM     29  H   LIG    1      -32.415  74.971  31.613  0.00  0.00    +0.156 HD
ATOM     30  O   LIG    1      -30.291  76.352  29.673  0.00  0.00    -0.252 OA
BRANCH  28  31
ATOM     31  C   LIG    1      -33.096  75.475  29.736  0.00  0.00    +0.071 A 
ATOM     32  C   LIG    1      -33.397  74.359  28.953  0.00  0.00    +0.145 A 
ATOM     33  F   LIG    1      -32.715  73.215  29.138  0.00  0.00    -0.204 F 
ATOM     34  C   LIG    1      -34.386  74.405  27.969  0.00  0.00    +0.041 A 
ATOM     35  C   LIG    1      -35.108  75.585  27.764  0.00  0.00    +0.015 A 
ATOM     36  C   LIG    1      -34.820  76.724  28.531  0.00  0.00    +0.057 A 
ATOM     37  C   LIG    1      -33.800  76.655  29.496  0.00  0.00    +0.038 A 
BRANCH  36  38
ATOM     38  C   LIG    1      -35.566  78.028  28.357  0.00  0.00    +0.417 C 
ATOM     39  F   LIG    1      -36.222  78.413  29.486  0.00  0.00    -0.166 F 
ATOM     40  F   LIG    1      -36.505  77.965  27.375  0.00  0.00    -0.166 F 
ATOM     41  F   LIG    1      -34.758  79.076  28.028  0.00  0.00    -0.166 F 
ENDBRANCH  36  38
ENDBRANCH  28  31
ENDBRANCH   4  25
TORSDOF 6
ENDMDL
MODEL 5
REMARK VINA RESULT:      -6.2      9.491     12.810
REMARK  Name = pdb/CHEMBL1970083.pdb
REMARK                            x       y       z     vdW  Elec       q    Type
REMARK                         _______ _______ _______ _____ _____    ______ ____
ROOT
ATOM      1  C   LIG    1      -33.078  77.451  28.702  0.00  0.00    -0.017 A 
ATOM      2  C   LIG    1      -32.631  78.111  27.557  0.00  0.00    +0.010 A 
ATOM      3  C   LIG    1      -33.138  79.378  27.222  0.00  0.00    +0.024 A 
ATOM      4  C   LIG    1      -34.117  79.998  28.007  0.00  0.00    +0.035 A 
ATOM      5  C   LIG    1      -34.636  79.304  29.092  0.00  0.00    +0.024 A 
ATOM      6  C   LIG    1      -34.104  78.064  29.448  0.00  0.00    +0.010 A 
ENDROOT
BRANCH   1   9
ATOM      7  C   LIG    1      -34.182  74.264  28.136  0.00  0.00    +0.125 A 
ATOM      8  C   LIG    1      -33.078  74.762  28.881  0.00  0.00    +0.037 A 
ATOM      9  C   LIG    1      -32.573  76.128  29.114  0.00  0.00    +0.000 A 
ATOM     10  C   LIG    1      -31.435  76.107  29.894  0.00  0.00    +0.055 A 
ATOM     11  S   LIG    1      -30.878  74.562  30.230  0.00  0.00    -0.095 S 
ATOM     12  C   LIG    1      -32.269  73.799  29.536  0.00  0.00    +0.032 A 
ATOM     13  C   LIG    1      -32.570  72.407  29.547  0.00  0.00    +0.015 A 
ATOM     14  C   LIG    1      -33.755  72.104  28.883  0.00  0.00    +0.122 A 
ATOM     15  N   LIG    1      -34.523  72.965  28.195  0.00  0.00    -0.239 NA
BRANCH  13  16
ATOM     16  C   LIG    1      -31.732  71.342  30.159  0.00  0.00    -0.012 A 
ATOM     17  C   LIG    1      -32.203  70.451  31.135  0.00  0.00    +0.028 A 
ATOM     18  C   LIG    1      -31.351  69.504  31.687  0.00  0.00    +0.111 A 
ATOM     19  N   LIG    1      -30.070  69.339  31.314  0.00  0.00    -0.263 NA
ATOM     20  C   LIG    1      -29.622  70.166  30.353  0.00  0.00    +0.111 A 
ATOM     21  C   LIG    1      -30.393  71.163  29.767  0.00  0.00    +0.028 A 
ENDBRANCH  13  16
BRANCH   7  22
ATOM     22  N   LIG    1      -34.974  74.992  27.249  0.00  0.00    -0.343 N 
ATOM     23  H   LIG    1      -34.390  75.570  26.653  0.00  0.00    +0.144 HD
ATOM     24  H   LIG    1      -35.489  74.300  26.708  0.00  0.00    +0.144 HD
ENDBRANCH   7  22
ENDBRANCH   1   9
BRANCH   4  25
ATOM     25  N   LIG    1      -34.486  81.318  27.682  0.00  0.00    -0.269 N 
ATOM     26  H   LIG    1      -33.786  82.021  27.879  0.00  0.00    +0.156 HD
ATOM     27  C   LIG    1      -35.743  81.781  27.341  0.00  0.00    +0.308 C 
ATOM     28  N   LIG    1      -35.724  83.147  27.118  0.00  0.00    -0.267 N 
ATOM     29  H   LIG    1      -34.827  83.615  27.150  0.00  0.00    +0.156 HD
ATOM     30  O   LIG    1      -36.751  81.072  27.245  0.00  0.00    -0.252 OA
BRANCH  28  31
ATOM     31  C   LIG    1      -36.819  83.971  26.766  0.00  0.00    +0.071 A 
ATOM     32  C   LIG    1      -37.418  84.751  27.758  0.00  0.00    +0.145 A 
ATOM     33  F   LIG    1      -36.968  84.677  29.022  0.00  0.00    -0.204 F 
ATOM     34  C   LIG    1      -38.487  85.601  27.470  0.00  0.00    +0.041 A 
ATOM     35  C   LIG    1      -38.967  85.693  26.159  0.00  0.00    +0.015 A 
ATOM     36  C   LIG    1      -38.389  84.915  25.145  0.00  0.00    +0.057 A 
ATOM     37  C   LIG    1      -37.332  84.048  25.471  0.00  0.00    +0.038 A 
BRANCH  36  38
ATOM     38  C   LIG    1      -38.863  84.972  23.709  0.00  0.00    +0.417 C 
ATOM     39  F   LIG    1      -39.081  83.737  23.179  0.00  0.00    -0.166 F 
ATOM     40  F   LIG    1      -37.968  85.584  22.888  0.00  0.00    -0.166 F 
ATOM     41  F   LIG    1      -40.034  85.651  23.551  0.00  0.00    -0.166 F 
ENDBRANCH  36  38
ENDBRANCH  28  31
ENDBRANCH   4  25
TORSDOF 6
ENDMDL
MODEL 6
REMARK VINA RESULT:      -6.1     20.807     22.965
REMARK  Name = pdb/CHEMBL1970083.pdb
REMARK                            x       y       z     vdW  Elec       q    Type
REMARK                         _______ _______ _______ _____ _____    ______ ____
ROOT
ATOM      1  C   LIG    1      -19.819  78.711  15.379  0.00  0.00    -0.017 A 
ATOM      2  C   LIG    1      -20.063  79.689  16.344  0.00  0.00    +0.010 A 
ATOM      3  C   LIG    1      -19.943  81.052  16.023  0.00  0.00    +0.024 A 
ATOM      4  C   LIG    1      -19.554  81.464  14.743  0.00  0.00    +0.035 A 
ATOM      5  C   LIG    1      -19.214  80.494  13.808  0.00  0.00    +0.024 A 
ATOM      6  C   LIG    1      -19.373  79.142  14.115  0.00  0.00    +0.010 A 
ENDROOT
BRANCH   1   9
ATOM      7  C   LIG    1      -17.860  76.494  17.094  0.00  0.00    +0.125 A 
ATOM      8  C   LIG    1      -19.074  76.320  16.374  0.00  0.00    +0.037 A 
ATOM      9  C   LIG    1      -19.944  77.267  15.651  0.00  0.00    +0.000 A 
ATOM     10  C   LIG    1      -21.046  76.624  15.128  0.00  0.00    +0.055 A 
ATOM     11  S   LIG    1      -21.157  75.010  15.570  0.00  0.00    -0.095 S 
ATOM     12  C   LIG    1      -19.596  75.002  16.318  0.00  0.00    +0.032 A 
ATOM     13  C   LIG    1      -18.920  73.874  16.862  0.00  0.00    +0.015 A 
ATOM     14  C   LIG    1      -17.684  74.198  17.416  0.00  0.00    +0.122 A 
ATOM     15  N   LIG    1      -17.173  75.433  17.550  0.00  0.00    -0.239 NA
BRANCH  13  16
ATOM     16  C   LIG    1      -19.439  72.481  16.894  0.00  0.00    -0.012 A 
ATOM     17  C   LIG    1      -19.195  71.540  15.883  0.00  0.00    +0.028 A 
ATOM     18  C   LIG    1      -19.744  70.268  15.963  0.00  0.00    +0.111 A 
ATOM     19  N   LIG    1      -20.486  69.835  16.996  0.00  0.00    -0.263 NA
ATOM     20  C   LIG    1      -20.695  70.720  17.987  0.00  0.00    +0.111 A 
ATOM     21  C   LIG    1      -20.212  72.023  17.977  0.00  0.00    +0.028 A 
ENDBRANCH  13  16
BRANCH   7  22
ATOM     22  N   LIG    1      -17.286  77.710  17.460  0.00  0.00    -0.343 N 
ATOM     23  H   LIG    1      -17.804  78.479  17.049  0.00  0.00    +0.144 HD
ATOM     24  H   LIG    1      -17.322  77.737  18.478  0.00  0.00    +0.144 HD
ENDBRANCH   7  22
ENDBRANCH   1   9
BRANCH   4  25
ATOM     25  N   LIG    1      -19.577  82.843  14.457  0.00  0.00    -0.269 N 
ATOM     26  H   LIG    1      -18.712  83.334  14.637  0.00  0.00    +0.156 HD
ATOM     27  C   LIG    1      -20.681  83.625  14.176  0.00  0.00    +0.308 C 
ATOM     28  N   LIG    1      -20.315  84.945  13.976  0.00  0.00    -0.267 N 
ATOM     29  H   LIG    1      -19.326  85.163  13.979  0.00  0.00    +0.156 HD
ATOM     30  O   LIG    1      -21.842  83.205  14.109  0.00  0.00    -0.252 OA
BRANCH  28  31
ATOM     31  C   LIG    1      -21.169  86.035  13.684  0.00  0.00    +0.071 A 
ATOM     32  C   LIG    1      -20.917  87.266  14.292  0.00  0.00    +0.145 A 
ATOM     33  F   LIG    1      -19.898  87.381  15.161  0.00  0.00    -0.204 F 
ATOM     34  C   LIG    1      -21.709  88.385  14.028  0.00  0.00    +0.041 A 
ATOM     35  C   LIG    1      -22.772  88.285  13.124  0.00  0.00    +0.015 A 
ATOM     36  C   LIG    1      -23.052  87.057  12.505  0.00  0.00    +0.057 A 
ATOM     37  C   LIG    1      -22.254  85.942  12.812  0.00  0.00    +0.038 A 
BRANCH  36  38
ATOM     38  C   LIG    1      -24.187  86.887  11.519  0.00  0.00    +0.417 C 
ATOM     39  F   LIG    1      -24.860  88.047  11.287  0.00  0.00    -0.166 F 
ATOM     40  F   LIG    1      -25.115  85.987  11.942  0.00  0.00    -0.166 F 
ATOM     41  F   LIG    1      -23.779  86.449  10.294  0.00  0.00    -0.166 F 
ENDBRANCH  36  38
ENDBRANCH  28  31
ENDBRANCH   4  25
TORSDOF 6
ENDMDL
MODEL 7
REMARK VINA RESULT:      -6.1      1.163      2.165
REMARK  Name = pdb/CHEMBL1970083.pdb
REMARK                            x       y       z     vdW  Elec       q    Type
REMARK                         _______ _______ _______ _____ _____    ______ ____
ROOT
ATOM      1  C   LIG    1      -38.881  83.864  24.290  0.00  0.00    -0.017 A 
ATOM      2  C   LIG    1      -37.935  82.988  24.823  0.00  0.00    +0.010 A 
ATOM      3  C   LIG    1      -36.729  83.477  25.351  0.00  0.00    +0.024 A 
ATOM      4  C   LIG    1      -36.432  84.845  25.334  0.00  0.00    +0.035 A 
ATOM      5  C   LIG    1      -37.324  85.711  24.716  0.00  0.00    +0.024 A 
ATOM      6  C   LIG    1      -38.540  85.230  24.229  0.00  0.00    +0.010 A 
ENDROOT
BRANCH   1   9
ATOM      7  C   LIG    1      -40.107  83.693  21.102  0.00  0.00    +0.125 A 
ATOM      8  C   LIG    1      -40.692  83.369  22.357  0.00  0.00    +0.037 A 
ATOM      9  C   LIG    1      -40.171  83.413  23.736  0.00  0.00    +0.000 A 
ATOM     10  C   LIG    1      -41.117  82.967  24.636  0.00  0.00    +0.055 A 
ATOM     11  S   LIG    1      -42.512  82.382  23.911  0.00  0.00    -0.095 S 
ATOM     12  C   LIG    1      -42.031  82.901  22.331  0.00  0.00    +0.032 A 
ATOM     13  C   LIG    1      -42.809  82.833  21.140  0.00  0.00    +0.015 A 
ATOM     14  C   LIG    1      -42.130  83.310  20.023  0.00  0.00    +0.122 A 
ATOM     15  N   LIG    1      -40.847  83.705  19.980  0.00  0.00    -0.239 NA
BRANCH  13  16
ATOM     16  C   LIG    1      -44.191  82.293  21.034  0.00  0.00    -0.012 A 
ATOM     17  C   LIG    1      -45.313  82.928  21.585  0.00  0.00    +0.028 A 
ATOM     18  C   LIG    1      -46.569  82.345  21.478  0.00  0.00    +0.111 A 
ATOM     19  N   LIG    1      -46.809  81.196  20.823  0.00  0.00    -0.263 NA
ATOM     20  C   LIG    1      -45.742  80.600  20.261  0.00  0.00    +0.111 A 
ATOM     21  C   LIG    1      -44.446  81.094  20.346  0.00  0.00    +0.028 A 
ENDBRANCH  13  16
BRANCH   7  22
ATOM     22  N   LIG    1      -38.760  83.961  20.865  0.00  0.00    -0.343 N 
ATOM     23  H   LIG    1      -38.280  83.114  20.578  0.00  0.00    +0.144 HD
ATOM     24  H   LIG    1      -38.744  84.667  20.130  0.00  0.00    +0.144 HD
ENDBRANCH   7  22
ENDBRANCH   1   9
BRANCH   4  25
ATOM     25  N   LIG    1      -35.263  85.276  25.993  0.00  0.00    -0.269 N 
ATOM     26  H   LIG    1      -34.398  85.076  25.509  0.00  0.00    +0.156 HD
ATOM     27  C   LIG    1      -35.149  85.730  27.294  0.00  0.00    +0.308 C 
ATOM     28  N   LIG    1      -33.834  86.036  27.598  0.00  0.00    -0.267 N 
ATOM     29  H   LIG    1      -33.153  85.973  26.851  0.00  0.00    +0.156 HD
ATOM     30  O   LIG    1      -36.094  85.850  28.082  0.00  0.00    -0.252 OA
BRANCH  28  31
ATOM     31  C   LIG    1      -33.331  86.513  28.831  0.00  0.00    +0.071 A 
ATOM     32  C   LIG    1      -32.990  85.586  29.819  0.00  0.00    +0.145 A 
ATOM     33  F   LIG    1      -33.178  84.275  29.593  0.00  0.00    -0.204 F 
ATOM     34  C   LIG    1      -32.467  85.992  31.048  0.00  0.00    +0.041 A 
ATOM     35  C   LIG    1      -32.262  87.353  31.301  0.00  0.00    +0.015 A 
ATOM     36  C   LIG    1      -32.603  88.304  30.328  0.00  0.00    +0.057 A 
ATOM     37  C   LIG    1      -33.153  87.867  29.111  0.00  0.00    +0.038 A 
BRANCH  36  38
ATOM     38  C   LIG    1      -32.403  89.789  30.542  0.00  0.00    +0.417 C 
ATOM     39  F   LIG    1      -33.515  90.404  31.030  0.00  0.00    -0.166 F 
ATOM     40  F   LIG    1      -32.082  90.443  29.393  0.00  0.00    -0.166 F 
ATOM     41  F   LIG    1      -31.406  90.081  31.424  0.00  0.00    -0.166 F 
ENDBRANCH  36  38
ENDBRANCH  28  31
ENDBRANCH   4  25
TORSDOF 6
ENDMDL
MODEL 8
REMARK VINA RESULT:      -6.1     10.534     13.211
REMARK  Name = pdb/CHEMBL1970083.pdb
REMARK                            x       y       z     vdW  Elec       q    Type
REMARK                         _______ _______ _______ _____ _____    ______ ____
ROOT
ATOM      1  C   LIG    1      -33.693  75.473  28.568  0.00  0.00    -0.017 A 
ATOM      2  C   LIG    1      -33.988  76.303  29.651  0.00  0.00    +0.010 A 
ATOM      3  C   LIG    1      -34.041  77.697  29.485  0.00  0.00    +0.024 A 
ATOM      4  C   LIG    1      -33.777  78.290  28.245  0.00  0.00    +0.035 A 
ATOM      5  C   LIG    1      -33.388  77.477  27.189  0.00  0.00    +0.024 A 
ATOM      6  C   LIG    1      -33.375  76.090  27.343  0.00  0.00    +0.010 A 
ENDROOT
BRANCH   1   9
ATOM      7  C   LIG    1      -31.272  73.312  29.645  0.00  0.00    +0.125 A 
ATOM      8  C   LIG    1      -32.574  73.085  29.121  0.00  0.00    +0.037 A 
ATOM      9  C   LIG    1      -33.639  74.003  28.676  0.00  0.00    +0.000 A 
ATOM     10  C   LIG    1      -34.755  73.303  28.267  0.00  0.00    +0.055 A 
ATOM     11  S   LIG    1      -34.642  71.649  28.518  0.00  0.00    -0.095 S 
ATOM     12  C   LIG    1      -32.978  71.731  28.989  0.00  0.00    +0.032 A 
ATOM     13  C   LIG    1      -32.118  70.632  29.270  0.00  0.00    +0.015 A 
ATOM     14  C   LIG    1      -30.838  71.028  29.646  0.00  0.00    +0.122 A 
ATOM     15  N   LIG    1      -30.423  72.290  29.846  0.00  0.00    -0.239 NA
BRANCH  13  16
ATOM     16  C   LIG    1      -32.498  69.195  29.214  0.00  0.00    -0.012 A 
ATOM     17  C   LIG    1      -33.298  68.645  28.203  0.00  0.00    +0.028 A 
ATOM     18  C   LIG    1      -33.642  67.300  28.236  0.00  0.00    +0.111 A 
ATOM     19  N   LIG    1      -33.216  66.440  29.177  0.00  0.00    -0.263 NA
ATOM     20  C   LIG    1      -32.418  66.953  30.131  0.00  0.00    +0.111 A 
ATOM     21  C   LIG    1      -32.049  68.291  30.194  0.00  0.00    +0.028 A 
ENDBRANCH  13  16
BRANCH   7  22
ATOM     22  N   LIG    1      -30.752  74.537  30.059  0.00  0.00    -0.343 N 
ATOM     23  H   LIG    1      -31.153  75.290  29.509  0.00  0.00    +0.144 HD
ATOM     24  H   LIG    1      -30.997  74.623  31.044  0.00  0.00    +0.144 HD
ENDBRANCH   7  22
ENDBRANCH   1   9
BRANCH   4  25
ATOM     25  N   LIG    1      -33.972  79.680  28.123  0.00  0.00    -0.269 N 
ATOM     26  H   LIG    1      -33.206  80.252  28.450  0.00  0.00    +0.156 HD
ATOM     27  C   LIG    1      -35.148  80.342  27.820  0.00  0.00    +0.308 C 
ATOM     28  N   LIG    1      -34.958  81.713  27.817  0.00  0.00    -0.267 N 
ATOM     29  H   LIG    1      -34.015  82.056  27.951  0.00  0.00    +0.156 HD
ATOM     30  O   LIG    1      -36.226  79.786  27.581  0.00  0.00    -0.252 OA
BRANCH  28  31
ATOM     31  C   LIG    1      -35.929  82.710  27.567  0.00  0.00    +0.071 A 
ATOM     32  C   LIG    1      -36.448  83.428  28.647  0.00  0.00    +0.145 A 
ATOM     33  F   LIG    1      -36.042  83.136  29.894  0.00  0.00    -0.204 F 
ATOM     34  C   LIG    1      -37.392  84.439  28.462  0.00  0.00    +0.041 A 
ATOM     35  C   LIG    1      -37.825  84.759  27.171  0.00  0.00    +0.015 A 
ATOM     36  C   LIG    1      -37.326  84.048  26.070  0.00  0.00    +0.057 A 
ATOM     37  C   LIG    1      -36.397  83.016  26.289  0.00  0.00    +0.038 A 
BRANCH  36  38
ATOM     38  C   LIG    1      -37.755  84.348  24.650  0.00  0.00    +0.417 C 
ATOM     39  F   LIG    1      -39.100  84.520  24.532  0.00  0.00    -0.166 F 
ATOM     40  F   LIG    1      -37.423  83.353  23.784  0.00  0.00    -0.166 F 
ATOM     41  F   LIG    1      -37.194  85.481  24.142  0.00  0.00    -0.166 F 
ENDBRANCH  36  38
ENDBRANCH  28  31
ENDBRANCH   4  25
TORSDOF 6
ENDMDL
MODEL 9
REMARK VINA RESULT:      -6.1      9.105     10.970
REMARK  Name = pdb/CHEMBL1970083.pdb
REMARK                            x       y       z     vdW  Elec       q    Type
REMARK                         _______ _______ _______ _____ _____    ______ ____
ROOT
ATOM      1  C   LIG    1      -41.351  73.207  23.409  0.00  0.00    -0.017 A 
ATOM      2  C   LIG    1      -40.503  72.176  23.814  0.00  0.00    +0.010 A 
ATOM      3  C   LIG    1      -39.299  72.463  24.479  0.00  0.00    +0.024 A 
ATOM      4  C   LIG    1      -38.907  73.783  24.732  0.00  0.00    +0.035 A 
ATOM      5  C   LIG    1      -39.698  74.815  24.245  0.00  0.00    +0.024 A 
ATOM      6  C   LIG    1      -40.913  74.529  23.620  0.00  0.00    +0.010 A 
ENDROOT
BRANCH   1   9
ATOM      7  C   LIG    1      -42.279  71.073  20.905  0.00  0.00    +0.125 A 
ATOM      8  C   LIG    1      -43.010  72.058  21.624  0.00  0.00    +0.037 A 
ATOM      9  C   LIG    1      -42.633  72.969  22.721  0.00  0.00    +0.000 A 
ATOM     10  C   LIG    1      -43.709  73.736  23.117  0.00  0.00    +0.055 A 
ATOM     11  S   LIG    1      -45.144  73.328  22.353  0.00  0.00    -0.095 S 
ATOM     12  C   LIG    1      -44.369  72.233  21.259  0.00  0.00    +0.032 A 
ATOM     13  C   LIG    1      -44.979  71.541  20.174  0.00  0.00    +0.015 A 
ATOM     14  C   LIG    1      -44.091  70.713  19.493  0.00  0.00    +0.122 A 
ATOM     15  N   LIG    1      -42.816  70.464  19.833  0.00  0.00    -0.239 NA
BRANCH  13  16
ATOM     16  C   LIG    1      -46.411  71.629  19.781  0.00  0.00    -0.012 A 
ATOM     17  C   LIG    1      -46.915  72.605  18.910  0.00  0.00    +0.028 A 
ATOM     18  C   LIG    1      -48.272  72.648  18.617  0.00  0.00    +0.111 A 
ATOM     19  N   LIG    1      -49.169  71.765  19.089  0.00  0.00    -0.263 NA
ATOM     20  C   LIG    1      -48.686  70.805  19.897  0.00  0.00    +0.111 A 
ATOM     21  C   LIG    1      -47.351  70.704  20.269  0.00  0.00    +0.028 A 
ENDBRANCH  13  16
BRANCH   7  22
ATOM     22  N   LIG    1      -41.015  70.585  21.228  0.00  0.00    -0.343 N 
ATOM     23  H   LIG    1      -40.299  71.234  20.917  0.00  0.00    +0.144 HD
ATOM     24  H   LIG    1      -41.009  70.481  22.241  0.00  0.00    +0.144 HD
ENDBRANCH   7  22
ENDBRANCH   1   9
BRANCH   4  25
ATOM     25  N   LIG    1      -37.754  73.992  25.513  0.00  0.00    -0.269 N 
ATOM     26  H   LIG    1      -37.270  73.152  25.799  0.00  0.00    +0.156 HD
ATOM     27  C   LIG    1      -37.341  75.171  26.106  0.00  0.00    +0.308 C 
ATOM     28  N   LIG    1      -36.172  74.982  26.823  0.00  0.00    -0.267 N 
ATOM     29  H   LIG    1      -35.731  74.072  26.769  0.00  0.00    +0.156 HD
ATOM     30  O   LIG    1      -37.934  76.252  26.010  0.00  0.00    -0.252 OA
BRANCH  28  31
ATOM     31  C   LIG    1      -35.462  75.950  27.571  0.00  0.00    +0.071 A 
ATOM     32  C   LIG    1      -35.805  76.146  28.911  0.00  0.00    +0.145 A 
ATOM     33  F   LIG    1      -36.816  75.442  29.447  0.00  0.00    -0.204 F 
ATOM     34  C   LIG    1      -35.128  77.071  29.708  0.00  0.00    +0.041 A 
ATOM     35  C   LIG    1      -34.071  77.811  29.168  0.00  0.00    +0.015 A 
ATOM     36  C   LIG    1      -33.711  77.639  27.823  0.00  0.00    +0.057 A 
ATOM     37  C   LIG    1      -34.429  76.721  27.038  0.00  0.00    +0.038 A 
BRANCH  36  38
ATOM     38  C   LIG    1      -32.577  78.410  27.183  0.00  0.00    +0.417 C 
ATOM     39  F   LIG    1      -31.589  78.720  28.065  0.00  0.00    -0.166 F 
ATOM     40  F   LIG    1      -32.987  79.589  26.642  0.00  0.00    -0.166 F 
ATOM     41  F   LIG    1      -31.965  77.733  26.170  0.00  0.00    -0.166 F 
ENDBRANCH  36  38
ENDBRANCH  28  31
ENDBRANCH   4  25
TORSDOF 6
ENDMDL
