MODEL 1
REMARK VINA RESULT:      -6.3      0.000      0.000
REMARK  Name = pdb/CHEMBL3298265.pdb
REMARK                            x       y       z     vdW  Elec       q    Type
REMARK                         _______ _______ _______ _____ _____    ______ ____
ROOT
ATOM      1  C   LIG    1      -24.762  77.727  31.308  0.00  0.00    +0.149 A 
ATOM      2  C   LIG    1      -24.669  78.134  32.650  0.00  0.00    +0.131 A 
ATOM      3  N   LIG    1      -23.720  78.985  33.160  0.00  0.00    -0.227 NA
ATOM      4  C   LIG    1      -23.763  79.348  34.458  0.00  0.00    +0.123 A 
ATOM      5  C   LIG    1      -24.756  78.854  35.287  0.00  0.00    +0.046 A 
ATOM      6  C   LIG    1      -25.685  77.942  34.781  0.00  0.00    +0.033 A 
ATOM      7  C   LIG    1      -25.668  77.570  33.451  0.00  0.00    +0.094 A 
ATOM      8  N   LIG    1      -26.603  76.702  33.018  0.00  0.00    -0.234 NA
ATOM      9  C   LIG    1      -26.587  76.401  31.720  0.00  0.00    +0.224 A 
ATOM     10  N   LIG    1      -25.709  76.882  30.827  0.00  0.00    -0.219 NA
ENDROOT
BRANCH   4  11
ATOM     11  N   LIG    1      -22.739  80.128  34.981  0.00  0.00    -0.308 N 
ATOM     12  C   LIG    1      -21.811  79.585  35.993  0.00  0.00    +0.108 C 
ATOM     13  C   LIG    1      -21.615  80.775  36.961  0.00  0.00    +0.029 C 
ATOM     14  C   LIG    1      -21.843  81.998  36.083  0.00  0.00    +0.021 C 
ATOM     15  C   LIG    1      -22.992  81.546  35.188  0.00  0.00    +0.107 C 
BRANCH  12  16
ATOM     16  C   LIG    1      -20.507  79.148  35.348  0.00  0.00    +0.011 A 
ATOM     17  C   LIG    1      -19.521  78.498  36.101  0.00  0.00    +0.129 A 
ATOM     18  F   LIG    1      -19.712  78.286  37.412  0.00  0.00    -0.205 F 
ATOM     19  C   LIG    1      -18.336  78.042  35.518  0.00  0.00    +0.041 A 
ATOM     20  C   LIG    1      -18.116  78.234  34.154  0.00  0.00    +0.041 A 
ATOM     21  C   LIG    1      -19.076  78.892  33.399  0.00  0.00    +0.124 A 
ATOM     22  F   LIG    1      -18.879  79.070  32.087  0.00  0.00    -0.205 F 
ATOM     23  C   LIG    1      -20.250  79.357  33.981  0.00  0.00    +0.046 A 
ENDBRANCH  12  16
ENDBRANCH   4  11
BRANCH   1  24
ATOM     24  N   LIG    1      -23.906  78.217  30.295  0.00  0.00    -0.322 N 
ATOM     25  H   LIG    1      -24.507  78.757  29.670  0.00  0.00    +0.148 HD
BRANCH  24  26
ATOM     26  C   LIG    1      -23.241  77.164  29.522  0.00  0.00    +0.160 C 
BRANCH  26  32
ATOM     27  C   LIG    1      -16.895  75.047  32.401  0.00  0.00    +0.053 C 
ATOM     28  C   LIG    1      -18.146  75.502  31.735  0.00  0.00    +0.007 A 
ATOM     29  S   LIG    1      -18.076  76.445  30.220  0.00  0.00    -0.055 S 
ATOM     30  C   LIG    1      -19.812  76.526  30.226  0.00  0.00    +0.178 A 
ATOM     31  N   LIG    1      -20.717  77.062  29.455  0.00  0.00    -0.225 NA
ATOM     32  C   LIG    1      -21.914  76.726  30.083  0.00  0.00    +0.078 A 
ATOM     33  C   LIG    1      -21.680  75.983  31.236  0.00  0.00    +0.118 A 
ATOM     34  N   LIG    1      -20.326  75.871  31.303  0.00  0.00    -0.300 N 
ATOM     35  C   LIG    1      -19.409  75.293  32.151  0.00  0.00    +0.103 A 
ENDBRANCH  26  32
ENDBRANCH  24  26
ENDBRANCH   1  24
TORSDOF 5
ENDMDL
MODEL 2
REMARK VINA RESULT:      -6.2      1.482      2.844
REMARK  Name = pdb/CHEMBL3298265.pdb
REMARK                            x       y       z     vdW  Elec       q    Type
REMARK                         _______ _______ _______ _____ _____    ______ ____
ROOT
ATOM      1  C   LIG    1      -24.992  77.870  31.327  0.00  0.00    +0.149 A 
ATOM      2  C   LIG    1      -24.510  77.847  32.646  0.00  0.00    +0.131 A 
ATOM      3  N   LIG    1      -23.217  78.111  33.026  0.00  0.00    -0.227 NA
ATOM      4  C   LIG    1      -22.880  78.111  34.332  0.00  0.00    +0.123 A 
ATOM      5  C   LIG    1      -23.834  77.833  35.297  0.00  0.00    +0.046 A 
ATOM      6  C   LIG    1      -25.134  77.507  34.906  0.00  0.00    +0.033 A 
ATOM      7  C   LIG    1      -25.503  77.516  33.575  0.00  0.00    +0.094 A 
ATOM      8  N   LIG    1      -26.778  77.212  33.262  0.00  0.00    -0.234 NA
ATOM      9  C   LIG    1      -27.111  77.276  31.973  0.00  0.00    +0.224 A 
ATOM     10  N   LIG    1      -26.275  77.603  30.976  0.00  0.00    -0.219 NA
ENDROOT
BRANCH   4  11
ATOM     11  N   LIG    1      -21.550  78.280  34.692  0.00  0.00    -0.308 N 
ATOM     12  C   LIG    1      -20.819  79.515  34.343  0.00  0.00    +0.108 C 
ATOM     13  C   LIG    1      -19.418  78.993  33.951  0.00  0.00    +0.029 C 
ATOM     14  C   LIG    1      -19.274  77.705  34.750  0.00  0.00    +0.021 C 
ATOM     15  C   LIG    1      -20.678  77.115  34.672  0.00  0.00    +0.107 C 
BRANCH  12  16
ATOM     16  C   LIG    1      -20.768  80.464  35.529  0.00  0.00    +0.011 A 
ATOM     17  C   LIG    1      -21.782  81.408  35.730  0.00  0.00    +0.129 A 
ATOM     18  F   LIG    1      -22.794  81.501  34.855  0.00  0.00    -0.205 F 
ATOM     19  C   LIG    1      -21.782  82.257  36.841  0.00  0.00    +0.041 A 
ATOM     20  C   LIG    1      -20.752  82.172  37.778  0.00  0.00    +0.041 A 
ATOM     21  C   LIG    1      -19.731  81.254  37.581  0.00  0.00    +0.124 A 
ATOM     22  F   LIG    1      -18.744  81.157  38.480  0.00  0.00    -0.205 F 
ATOM     23  C   LIG    1      -19.723  80.418  36.469  0.00  0.00    +0.046 A 
ENDBRANCH  12  16
ENDBRANCH   4  11
BRANCH   1  24
ATOM     24  N   LIG    1      -24.193  78.245  30.222  0.00  0.00    -0.322 N 
ATOM     25  H   LIG    1      -24.826  78.723  29.580  0.00  0.00    +0.148 HD
BRANCH  24  26
ATOM     26  C   LIG    1      -23.578  77.111  29.526  0.00  0.00    +0.160 C 
BRANCH  26  32
ATOM     27  C   LIG    1      -17.311  74.858  32.476  0.00  0.00    +0.053 C 
ATOM     28  C   LIG    1      -18.543  75.382  31.824  0.00  0.00    +0.007 A 
ATOM     29  S   LIG    1      -18.510  76.925  30.926  0.00  0.00    -0.055 S 
ATOM     30  C   LIG    1      -20.205  76.734  30.596  0.00  0.00    +0.178 A 
ATOM     31  N   LIG    1      -21.109  77.429  29.962  0.00  0.00    -0.225 NA
ATOM     32  C   LIG    1      -22.263  76.663  30.109  0.00  0.00    +0.078 A 
ATOM     33  C   LIG    1      -22.006  75.509  30.843  0.00  0.00    +0.118 A 
ATOM     34  N   LIG    1      -20.681  75.582  31.142  0.00  0.00    -0.300 N 
ATOM     35  C   LIG    1      -19.765  74.817  31.827  0.00  0.00    +0.103 A 
ENDBRANCH  26  32
ENDBRANCH  24  26
ENDBRANCH   1  24
TORSDOF 5
ENDMDL
MODEL 3
REMARK VINA RESULT:      -6.0     13.467     18.007
REMARK  Name = pdb/CHEMBL3298265.pdb
REMARK                            x       y       z     vdW  Elec       q    Type
REMARK                         _______ _______ _______ _____ _____    ______ ____
ROOT
ATOM      1  C   LIG    1      -33.736  76.869  27.388  0.00  0.00    +0.149 A 
ATOM      2  C   LIG    1      -35.035  76.334  27.371  0.00  0.00    +0.131 A 
ATOM      3  N   LIG    1      -36.078  76.801  26.610  0.00  0.00    -0.227 NA
ATOM      4  C   LIG    1      -37.271  76.171  26.635  0.00  0.00    +0.123 A 
ATOM      5  C   LIG    1      -37.454  75.058  27.438  0.00  0.00    +0.046 A 
ATOM      6  C   LIG    1      -36.410  74.620  28.256  0.00  0.00    +0.033 A 
ATOM      7  C   LIG    1      -35.177  75.241  28.233  0.00  0.00    +0.094 A 
ATOM      8  N   LIG    1      -34.203  74.760  29.031  0.00  0.00    -0.234 NA
ATOM      9  C   LIG    1      -33.013  75.353  28.949  0.00  0.00    +0.224 A 
ATOM     10  N   LIG    1      -32.721  76.392  28.151  0.00  0.00    -0.219 NA
ENDROOT
BRANCH   4  11
ATOM     11  N   LIG    1      -38.342  76.714  25.939  0.00  0.00    -0.308 N 
ATOM     12  C   LIG    1      -38.497  76.491  24.487  0.00  0.00    +0.108 C 
ATOM     13  C   LIG    1      -38.993  77.862  23.973  0.00  0.00    +0.029 C 
ATOM     14  C   LIG    1      -39.715  78.459  25.174  0.00  0.00    +0.021 C 
ATOM     15  C   LIG    1      -38.826  78.029  26.335  0.00  0.00    +0.107 C 
BRANCH  12  16
ATOM     16  C   LIG    1      -39.497  75.379  24.218  0.00  0.00    +0.011 A 
ATOM     17  C   LIG    1      -39.116  74.036  24.325  0.00  0.00    +0.129 A 
ATOM     18  F   LIG    1      -37.850  73.722  24.638  0.00  0.00    -0.205 F 
ATOM     19  C   LIG    1      -40.031  72.997  24.131  0.00  0.00    +0.041 A 
ATOM     20  C   LIG    1      -41.359  73.292  23.821  0.00  0.00    +0.041 A 
ATOM     21  C   LIG    1      -41.746  74.618  23.693  0.00  0.00    +0.124 A 
ATOM     22  F   LIG    1      -43.020  74.912  23.408  0.00  0.00    -0.205 F 
ATOM     23  C   LIG    1      -40.833  75.652  23.874  0.00  0.00    +0.046 A 
ENDBRANCH  12  16
ENDBRANCH   4  11
BRANCH   1  24
ATOM     24  N   LIG    1      -33.332  77.934  26.550  0.00  0.00    -0.322 N 
ATOM     25  H   LIG    1      -32.556  77.565  25.999  0.00  0.00    +0.148 HD
BRANCH  24  26
ATOM     26  C   LIG    1      -32.875  79.120  27.280  0.00  0.00    +0.160 C 
BRANCH  26  32
ATOM     27  C   LIG    1      -38.130  82.825  30.700  0.00  0.00    +0.053 C 
ATOM     28  C   LIG    1      -37.051  82.012  30.076  0.00  0.00    +0.007 A 
ATOM     29  S   LIG    1      -36.103  80.857  31.054  0.00  0.00    -0.055 S 
ATOM     30  C   LIG    1      -35.183  80.457  29.635  0.00  0.00    +0.178 A 
ATOM     31  N   LIG    1      -34.192  79.652  29.370  0.00  0.00    -0.225 NA
ATOM     32  C   LIG    1      -33.965  79.858  28.011  0.00  0.00    +0.078 A 
ATOM     33  C   LIG    1      -34.849  80.801  27.496  0.00  0.00    +0.118 A 
ATOM     34  N   LIG    1      -35.616  81.168  28.558  0.00  0.00    -0.300 N 
ATOM     35  C   LIG    1      -36.658  82.036  28.788  0.00  0.00    +0.103 A 
ENDBRANCH  26  32
ENDBRANCH  24  26
ENDBRANCH   1  24
TORSDOF 5
ENDMDL
MODEL 4
REMARK VINA RESULT:      -5.8     14.489     19.029
REMARK  Name = pdb/CHEMBL3298265.pdb
REMARK                            x       y       z     vdW  Elec       q    Type
REMARK                         _______ _______ _______ _____ _____    ______ ____
ROOT
ATOM      1  C   LIG    1      -37.704  76.330  25.147  0.00  0.00    +0.149 A 
ATOM      2  C   LIG    1      -38.361  75.127  24.838  0.00  0.00    +0.131 A 
ATOM      3  N   LIG    1      -37.836  73.869  25.002  0.00  0.00    -0.227 NA
ATOM      4  C   LIG    1      -38.582  72.782  24.721  0.00  0.00    +0.123 A 
ATOM      5  C   LIG    1      -39.878  72.927  24.253  0.00  0.00    +0.046 A 
ATOM      6  C   LIG    1      -40.389  74.208  24.031  0.00  0.00    +0.033 A 
ATOM      7  C   LIG    1      -39.647  75.334  24.327  0.00  0.00    +0.094 A 
ATOM      8  N   LIG    1      -40.203  76.542  24.109  0.00  0.00    -0.234 NA
ATOM      9  C   LIG    1      -39.477  77.607  24.450  0.00  0.00    +0.224 A 
ATOM     10  N   LIG    1      -38.243  77.563  24.974  0.00  0.00    -0.219 NA
ENDROOT
BRANCH   4  11
ATOM     11  N   LIG    1      -38.004  71.521  24.796  0.00  0.00    -0.308 N 
ATOM     12  C   LIG    1      -38.835  70.300  24.760  0.00  0.00    +0.108 C 
ATOM     13  C   LIG    1      -38.149  69.380  25.795  0.00  0.00    +0.029 C 
ATOM     14  C   LIG    1      -36.697  69.838  25.782  0.00  0.00    +0.021 C 
ATOM     15  C   LIG    1      -36.834  71.350  25.644  0.00  0.00    +0.107 C 
BRANCH  12  16
ATOM     16  C   LIG    1      -38.840  69.695  23.366  0.00  0.00    +0.011 A 
ATOM     17  C   LIG    1      -40.026  69.624  22.624  0.00  0.00    +0.129 A 
ATOM     18  F   LIG    1      -41.175  70.065  23.155  0.00  0.00    -0.205 F 
ATOM     19  C   LIG    1      -40.045  69.118  21.321  0.00  0.00    +0.041 A 
ATOM     20  C   LIG    1      -38.862  68.667  20.736  0.00  0.00    +0.041 A 
ATOM     21  C   LIG    1      -37.683  68.713  21.466  0.00  0.00    +0.124 A 
ATOM     22  F   LIG    1      -36.541  68.294  20.909  0.00  0.00    -0.205 F 
ATOM     23  C   LIG    1      -37.666  69.206  22.767  0.00  0.00    +0.046 A 
ENDBRANCH  12  16
ENDBRANCH   4  11
BRANCH   1  24
ATOM     24  N   LIG    1      -36.421  76.376  25.741  0.00  0.00    -0.322 N 
ATOM     25  H   LIG    1      -35.926  75.562  25.376  0.00  0.00    +0.148 HD
BRANCH  24  26
ATOM     26  C   LIG    1      -36.444  76.303  27.205  0.00  0.00    +0.160 C 
BRANCH  26  32
ATOM     27  C   LIG    1      -30.777  72.830  30.181  0.00  0.00    +0.053 C 
ATOM     28  C   LIG    1      -31.884  73.618  29.573  0.00  0.00    +0.007 A 
ATOM     29  S   LIG    1      -31.819  75.402  29.545  0.00  0.00    -0.055 S 
ATOM     30  C   LIG    1      -33.369  75.415  28.761  0.00  0.00    +0.178 A 
ATOM     31  N   LIG    1      -34.181  76.340  28.328  0.00  0.00    -0.225 NA
ATOM     32  C   LIG    1      -35.250  75.613  27.811  0.00  0.00    +0.078 A 
ATOM     33  C   LIG    1      -35.038  74.246  27.954  0.00  0.00    +0.118 A 
ATOM     34  N   LIG    1      -33.828  74.149  28.566  0.00  0.00    -0.300 N 
ATOM     35  C   LIG    1      -33.009  73.136  29.011  0.00  0.00    +0.103 A 
ENDBRANCH  26  32
ENDBRANCH  24  26
ENDBRANCH   1  24
TORSDOF 5
ENDMDL
MODEL 5
REMARK VINA RESULT:      -5.8     15.771     20.020
REMARK  Name = pdb/CHEMBL3298265.pdb
REMARK                            x       y       z     vdW  Elec       q    Type
REMARK                         _______ _______ _______ _____ _____    ______ ____
ROOT
ATOM      1  C   LIG    1      -37.643  68.760  22.115  0.00  0.00    +0.149 A 
ATOM      2  C   LIG    1      -38.723  69.550  22.543  0.00  0.00    +0.131 A 
ATOM      3  N   LIG    1      -38.677  70.481  23.552  0.00  0.00    -0.227 NA
ATOM      4  C   LIG    1      -39.767  71.221  23.841  0.00  0.00    +0.123 A 
ATOM      5  C   LIG    1      -40.941  71.039  23.130  0.00  0.00    +0.046 A 
ATOM      6  C   LIG    1      -41.003  70.051  22.145  0.00  0.00    +0.033 A 
ATOM      7  C   LIG    1      -39.895  69.293  21.823  0.00  0.00    +0.094 A 
ATOM      8  N   LIG    1      -40.011  68.370  20.850  0.00  0.00    -0.234 NA
ATOM      9  C   LIG    1      -38.910  67.689  20.533  0.00  0.00    +0.224 A 
ATOM     10  N   LIG    1      -37.712  67.845  21.117  0.00  0.00    -0.219 NA
ENDROOT
BRANCH   4  11
ATOM     11  N   LIG    1      -39.735  72.085  24.928  0.00  0.00    -0.308 N 
ATOM     12  C   LIG    1      -38.676  73.107  25.055  0.00  0.00    +0.108 C 
ATOM     13  C   LIG    1      -38.350  73.086  26.566  0.00  0.00    +0.029 C 
ATOM     14  C   LIG    1      -39.650  72.625  27.211  0.00  0.00    +0.021 C 
ATOM     15  C   LIG    1      -40.148  71.573  26.226  0.00  0.00    +0.107 C 
BRANCH  12  16
ATOM     16  C   LIG    1      -39.180  74.464  24.595  0.00  0.00    +0.011 A 
ATOM     17  C   LIG    1      -38.360  75.597  24.682  0.00  0.00    +0.129 A 
ATOM     18  F   LIG    1      -37.129  75.493  25.204  0.00  0.00    -0.205 F 
ATOM     19  C   LIG    1      -38.785  76.845  24.218  0.00  0.00    +0.041 A 
ATOM     20  C   LIG    1      -40.053  76.981  23.655  0.00  0.00    +0.041 A 
ATOM     21  C   LIG    1      -40.883  75.871  23.580  0.00  0.00    +0.124 A 
ATOM     22  F   LIG    1      -42.099  75.989  23.031  0.00  0.00    -0.205 F 
ATOM     23  C   LIG    1      -40.467  74.631  24.052  0.00  0.00    +0.046 A 
ENDBRANCH  12  16
ENDBRANCH   4  11
BRANCH   1  24
ATOM     24  N   LIG    1      -36.338  68.888  22.645  0.00  0.00    -0.322 N 
ATOM     25  H   LIG    1      -35.709  68.678  21.870  0.00  0.00    +0.148 HD
BRANCH  24  26
ATOM     26  C   LIG    1      -36.055  67.967  23.750  0.00  0.00    +0.160 C 
BRANCH  26  32
ATOM     27  C   LIG    1      -32.926  70.932  29.620  0.00  0.00    +0.053 C 
ATOM     28  C   LIG    1      -33.587  70.413  28.392  0.00  0.00    +0.007 A 
ATOM     29  S   LIG    1      -34.605  71.482  27.387  0.00  0.00    -0.055 S 
ATOM     30  C   LIG    1      -34.918  70.139  26.330  0.00  0.00    +0.178 A 
ATOM     31  N   LIG    1      -35.619  69.958  25.245  0.00  0.00    -0.225 NA
ATOM     32  C   LIG    1      -35.408  68.613  24.947  0.00  0.00    +0.078 A 
ATOM     33  C   LIG    1      -34.569  68.021  25.886  0.00  0.00    +0.118 A 
ATOM     34  N   LIG    1      -34.273  69.020  26.759  0.00  0.00    -0.300 N 
ATOM     35  C   LIG    1      -33.524  69.159  27.905  0.00  0.00    +0.103 A 
ENDBRANCH  26  32
ENDBRANCH  24  26
ENDBRANCH   1  24
TORSDOF 5
ENDMDL
MODEL 6
REMARK VINA RESULT:      -5.7     18.414     21.988
REMARK  Name = pdb/CHEMBL3298265.pdb
REMARK                            x       y       z     vdW  Elec       q    Type
REMARK                         _______ _______ _______ _____ _____    ______ ____
ROOT
ATOM      1  C   LIG    1      -19.223  86.131  13.723  0.00  0.00    +0.149 A 
ATOM      2  C   LIG    1      -19.343  84.741  13.557  0.00  0.00    +0.131 A 
ATOM      3  N   LIG    1      -20.227  83.933  14.228  0.00  0.00    -0.227 NA
ATOM      4  C   LIG    1      -20.289  82.615  13.946  0.00  0.00    +0.123 A 
ATOM      5  C   LIG    1      -19.453  82.068  12.987  0.00  0.00    +0.046 A 
ATOM      6  C   LIG    1      -18.514  82.880  12.348  0.00  0.00    +0.033 A 
ATOM      7  C   LIG    1      -18.445  84.234  12.610  0.00  0.00    +0.094 A 
ATOM      8  N   LIG    1      -17.531  84.969  11.947  0.00  0.00    -0.234 NA
ATOM      9  C   LIG    1      -17.523  86.279  12.191  0.00  0.00    +0.224 A 
ATOM     10  N   LIG    1      -18.339  86.909  13.049  0.00  0.00    -0.219 NA
ENDROOT
BRANCH   4  11
ATOM     11  N   LIG    1      -21.116  81.795  14.703  0.00  0.00    -0.308 N 
ATOM     12  C   LIG    1      -22.424  82.277  15.191  0.00  0.00    +0.108 C 
ATOM     13  C   LIG    1      -22.506  81.682  16.615  0.00  0.00    +0.029 C 
ATOM     14  C   LIG    1      -21.651  80.425  16.533  0.00  0.00    +0.021 C 
ATOM     15  C   LIG    1      -20.496  80.874  15.644  0.00  0.00    +0.107 C 
BRANCH  12  16
ATOM     16  C   LIG    1      -23.547  81.783  14.295  0.00  0.00    +0.011 A 
ATOM     17  C   LIG    1      -23.768  82.366  13.041  0.00  0.00    +0.129 A 
ATOM     18  F   LIG    1      -23.003  83.391  12.635  0.00  0.00    -0.205 F 
ATOM     19  C   LIG    1      -24.762  81.895  12.179  0.00  0.00    +0.041 A 
ATOM     20  C   LIG    1      -25.563  80.821  12.566  0.00  0.00    +0.041 A 
ATOM     21  C   LIG    1      -25.367  80.245  13.814  0.00  0.00    +0.124 A 
ATOM     22  F   LIG    1      -26.123  79.206  14.190  0.00  0.00    -0.205 F 
ATOM     23  C   LIG    1      -24.386  80.721  14.677  0.00  0.00    +0.046 A 
ENDBRANCH  12  16
ENDBRANCH   4  11
BRANCH   1  24
ATOM     24  N   LIG    1      -20.069  86.880  14.573  0.00  0.00    -0.322 N 
ATOM     25  H   LIG    1      -20.804  86.233  14.862  0.00  0.00    +0.148 HD
BRANCH  24  26
ATOM     26  C   LIG    1      -20.685  88.040  13.922  0.00  0.00    +0.160 C 
BRANCH  26  32
ATOM     27  C   LIG    1      -26.607  86.312  10.050  0.00  0.00    +0.053 C 
ATOM     28  C   LIG    1      -25.407  86.754  10.813  0.00  0.00    +0.007 A 
ATOM     29  S   LIG    1      -24.683  88.359  10.516  0.00  0.00    -0.055 S 
ATOM     30  C   LIG    1      -23.470  87.997  11.707  0.00  0.00    +0.178 A 
ATOM     31  N   LIG    1      -22.435  88.623  12.194  0.00  0.00    -0.225 NA
ATOM     32  C   LIG    1      -21.918  87.719  13.119  0.00  0.00    +0.078 A 
ATOM     33  C   LIG    1      -22.679  86.554  13.155  0.00  0.00    +0.118 A 
ATOM     34  N   LIG    1      -23.664  86.760  12.241  0.00  0.00    -0.300 N 
ATOM     35  C   LIG    1      -24.742  86.057  11.754  0.00  0.00    +0.103 A 
ENDBRANCH  26  32
ENDBRANCH  24  26
ENDBRANCH   1  24
TORSDOF 5
ENDMDL
MODEL 7
REMARK VINA RESULT:      -5.6     17.915     20.394
REMARK  Name = pdb/CHEMBL3298265.pdb
REMARK                            x       y       z     vdW  Elec       q    Type
REMARK                         _______ _______ _______ _____ _____    ______ ____
ROOT
ATOM      1  C   LIG    1      -22.348  84.955  13.346  0.00  0.00    +0.149 A 
ATOM      2  C   LIG    1      -21.066  84.409  13.521  0.00  0.00    +0.131 A 
ATOM      3  N   LIG    1      -20.795  83.110  13.875  0.00  0.00    -0.227 NA
ATOM      4  C   LIG    1      -19.519  82.682  13.962  0.00  0.00    +0.123 A 
ATOM      5  C   LIG    1      -18.474  83.554  13.706  0.00  0.00    +0.046 A 
ATOM      6  C   LIG    1      -18.749  84.889  13.404  0.00  0.00    +0.033 A 
ATOM      7  C   LIG    1      -20.049  85.343  13.295  0.00  0.00    +0.094 A 
ATOM      8  N   LIG    1      -20.250  86.638  12.981  0.00  0.00    -0.234 NA
ATOM      9  C   LIG    1      -21.516  87.031  12.839  0.00  0.00    +0.224 A 
ATOM     10  N   LIG    1      -22.590  86.244  12.997  0.00  0.00    -0.219 NA
ENDROOT
BRANCH   4  11
ATOM     11  N   LIG    1      -19.262  81.396  14.418  0.00  0.00    -0.308 N 
ATOM     12  C   LIG    1      -19.666  80.976  15.775  0.00  0.00    +0.108 C 
ATOM     13  C   LIG    1      -18.473  80.110  16.242  0.00  0.00    +0.029 C 
ATOM     14  C   LIG    1      -17.893  79.563  14.945  0.00  0.00    +0.021 C 
ATOM     15  C   LIG    1      -18.024  80.753  14.002  0.00  0.00    +0.107 C 
BRANCH  12  16
ATOM     16  C   LIG    1      -20.965  80.190  15.731  0.00  0.00    +0.011 A 
ATOM     17  C   LIG    1      -22.131  80.708  16.307  0.00  0.00    +0.129 A 
ATOM     18  F   LIG    1      -22.100  81.894  16.933  0.00  0.00    -0.205 F 
ATOM     19  C   LIG    1      -23.350  80.026  16.234  0.00  0.00    +0.041 A 
ATOM     20  C   LIG    1      -23.417  78.798  15.576  0.00  0.00    +0.041 A 
ATOM     21  C   LIG    1      -22.266  78.265  15.016  0.00  0.00    +0.124 A 
ATOM     22  F   LIG    1      -22.323  77.092  14.372  0.00  0.00    -0.205 F 
ATOM     23  C   LIG    1      -21.051  78.937  15.099  0.00  0.00    +0.046 A 
ENDBRANCH  12  16
ENDBRANCH   4  11
BRANCH   1  24
ATOM     24  N   LIG    1      -23.532  84.189  13.452  0.00  0.00    -0.322 N 
ATOM     25  H   LIG    1      -23.314  83.444  14.114  0.00  0.00    +0.148 HD
BRANCH  24  26
ATOM     26  C   LIG    1      -23.963  83.588  12.186  0.00  0.00    +0.160 C 
BRANCH  26  32
ATOM     27  C   LIG    1      -25.361  76.445  12.435  0.00  0.00    +0.053 C 
ATOM     28  C   LIG    1      -25.139  77.917  12.451  0.00  0.00    +0.007 A 
ATOM     29  S   LIG    1      -26.286  78.999  13.290  0.00  0.00    -0.055 S 
ATOM     30  C   LIG    1      -25.321  80.356  12.793  0.00  0.00    +0.178 A 
ATOM     31  N   LIG    1      -25.392  81.649  12.949  0.00  0.00    -0.225 NA
ATOM     32  C   LIG    1      -24.269  82.116  12.270  0.00  0.00    +0.078 A 
ATOM     33  C   LIG    1      -23.547  81.063  11.718  0.00  0.00    +0.118 A 
ATOM     34  N   LIG    1      -24.244  79.949  12.068  0.00  0.00    -0.300 N 
ATOM     35  C   LIG    1      -24.128  78.592  11.872  0.00  0.00    +0.103 A 
ENDBRANCH  26  32
ENDBRANCH  24  26
ENDBRANCH   1  24
TORSDOF 5
ENDMDL
MODEL 8
REMARK VINA RESULT:      -5.6     19.669     22.463
REMARK  Name = pdb/CHEMBL3298265.pdb
REMARK                            x       y       z     vdW  Elec       q    Type
REMARK                         _______ _______ _______ _____ _____    ______ ____
ROOT
ATOM      1  C   LIG    1      -32.269  93.574  23.340  0.00  0.00    +0.149 A 
ATOM      2  C   LIG    1      -32.522  93.364  21.974  0.00  0.00    +0.131 A 
ATOM      3  N   LIG    1      -33.570  92.640  21.461  0.00  0.00    -0.227 NA
ATOM      4  C   LIG    1      -33.744  92.552  20.126  0.00  0.00    +0.123 A 
ATOM      5  C   LIG    1      -32.859  93.180  19.266  0.00  0.00    +0.046 A 
ATOM      6  C   LIG    1      -31.760  93.866  19.788  0.00  0.00    +0.033 A 
ATOM      7  C   LIG    1      -31.573  93.982  21.151  0.00  0.00    +0.094 A 
ATOM      8  N   LIG    1      -30.505  94.673  21.594  0.00  0.00    -0.234 NA
ATOM      9  C   LIG    1      -30.381  94.804  22.915  0.00  0.00    +0.224 A 
ATOM     10  N   LIG    1      -31.224  94.292  23.824  0.00  0.00    -0.219 NA
ENDROOT
BRANCH   4  11
ATOM     11  N   LIG    1      -34.748  91.735  19.623  0.00  0.00    -0.308 N 
ATOM     12  C   LIG    1      -35.220  91.881  18.232  0.00  0.00    +0.108 C 
ATOM     13  C   LIG    1      -36.748  91.679  18.358  0.00  0.00    +0.029 C 
ATOM     14  C   LIG    1      -36.895  90.786  19.583  0.00  0.00    +0.021 C 
ATOM     15  C   LIG    1      -35.824  91.336  20.518  0.00  0.00    +0.107 C 
BRANCH  12  16
ATOM     16  C   LIG    1      -34.575  90.840  17.333  0.00  0.00    +0.011 A 
ATOM     17  C   LIG    1      -34.518  91.032  15.946  0.00  0.00    +0.129 A 
ATOM     18  F   LIG    1      -35.062  92.129  15.400  0.00  0.00    -0.205 F 
ATOM     19  C   LIG    1      -33.884  90.112  15.105  0.00  0.00    +0.041 A 
ATOM     20  C   LIG    1      -33.294  88.971  15.646  0.00  0.00    +0.041 A 
ATOM     21  C   LIG    1      -33.360  88.758  17.016  0.00  0.00    +0.124 A 
ATOM     22  F   LIG    1      -32.786  87.671  17.546  0.00  0.00    -0.205 F 
ATOM     23  C   LIG    1      -34.000  89.666  17.852  0.00  0.00    +0.046 A 
ENDBRANCH  12  16
ENDBRANCH   4  11
BRANCH   1  24
ATOM     24  N   LIG    1      -33.127  93.107  24.362  0.00  0.00    -0.322 N 
ATOM     25  H   LIG    1      -34.012  93.596  24.217  0.00  0.00    +0.148 HD
BRANCH  24  26
ATOM     26  C   LIG    1      -32.643  93.391  25.717  0.00  0.00    +0.160 C 
BRANCH  26  32
ATOM     27  C   LIG    1      -33.840  87.939  30.395  0.00  0.00    +0.053 C 
ATOM     28  C   LIG    1      -33.528  89.083  29.496  0.00  0.00    +0.007 A 
ATOM     29  S   LIG    1      -32.497  90.427  30.061  0.00  0.00    -0.055 S 
ATOM     30  C   LIG    1      -32.705  91.196  28.517  0.00  0.00    +0.178 A 
ATOM     31  N   LIG    1      -32.294  92.308  27.973  0.00  0.00    -0.225 NA
ATOM     32  C   LIG    1      -32.858  92.270  26.700  0.00  0.00    +0.078 A 
ATOM     33  C   LIG    1      -33.605  91.110  26.520  0.00  0.00    +0.118 A 
ATOM     34  N   LIG    1      -33.490  90.442  27.699  0.00  0.00    -0.300 N 
ATOM     35  C   LIG    1      -33.953  89.261  28.231  0.00  0.00    +0.103 A 
ENDBRANCH  26  32
ENDBRANCH  24  26
ENDBRANCH   1  24
TORSDOF 5
ENDMDL
MODEL 9
REMARK VINA RESULT:      -5.6      4.709      9.031
REMARK  Name = pdb/CHEMBL3298265.pdb
REMARK                            x       y       z     vdW  Elec       q    Type
REMARK                         _______ _______ _______ _____ _____    ______ ____
ROOT
ATOM      1  C   LIG    1      -23.410  81.890  36.595  0.00  0.00    +0.149 A 
ATOM      2  C   LIG    1      -22.779  80.849  35.893  0.00  0.00    +0.131 A 
ATOM      3  N   LIG    1      -23.416  79.781  35.312  0.00  0.00    -0.227 NA
ATOM      4  C   LIG    1      -22.710  78.868  34.615  0.00  0.00    +0.123 A 
ATOM      5  C   LIG    1      -21.336  78.996  34.492  0.00  0.00    +0.046 A 
ATOM      6  C   LIG    1      -20.683  80.050  35.134  0.00  0.00    +0.033 A 
ATOM      7  C   LIG    1      -21.389  81.004  35.839  0.00  0.00    +0.094 A 
ATOM      8  N   LIG    1      -20.705  82.008  36.420  0.00  0.00    -0.234 NA
ATOM      9  C   LIG    1      -21.422  82.937  37.052  0.00  0.00    +0.224 A 
ATOM     10  N   LIG    1      -22.759  82.935  37.164  0.00  0.00    -0.219 NA
ENDROOT
BRANCH   4  11
ATOM     11  N   LIG    1      -23.354  77.742  34.119  0.00  0.00    -0.308 N 
ATOM     12  C   LIG    1      -24.164  77.811  32.886  0.00  0.00    +0.108 C 
ATOM     13  C   LIG    1      -25.376  76.909  33.213  0.00  0.00    +0.029 C 
ATOM     14  C   LIG    1      -24.825  75.915  34.227  0.00  0.00    +0.021 C 
ATOM     15  C   LIG    1      -23.904  76.788  35.071  0.00  0.00    +0.107 C 
BRANCH  12  16
ATOM     16  C   LIG    1      -23.372  77.300  31.693  0.00  0.00    +0.011 A 
ATOM     17  C   LIG    1      -23.733  77.664  30.390  0.00  0.00    +0.129 A 
ATOM     18  F   LIG    1      -24.803  78.445  30.185  0.00  0.00    -0.205 F 
ATOM     19  C   LIG    1      -22.989  77.248  29.281  0.00  0.00    +0.041 A 
ATOM     20  C   LIG    1      -21.861  76.449  29.464  0.00  0.00    +0.041 A 
ATOM     21  C   LIG    1      -21.503  76.066  30.749  0.00  0.00    +0.124 A 
ATOM     22  F   LIG    1      -20.414  75.309  30.936  0.00  0.00    -0.205 F 
ATOM     23  C   LIG    1      -22.249  76.469  31.851  0.00  0.00    +0.046 A 
ENDBRANCH  12  16
ENDBRANCH   4  11
BRANCH   1  24
ATOM     24  N   LIG    1      -24.815  81.990  36.725  0.00  0.00    -0.322 N 
ATOM     25  H   LIG    1      -25.173  82.030  35.770  0.00  0.00    +0.148 HD
BRANCH  24  26
ATOM     26  C   LIG    1      -25.259  83.184  37.450  0.00  0.00    +0.160 C 
BRANCH  26  32
ATOM     27  C   LIG    1      -31.403  86.068  34.808  0.00  0.00    +0.053 C 
ATOM     28  C   LIG    1      -30.102  85.555  35.318  0.00  0.00    +0.007 A 
ATOM     29  S   LIG    1      -28.566  86.320  34.822  0.00  0.00    -0.055 S 
ATOM     30  C   LIG    1      -27.710  85.155  35.785  0.00  0.00    +0.178 A 
ATOM     31  N   LIG    1      -26.455  84.912  36.047  0.00  0.00    -0.225 NA
ATOM     32  C   LIG    1      -26.512  83.813  36.901  0.00  0.00    +0.078 A 
ATOM     33  C   LIG    1      -27.830  83.427  37.129  0.00  0.00    +0.118 A 
ATOM     34  N   LIG    1      -28.574  84.302  36.401  0.00  0.00    -0.300 N 
ATOM     35  C   LIG    1      -29.910  84.515  36.152  0.00  0.00    +0.103 A 
ENDBRANCH  26  32
ENDBRANCH  24  26
ENDBRANCH   1  24
TORSDOF 5
ENDMDL
