MODEL 1
REMARK VINA RESULT:      -6.4      0.000      0.000
REMARK  Name = pdb/CHEMBL3676036.pdb
REMARK                            x       y       z     vdW  Elec       q    Type
REMARK                         _______ _______ _______ _____ _____    ______ ____
ROOT
ATOM      1  C   LIG    1      -25.682  77.332  32.984  0.00  0.00    +0.100 A 
ATOM      2  C   LIG    1      -25.144  78.157  33.963  0.00  0.00    +0.170 A 
ATOM      3  N   LIG    1      -23.947  78.824  34.059  0.00  0.00    -0.212 NA
ATOM      4  C   LIG    1      -23.725  79.553  35.136  0.00  0.00    +0.126 A 
ATOM      5  C   LIG    1      -24.746  79.663  36.245  0.00  0.00    +0.063 A 
ATOM      6  C   LIG    1      -25.886  78.983  36.104  0.00  0.00    +0.118 A 
ATOM      7  N   LIG    1      -26.103  78.215  34.977  0.00  0.00    -0.221 N 
ATOM      8  N   LIG    1      -27.195  77.469  34.698  0.00  0.00    -0.173 NA
ATOM      9  C   LIG    1      -26.926  76.929  33.511  0.00  0.00    +0.150 A 
ENDROOT
BRANCH   4  10
ATOM     10  N   LIG    1      -22.522  80.240  35.264  0.00  0.00    -0.308 N 
ATOM     11  C   LIG    1      -21.334  79.645  35.915  0.00  0.00    +0.108 C 
ATOM     12  C   LIG    1      -20.838  80.787  36.816  0.00  0.00    +0.029 C 
ATOM     13  C   LIG    1      -21.117  82.020  35.977  0.00  0.00    +0.021 C 
ATOM     14  C   LIG    1      -22.495  81.705  35.406  0.00  0.00    +0.107 C 
BRANCH  11  15
ATOM     15  C   LIG    1      -20.299  79.148  34.918  0.00  0.00    +0.011 A 
ATOM     16  C   LIG    1      -19.086  78.626  35.393  0.00  0.00    +0.129 A 
ATOM     17  F   LIG    1      -18.869  78.549  36.714  0.00  0.00    -0.205 F 
ATOM     18  C   LIG    1      -18.089  78.165  34.532  0.00  0.00    +0.041 A 
ATOM     19  C   LIG    1      -18.301  78.196  33.156  0.00  0.00    +0.041 A 
ATOM     20  C   LIG    1      -19.513  78.669  32.668  0.00  0.00    +0.124 A 
ATOM     21  F   LIG    1      -19.734  78.669  31.347  0.00  0.00    -0.205 F 
ATOM     22  C   LIG    1      -20.505  79.140  33.529  0.00  0.00    +0.046 A 
ENDBRANCH  11  15
ENDBRANCH   4  10
BRANCH   1  25
ATOM     23  N   LIG    1      -23.831  76.437  31.787  0.00  0.00    -0.309 N 
ATOM     24  H   LIG    1      -23.380  76.404  32.697  0.00  0.00    +0.149 HD
ATOM     25  C   LIG    1      -25.106  76.943  31.719  0.00  0.00    +0.249 C 
ATOM     26  O   LIG    1      -25.707  77.104  30.652  0.00  0.00    -0.270 OA
BRANCH  23  27
ATOM     27  C   LIG    1      -23.113  75.987  30.605  0.00  0.00    +0.135 C 
BRANCH  27  29
ATOM     28  C   LIG    1      -21.092  76.642  29.240  0.00  0.00    +0.039 C 
ATOM     29  C   LIG    1      -22.362  77.138  29.918  0.00  0.00    +0.128 C 
BRANCH  29  30
ATOM     30  O   LIG    1      -23.195  77.728  28.912  0.00  0.00    -0.391 OA
ATOM     31  H   LIG    1      -22.738  78.542  28.632  0.00  0.00    +0.210 HD
ENDBRANCH  29  30
ENDBRANCH  27  29
ENDBRANCH  23  27
ENDBRANCH   1  25
TORSDOF 6
ENDMDL
MODEL 2
REMARK VINA RESULT:      -5.9      2.356      5.142
REMARK  Name = pdb/CHEMBL3676036.pdb
REMARK                            x       y       z     vdW  Elec       q    Type
REMARK                         _______ _______ _______ _____ _____    ______ ____
ROOT
ATOM      1  C   LIG    1      -22.806  76.811  30.416  0.00  0.00    +0.100 A 
ATOM      2  C   LIG    1      -21.916  77.404  31.301  0.00  0.00    +0.170 A 
ATOM      3  N   LIG    1      -22.081  77.976  32.539  0.00  0.00    -0.212 NA
ATOM      4  C   LIG    1      -21.015  78.457  33.150  0.00  0.00    +0.126 A 
ATOM      5  C   LIG    1      -19.642  78.392  32.521  0.00  0.00    +0.063 A 
ATOM      6  C   LIG    1      -19.543  77.837  31.310  0.00  0.00    +0.118 A 
ATOM      7  N   LIG    1      -20.668  77.346  30.677  0.00  0.00    -0.221 N 
ATOM      8  N   LIG    1      -20.727  76.770  29.456  0.00  0.00    -0.173 NA
ATOM      9  C   LIG    1      -22.015  76.469  29.300  0.00  0.00    +0.150 A 
ENDROOT
BRANCH   4  10
ATOM     10  N   LIG    1      -21.148  79.043  34.405  0.00  0.00    -0.308 N 
ATOM     11  C   LIG    1      -22.349  79.812  34.797  0.00  0.00    +0.108 C 
ATOM     12  C   LIG    1      -21.746  81.052  35.475  0.00  0.00    +0.029 C 
ATOM     13  C   LIG    1      -20.533  80.486  36.190  0.00  0.00    +0.021 C 
ATOM     14  C   LIG    1      -19.972  79.528  35.145  0.00  0.00    +0.107 C 
BRANCH  11  15
ATOM     15  C   LIG    1      -23.296  79.020  35.685  0.00  0.00    +0.011 A 
ATOM     16  C   LIG    1      -24.486  79.620  36.123  0.00  0.00    +0.129 A 
ATOM     17  F   LIG    1      -24.783  80.868  35.733  0.00  0.00    -0.205 F 
ATOM     18  C   LIG    1      -25.393  78.953  36.949  0.00  0.00    +0.041 A 
ATOM     19  C   LIG    1      -25.131  77.643  37.339  0.00  0.00    +0.041 A 
ATOM     20  C   LIG    1      -23.979  77.017  36.880  0.00  0.00    +0.124 A 
ATOM     21  F   LIG    1      -23.741  75.745  37.225  0.00  0.00    -0.205 F 
ATOM     22  C   LIG    1      -23.068  77.687  36.063  0.00  0.00    +0.046 A 
ENDBRANCH  11  15
ENDBRANCH   4  10
BRANCH   1  25
ATOM     23  N   LIG    1      -24.589  75.804  31.627  0.00  0.00    -0.309 N 
ATOM     24  H   LIG    1      -23.849  75.396  32.191  0.00  0.00    +0.149 HD
ATOM     25  C   LIG    1      -24.226  76.604  30.571  0.00  0.00    +0.249 C 
ATOM     26  O   LIG    1      -25.045  77.078  29.778  0.00  0.00    -0.270 OA
BRANCH  23  27
ATOM     27  C   LIG    1      -25.980  75.507  31.930  0.00  0.00    +0.135 C 
BRANCH  27  29
ATOM     28  C   LIG    1      -25.695  77.500  33.455  0.00  0.00    +0.039 C 
ATOM     29  C   LIG    1      -26.679  76.684  32.628  0.00  0.00    +0.128 C 
BRANCH  29  30
ATOM     30  O   LIG    1      -27.257  77.554  31.648  0.00  0.00    -0.391 OA
ATOM     31  H   LIG    1      -27.943  77.029  31.197  0.00  0.00    +0.210 HD
ENDBRANCH  29  30
ENDBRANCH  27  29
ENDBRANCH  23  27
ENDBRANCH   1  25
TORSDOF 6
ENDMDL
MODEL 3
REMARK VINA RESULT:      -5.7     18.227     21.458
REMARK  Name = pdb/CHEMBL3676036.pdb
REMARK                            x       y       z     vdW  Elec       q    Type
REMARK                         _______ _______ _______ _____ _____    ______ ____
ROOT
ATOM      1  C   LIG    1      -18.449  85.267  12.940  0.00  0.00    +0.100 A 
ATOM      2  C   LIG    1      -18.811  83.973  13.290  0.00  0.00    +0.170 A 
ATOM      3  N   LIG    1      -19.859  83.468  14.020  0.00  0.00    -0.212 NA
ATOM      4  C   LIG    1      -19.939  82.160  14.175  0.00  0.00    +0.126 A 
ATOM      5  C   LIG    1      -18.913  81.226  13.574  0.00  0.00    +0.063 A 
ATOM      6  C   LIG    1      -17.908  81.774  12.885  0.00  0.00    +0.118 A 
ATOM      7  N   LIG    1      -17.831  83.145  12.739  0.00  0.00    -0.221 N 
ATOM      8  N   LIG    1      -16.876  83.840  12.083  0.00  0.00    -0.173 NA
ATOM      9  C   LIG    1      -17.244  85.112  12.224  0.00  0.00    +0.150 A 
ENDROOT
BRANCH   4  10
ATOM     10  N   LIG    1      -20.988  81.617  14.909  0.00  0.00    -0.308 N 
ATOM     11  C   LIG    1      -22.239  82.361  15.173  0.00  0.00    +0.108 C 
ATOM     12  C   LIG    1      -22.480  82.091  16.667  0.00  0.00    +0.029 C 
ATOM     13  C   LIG    1      -22.010  80.657  16.828  0.00  0.00    +0.021 C 
ATOM     14  C   LIG    1      -20.737  80.649  15.989  0.00  0.00    +0.107 C 
BRANCH  11  15
ATOM     15  C   LIG    1      -23.386  81.929  14.273  0.00  0.00    +0.011 A 
ATOM     16  C   LIG    1      -23.558  82.563  13.033  0.00  0.00    +0.129 A 
ATOM     17  F   LIG    1      -22.697  83.516  12.649  0.00  0.00    -0.205 F 
ATOM     18  C   LIG    1      -24.597  82.222  12.164  0.00  0.00    +0.041 A 
ATOM     19  C   LIG    1      -25.484  81.209  12.518  0.00  0.00    +0.041 A 
ATOM     20  C   LIG    1      -25.303  80.541  13.722  0.00  0.00    +0.124 A 
ATOM     21  F   LIG    1      -26.134  79.543  14.051  0.00  0.00    -0.205 F 
ATOM     22  C   LIG    1      -24.271  80.888  14.595  0.00  0.00    +0.046 A 
ENDBRANCH  11  15
ENDBRANCH   4  10
BRANCH   1  25
ATOM     23  N   LIG    1      -19.892  86.485  14.389  0.00  0.00    -0.309 N 
ATOM     24  H   LIG    1      -19.957  85.611  14.902  0.00  0.00    +0.149 HD
ATOM     25  C   LIG    1      -19.124  86.505  13.250  0.00  0.00    +0.249 C 
ATOM     26  O   LIG    1      -19.048  87.491  12.511  0.00  0.00    -0.270 OA
BRANCH  23  27
ATOM     27  C   LIG    1      -20.626  87.652  14.848  0.00  0.00    +0.135 C 
BRANCH  27  29
ATOM     28  C   LIG    1      -22.729  86.441  14.152  0.00  0.00    +0.039 C 
ATOM     29  C   LIG    1      -22.077  87.308  15.219  0.00  0.00    +0.128 C 
BRANCH  29  30
ATOM     30  O   LIG    1      -22.102  86.581  16.453  0.00  0.00    -0.391 OA
ATOM     31  H   LIG    1      -21.321  85.997  16.433  0.00  0.00    +0.210 HD
ENDBRANCH  29  30
ENDBRANCH  27  29
ENDBRANCH  23  27
ENDBRANCH   1  25
TORSDOF 6
ENDMDL
MODEL 4
REMARK VINA RESULT:      -5.6      2.255      5.102
REMARK  Name = pdb/CHEMBL3676036.pdb
REMARK                            x       y       z     vdW  Elec       q    Type
REMARK                         _______ _______ _______ _____ _____    ______ ____
ROOT
ATOM      1  C   LIG    1      -23.084  77.153  30.672  0.00  0.00    +0.100 A 
ATOM      2  C   LIG    1      -22.042  77.478  31.531  0.00  0.00    +0.170 A 
ATOM      3  N   LIG    1      -22.013  77.874  32.846  0.00  0.00    -0.212 NA
ATOM      4  C   LIG    1      -20.839  78.106  33.401  0.00  0.00    +0.126 A 
ATOM      5  C   LIG    1      -19.550  77.948  32.627  0.00  0.00    +0.063 A 
ATOM      6  C   LIG    1      -19.639  77.573  31.349  0.00  0.00    +0.118 A 
ATOM      7  N   LIG    1      -20.875  77.343  30.776  0.00  0.00    -0.221 N 
ATOM      8  N   LIG    1      -21.124  76.971  29.501  0.00  0.00    -0.173 NA
ATOM      9  C   LIG    1      -22.451  76.878  29.442  0.00  0.00    +0.150 A 
ENDROOT
BRANCH   4  10
ATOM     10  N   LIG    1      -20.775  78.509  34.731  0.00  0.00    -0.308 N 
ATOM     11  C   LIG    1      -20.608  79.925  35.123  0.00  0.00    +0.108 C 
ATOM     12  C   LIG    1      -19.537  79.844  36.222  0.00  0.00    +0.029 C 
ATOM     13  C   LIG    1      -19.885  78.550  36.934  0.00  0.00    +0.021 C 
ATOM     14  C   LIG    1      -20.210  77.628  35.765  0.00  0.00    +0.107 C 
BRANCH  11  15
ATOM     15  C   LIG    1      -21.908  80.573  35.572  0.00  0.00    +0.011 A 
ATOM     16  C   LIG    1      -21.886  81.891  36.053  0.00  0.00    +0.129 A 
ATOM     17  F   LIG    1      -20.728  82.566  36.084  0.00  0.00    -0.205 F 
ATOM     18  C   LIG    1      -23.041  82.540  36.492  0.00  0.00    +0.041 A 
ATOM     19  C   LIG    1      -24.265  81.878  36.435  0.00  0.00    +0.041 A 
ATOM     20  C   LIG    1      -24.313  80.588  35.922  0.00  0.00    +0.124 A 
ATOM     21  F   LIG    1      -25.493  79.961  35.834  0.00  0.00    -0.205 F 
ATOM     22  C   LIG    1      -23.157  79.936  35.493  0.00  0.00    +0.046 A 
ENDBRANCH  11  15
ENDBRANCH   4  10
BRANCH   1  25
ATOM     23  N   LIG    1      -24.837  76.987  32.272  0.00  0.00    -0.309 N 
ATOM     24  H   LIG    1      -24.084  76.885  32.945  0.00  0.00    +0.149 HD
ATOM     25  C   LIG    1      -24.501  77.123  30.947  0.00  0.00    +0.249 C 
ATOM     26  O   LIG    1      -25.341  77.168  30.044  0.00  0.00    -0.270 OA
BRANCH  23  27
ATOM     27  C   LIG    1      -26.220  76.952  32.719  0.00  0.00    +0.135 C 
BRANCH  27  29
ATOM     28  C   LIG    1      -27.888  75.575  34.022  0.00  0.00    +0.039 C 
ATOM     29  C   LIG    1      -26.654  75.537  33.131  0.00  0.00    +0.128 C 
BRANCH  29  30
ATOM     30  O   LIG    1      -26.978  74.771  31.965  0.00  0.00    -0.391 OA
ATOM     31  H   LIG    1      -27.928  74.918  31.805  0.00  0.00    +0.210 HD
ENDBRANCH  29  30
ENDBRANCH  27  29
ENDBRANCH  23  27
ENDBRANCH   1  25
TORSDOF 6
ENDMDL
MODEL 5
REMARK VINA RESULT:      -5.5     17.587     20.697
REMARK  Name = pdb/CHEMBL3676036.pdb
REMARK                            x       y       z     vdW  Elec       q    Type
REMARK                         _______ _______ _______ _____ _____    ______ ____
ROOT
ATOM      1  C   LIG    1      -36.874  68.113  22.278  0.00  0.00    +0.100 A 
ATOM      2  C   LIG    1      -37.977  68.903  22.572  0.00  0.00    +0.170 A 
ATOM      3  N   LIG    1      -38.270  69.732  23.628  0.00  0.00    -0.212 NA
ATOM      4  C   LIG    1      -39.424  70.371  23.618  0.00  0.00    +0.126 A 
ATOM      5  C   LIG    1      -40.411  70.208  22.484  0.00  0.00    +0.063 A 
ATOM      6  C   LIG    1      -40.079  69.380  21.491  0.00  0.00    +0.118 A 
ATOM      7  N   LIG    1      -38.872  68.709  21.519  0.00  0.00    -0.221 N 
ATOM      8  N   LIG    1      -38.405  67.838  20.597  0.00  0.00    -0.173 NA
ATOM      9  C   LIG    1      -37.215  67.471  21.070  0.00  0.00    +0.150 A 
ENDROOT
BRANCH   4  10
ATOM     10  N   LIG    1      -39.751  71.216  24.673  0.00  0.00    -0.308 N 
ATOM     11  C   LIG    1      -38.963  72.427  24.992  0.00  0.00    +0.108 C 
ATOM     12  C   LIG    1      -38.826  72.344  26.520  0.00  0.00    +0.029 C 
ATOM     13  C   LIG    1      -40.165  71.771  26.946  0.00  0.00    +0.021 C 
ATOM     14  C   LIG    1      -40.397  70.698  25.889  0.00  0.00    +0.107 C 
BRANCH  11  15
ATOM     15  C   LIG    1      -39.618  73.707  24.498  0.00  0.00    +0.011 A 
ATOM     16  C   LIG    1      -38.940  74.926  24.653  0.00  0.00    +0.129 A 
ATOM     17  F   LIG    1      -37.720  74.941  25.207  0.00  0.00    -0.205 F 
ATOM     18  C   LIG    1      -39.490  76.139  24.233  0.00  0.00    +0.041 A 
ATOM     19  C   LIG    1      -40.740  76.150  23.619  0.00  0.00    +0.041 A 
ATOM     20  C   LIG    1      -41.407  74.948  23.417  0.00  0.00    +0.124 A 
ATOM     21  F   LIG    1      -42.593  74.952  22.797  0.00  0.00    -0.205 F 
ATOM     22  C   LIG    1      -40.862  73.738  23.847  0.00  0.00    +0.046 A 
ENDBRANCH  11  15
ENDBRANCH   4  10
BRANCH   1  25
ATOM     23  N   LIG    1      -35.785  68.112  24.394  0.00  0.00    -0.309 N 
ATOM     24  H   LIG    1      -36.699  68.364  24.758  0.00  0.00    +0.149 HD
ATOM     25  C   LIG    1      -35.656  67.950  23.036  0.00  0.00    +0.249 C 
ATOM     26  O   LIG    1      -34.572  67.727  22.488  0.00  0.00    -0.270 OA
BRANCH  23  27
ATOM     27  C   LIG    1      -34.658  67.969  25.301  0.00  0.00    +0.135 C 
BRANCH  27  29
ATOM     28  C   LIG    1      -35.221  70.356  25.901  0.00  0.00    +0.039 C 
ATOM     29  C   LIG    1      -34.106  69.331  25.750  0.00  0.00    +0.128 C 
BRANCH  29  30
ATOM     30  O   LIG    1      -33.458  69.197  27.020  0.00  0.00    -0.391 OA
ATOM     31  H   LIG    1      -32.502  69.170  26.830  0.00  0.00    +0.210 HD
ENDBRANCH  29  30
ENDBRANCH  27  29
ENDBRANCH  23  27
ENDBRANCH   1  25
TORSDOF 6
ENDMDL
MODEL 6
REMARK VINA RESULT:      -5.4     17.258     18.866
REMARK  Name = pdb/CHEMBL3676036.pdb
REMARK                            x       y       z     vdW  Elec       q    Type
REMARK                         _______ _______ _______ _____ _____    ______ ____
ROOT
ATOM      1  C   LIG    1      -22.907  80.700  15.664  0.00  0.00    +0.100 A 
ATOM      2  C   LIG    1      -21.821  79.835  15.626  0.00  0.00    +0.170 A 
ATOM      3  N   LIG    1      -21.684  78.536  15.200  0.00  0.00    -0.212 NA
ATOM      4  C   LIG    1      -20.494  77.974  15.285  0.00  0.00    +0.126 A 
ATOM      5  C   LIG    1      -19.301  78.722  15.835  0.00  0.00    +0.063 A 
ATOM      6  C   LIG    1      -19.495  79.977  16.246  0.00  0.00    +0.118 A 
ATOM      7  N   LIG    1      -20.749  80.551  16.161  0.00  0.00    -0.221 N 
ATOM      8  N   LIG    1      -21.100  81.799  16.543  0.00  0.00    -0.173 NA
ATOM      9  C   LIG    1      -22.399  81.873  16.258  0.00  0.00    +0.150 A 
ENDROOT
BRANCH   4  10
ATOM     10  N   LIG    1      -20.322  76.660  14.863  0.00  0.00    -0.308 N 
ATOM     11  C   LIG    1      -19.449  75.704  15.580  0.00  0.00    +0.108 C 
ATOM     12  C   LIG    1      -18.675  75.034  14.435  0.00  0.00    +0.029 C 
ATOM     13  C   LIG    1      -19.715  74.945  13.334  0.00  0.00    +0.021 C 
ATOM     14  C   LIG    1      -20.398  76.304  13.437  0.00  0.00    +0.107 C 
BRANCH  11  15
ATOM     15  C   LIG    1      -20.227  74.732  16.453  0.00  0.00    +0.011 A 
ATOM     16  C   LIG    1      -19.535  73.951  17.392  0.00  0.00    +0.129 A 
ATOM     17  F   LIG    1      -18.209  74.093  17.524  0.00  0.00    -0.205 F 
ATOM     18  C   LIG    1      -20.187  73.032  18.216  0.00  0.00    +0.041 A 
ATOM     19  C   LIG    1      -21.570  72.891  18.130  0.00  0.00    +0.041 A 
ATOM     20  C   LIG    1      -22.277  73.687  17.237  0.00  0.00    +0.124 A 
ATOM     21  F   LIG    1      -23.610  73.578  17.175  0.00  0.00    -0.205 F 
ATOM     22  C   LIG    1      -21.624  74.598  16.406  0.00  0.00    +0.046 A 
ENDBRANCH  11  15
ENDBRANCH   4  10
BRANCH   1  25
ATOM     23  N   LIG    1      -24.778  79.235  15.552  0.00  0.00    -0.309 N 
ATOM     24  H   LIG    1      -24.174  78.580  16.041  0.00  0.00    +0.149 HD
ATOM     25  C   LIG    1      -24.261  80.464  15.223  0.00  0.00    +0.249 C 
ATOM     26  O   LIG    1      -24.884  81.297  14.557  0.00  0.00    -0.270 OA
BRANCH  23  27
ATOM     27  C   LIG    1      -26.132  78.844  15.195  0.00  0.00    +0.135 C 
BRANCH  27  29
ATOM     28  C   LIG    1      -27.267  77.102  13.762  0.00  0.00    +0.039 C 
ATOM     29  C   LIG    1      -26.190  78.177  13.812  0.00  0.00    +0.128 C 
BRANCH  29  30
ATOM     30  O   LIG    1      -26.501  79.156  12.813  0.00  0.00    -0.391 OA
ATOM     31  H   LIG    1      -26.943  79.885  13.285  0.00  0.00    +0.210 HD
ENDBRANCH  29  30
ENDBRANCH  27  29
ENDBRANCH  23  27
ENDBRANCH   1  25
TORSDOF 6
ENDMDL
MODEL 7
REMARK VINA RESULT:      -5.4      2.179      4.905
REMARK  Name = pdb/CHEMBL3676036.pdb
REMARK                            x       y       z     vdW  Elec       q    Type
REMARK                         _______ _______ _______ _____ _____    ______ ____
ROOT
ATOM      1  C   LIG    1      -25.137  77.527  32.361  0.00  0.00    +0.100 A 
ATOM      2  C   LIG    1      -23.837  77.455  31.879  0.00  0.00    +0.170 A 
ATOM      3  N   LIG    1      -22.614  77.623  32.481  0.00  0.00    -0.212 NA
ATOM      4  C   LIG    1      -21.530  77.478  31.742  0.00  0.00    +0.126 A 
ATOM      5  C   LIG    1      -21.612  77.140  30.271  0.00  0.00    +0.063 A 
ATOM      6  C   LIG    1      -22.828  77.002  29.736  0.00  0.00    +0.118 A 
ATOM      7  N   LIG    1      -23.955  77.165  30.518  0.00  0.00    -0.221 N 
ATOM      8  N   LIG    1      -25.242  77.067  30.120  0.00  0.00    -0.173 NA
ATOM      9  C   LIG    1      -25.944  77.303  31.227  0.00  0.00    +0.150 A 
ENDROOT
BRANCH   4  10
ATOM     10  N   LIG    1      -20.276  77.642  32.322  0.00  0.00    -0.308 N 
ATOM     11  C   LIG    1      -19.949  78.794  33.190  0.00  0.00    +0.108 C 
ATOM     12  C   LIG    1      -18.569  79.225  32.667  0.00  0.00    +0.029 C 
ATOM     13  C   LIG    1      -17.914  77.902  32.319  0.00  0.00    +0.021 C 
ATOM     14  C   LIG    1      -19.061  77.150  31.653  0.00  0.00    +0.107 C 
BRANCH  11  15
ATOM     15  C   LIG    1      -19.968  78.444  34.670  0.00  0.00    +0.011 A 
ATOM     16  C   LIG    1      -20.101  79.473  35.615  0.00  0.00    +0.129 A 
ATOM     17  F   LIG    1      -20.234  80.741  35.200  0.00  0.00    -0.205 F 
ATOM     18  C   LIG    1      -20.114  79.222  36.988  0.00  0.00    +0.041 A 
ATOM     19  C   LIG    1      -20.016  77.912  37.448  0.00  0.00    +0.041 A 
ATOM     20  C   LIG    1      -19.928  76.876  36.526  0.00  0.00    +0.124 A 
ATOM     21  F   LIG    1      -19.868  75.611  36.964  0.00  0.00    -0.205 F 
ATOM     22  C   LIG    1      -19.904  77.127  35.154  0.00  0.00    +0.046 A 
ENDBRANCH  11  15
ENDBRANCH   4  10
BRANCH   1  25
ATOM     23  N   LIG    1      -24.592  78.112  34.602  0.00  0.00    -0.309 N 
ATOM     24  H   LIG    1      -23.632  78.105  34.269  0.00  0.00    +0.149 HD
ATOM     25  C   LIG    1      -25.584  77.793  33.708  0.00  0.00    +0.249 C 
ATOM     26  O   LIG    1      -26.771  77.690  34.032  0.00  0.00    -0.270 OA
BRANCH  23  27
ATOM     27  C   LIG    1      -24.875  78.420  35.994  0.00  0.00    +0.135 C 
BRANCH  27  29
ATOM     28  C   LIG    1      -23.611  80.501  35.321  0.00  0.00    +0.039 C 
ATOM     29  C   LIG    1      -24.576  79.891  36.328  0.00  0.00    +0.128 C 
BRANCH  29  30
ATOM     30  O   LIG    1      -25.789  80.652  36.291  0.00  0.00    -0.391 OA
ATOM     31  H   LIG    1      -25.790  81.190  37.103  0.00  0.00    +0.210 HD
ENDBRANCH  29  30
ENDBRANCH  27  29
ENDBRANCH  23  27
ENDBRANCH   1  25
TORSDOF 6
ENDMDL
MODEL 8
REMARK VINA RESULT:      -5.4     19.341     22.110
REMARK  Name = pdb/CHEMBL3676036.pdb
REMARK                            x       y       z     vdW  Elec       q    Type
REMARK                         _______ _______ _______ _____ _____    ______ ____
ROOT
ATOM      1  C   LIG    1      -26.155  85.604  10.534  0.00  0.00    +0.100 A 
ATOM      2  C   LIG    1      -25.169  86.367  11.144  0.00  0.00    +0.170 A 
ATOM      3  N   LIG    1      -24.134  86.043  11.988  0.00  0.00    -0.212 NA
ATOM      4  C   LIG    1      -23.340  87.012  12.402  0.00  0.00    +0.126 A 
ATOM      5  C   LIG    1      -23.549  88.447  11.974  0.00  0.00    +0.063 A 
ATOM      6  C   LIG    1      -24.579  88.706  11.164  0.00  0.00    +0.118 A 
ATOM      7  N   LIG    1      -25.409  87.684  10.745  0.00  0.00    -0.221 N 
ATOM      8  N   LIG    1      -26.488  87.791   9.939  0.00  0.00    -0.173 NA
ATOM      9  C   LIG    1      -26.940  86.543   9.833  0.00  0.00    +0.150 A 
ENDROOT
BRANCH   4  10
ATOM     10  N   LIG    1      -22.283  86.717  13.257  0.00  0.00    -0.308 N 
ATOM     11  C   LIG    1      -22.493  86.230  14.638  0.00  0.00    +0.108 C 
ATOM     12  C   LIG    1      -21.494  87.074  15.446  0.00  0.00    +0.029 C 
ATOM     13  C   LIG    1      -20.314  87.193  14.500  0.00  0.00    +0.021 C 
ATOM     14  C   LIG    1      -21.007  87.444  13.165  0.00  0.00    +0.107 C 
BRANCH  11  15
ATOM     15  C   LIG    1      -22.288  84.730  14.774  0.00  0.00    +0.011 A 
ATOM     16  C   LIG    1      -22.604  84.104  15.990  0.00  0.00    +0.129 A 
ATOM     17  F   LIG    1      -23.104  84.829  17.000  0.00  0.00    -0.205 F 
ATOM     18  C   LIG    1      -22.428  82.732  16.185  0.00  0.00    +0.041 A 
ATOM     19  C   LIG    1      -21.947  81.946  15.142  0.00  0.00    +0.041 A 
ATOM     20  C   LIG    1      -21.671  82.541  13.917  0.00  0.00    +0.124 A 
ATOM     21  F   LIG    1      -21.241  81.782  12.901  0.00  0.00    -0.205 F 
ATOM     22  C   LIG    1      -21.836  83.913  13.725  0.00  0.00    +0.046 A 
ENDBRANCH  11  15
ENDBRANCH   4  10
BRANCH   1  25
ATOM     23  N   LIG    1      -25.263  83.443  10.977  0.00  0.00    -0.309 N 
ATOM     24  H   LIG    1      -24.392  83.940  11.136  0.00  0.00    +0.149 HD
ATOM     25  C   LIG    1      -26.364  84.178  10.608  0.00  0.00    +0.249 C 
ATOM     26  O   LIG    1      -27.445  83.661  10.311  0.00  0.00    -0.270 OA
BRANCH  23  27
ATOM     27  C   LIG    1      -25.308  81.996  11.111  0.00  0.00    +0.135 C 
BRANCH  27  29
ATOM     28  C   LIG    1      -24.595  80.377  12.913  0.00  0.00    +0.039 C 
ATOM     29  C   LIG    1      -25.490  81.561  12.574  0.00  0.00    +0.128 C 
BRANCH  29  30
ATOM     30  O   LIG    1      -25.141  82.641  13.448  0.00  0.00    -0.391 OA
ATOM     31  H   LIG    1      -25.317  83.457  12.946  0.00  0.00    +0.210 HD
ENDBRANCH  29  30
ENDBRANCH  27  29
ENDBRANCH  23  27
ENDBRANCH   1  25
TORSDOF 6
ENDMDL
MODEL 9
REMARK VINA RESULT:      -5.3      2.118      4.689
REMARK  Name = pdb/CHEMBL3676036.pdb
REMARK                            x       y       z     vdW  Elec       q    Type
REMARK                         _______ _______ _______ _____ _____    ______ ____
ROOT
ATOM      1  C   LIG    1      -24.575  79.822  35.952  0.00  0.00    +0.100 A 
ATOM      2  C   LIG    1      -23.259  79.895  35.515  0.00  0.00    +0.170 A 
ATOM      3  N   LIG    1      -22.542  79.159  34.604  0.00  0.00    -0.212 NA
ATOM      4  C   LIG    1      -21.280  79.485  34.394  0.00  0.00    +0.126 A 
ATOM      5  C   LIG    1      -20.624  80.631  35.128  0.00  0.00    +0.063 A 
ATOM      6  C   LIG    1      -21.365  81.303  36.012  0.00  0.00    +0.118 A 
ATOM      7  N   LIG    1      -22.681  80.946  36.231  0.00  0.00    -0.221 N 
ATOM      8  N   LIG    1      -23.547  81.522  37.094  0.00  0.00    -0.173 NA
ATOM      9  C   LIG    1      -24.674  80.830  36.934  0.00  0.00    +0.150 A 
ENDROOT
BRANCH   4  10
ATOM     10  N   LIG    1      -20.527  78.758  33.477  0.00  0.00    -0.308 N 
ATOM     11  C   LIG    1      -20.558  77.281  33.420  0.00  0.00    +0.108 C 
ATOM     12  C   LIG    1      -19.069  76.919  33.296  0.00  0.00    +0.029 C 
ATOM     13  C   LIG    1      -18.525  78.033  32.421  0.00  0.00    +0.021 C 
ATOM     14  C   LIG    1      -19.227  79.256  32.999  0.00  0.00    +0.107 C 
BRANCH  11  15
ATOM     15  C   LIG    1      -21.419  76.750  32.284  0.00  0.00    +0.011 A 
ATOM     16  C   LIG    1      -21.739  75.384  32.248  0.00  0.00    +0.129 A 
ATOM     17  F   LIG    1      -21.305  74.575  33.225  0.00  0.00    -0.205 F 
ATOM     18  C   LIG    1      -22.516  74.831  31.228  0.00  0.00    +0.041 A 
ATOM     19  C   LIG    1      -23.014  75.653  30.221  0.00  0.00    +0.041 A 
ATOM     20  C   LIG    1      -22.744  77.015  30.264  0.00  0.00    +0.124 A 
ATOM     21  F   LIG    1      -23.250  77.815  29.315  0.00  0.00    -0.205 F 
ATOM     22  C   LIG    1      -21.960  77.567  31.277  0.00  0.00    +0.046 A 
ENDBRANCH  11  15
ENDBRANCH   4  10
BRANCH   1  25
ATOM     23  N   LIG    1      -25.409  78.315  34.310  0.00  0.00    -0.309 N 
ATOM     24  H   LIG    1      -24.577  78.574  33.788  0.00  0.00    +0.149 HD
ATOM     25  C   LIG    1      -25.614  78.914  35.530  0.00  0.00    +0.249 C 
ATOM     26  O   LIG    1      -26.634  78.733  36.202  0.00  0.00    -0.270 OA
BRANCH  23  27
ATOM     27  C   LIG    1      -26.353  77.365  33.746  0.00  0.00    +0.135 C 
BRANCH  27  29
ATOM     28  C   LIG    1      -26.170  75.388  32.186  0.00  0.00    +0.039 C 
ATOM     29  C   LIG    1      -25.917  76.880  32.355  0.00  0.00    +0.128 C 
BRANCH  29  30
ATOM     30  O   LIG    1      -26.664  77.570  31.345  0.00  0.00    -0.391 OA
ATOM     31  H   LIG    1      -26.894  78.435  31.729  0.00  0.00    +0.210 HD
ENDBRANCH  29  30
ENDBRANCH  27  29
ENDBRANCH  23  27
ENDBRANCH   1  25
TORSDOF 6
ENDMDL
