MODEL 1
REMARK VINA RESULT:      -6.1      0.000      0.000
REMARK  Name = pdb/CHEMBL3966928.pdb
REMARK                            x       y       z     vdW  Elec       q    Type
REMARK                         _______ _______ _______ _____ _____    ______ ____
ROOT
ATOM      1  C   LIG    1      -23.902  77.701  30.580  0.00  0.00    +0.148 A 
ATOM      2  N   LIG    1      -24.014  77.963  31.934  0.00  0.00    -0.197 N 
ATOM      3  N   LIG    1      -23.048  78.528  32.740  0.00  0.00    -0.148 NA
ATOM      4  C   LIG    1      -23.390  78.661  34.001  0.00  0.00    +0.143 A 
ATOM      5  C   LIG    1      -24.745  78.225  34.502  0.00  0.00    +0.049 A 
ATOM      6  C   LIG    1      -25.628  77.687  33.656  0.00  0.00    +0.051 A 
ATOM      7  C   LIG    1      -25.276  77.535  32.306  0.00  0.00    +0.156 A 
ATOM      8  N   LIG    1      -25.956  77.040  31.296  0.00  0.00    -0.233 NA
ATOM      9  C   LIG    1      -25.113  77.144  30.221  0.00  0.00    +0.157 A 
ENDROOT
BRANCH   4  10
ATOM     10  N   LIG    1      -22.489  79.228  34.906  0.00  0.00    -0.307 N 
ATOM     11  C   LIG    1      -21.195  79.816  34.491  0.00  0.00    +0.108 C 
ATOM     12  C   LIG    1      -20.995  81.040  35.405  0.00  0.00    +0.029 C 
ATOM     13  C   LIG    1      -22.354  81.267  36.046  0.00  0.00    +0.021 C 
ATOM     14  C   LIG    1      -22.918  79.861  36.153  0.00  0.00    +0.107 C 
BRANCH  11  15
ATOM     15  C   LIG    1      -20.046  78.836  34.623  0.00  0.00    +0.011 A 
ATOM     16  C   LIG    1      -19.131  78.709  33.569  0.00  0.00    +0.129 A 
ATOM     17  F   LIG    1      -19.287  79.449  32.463  0.00  0.00    -0.205 F 
ATOM     18  C   LIG    1      -18.053  77.826  33.635  0.00  0.00    +0.041 A 
ATOM     19  C   LIG    1      -17.865  77.052  34.778  0.00  0.00    +0.041 A 
ATOM     20  C   LIG    1      -18.750  77.185  35.841  0.00  0.00    +0.124 A 
ATOM     21  F   LIG    1      -18.561  76.457  36.949  0.00  0.00    -0.205 F 
ATOM     22  C   LIG    1      -19.829  78.065  35.776  0.00  0.00    +0.046 A 
ENDBRANCH  11  15
ENDBRANCH   4  10
BRANCH   1  23
ATOM     23  N   LIG    1      -22.761  77.937  29.883  0.00  0.00    -0.253 N 
ATOM     24  H   LIG    1      -22.681  78.829  29.399  0.00  0.00    +0.158 HD
BRANCH  23  25
ATOM     25  C   LIG    1      -21.627  77.190  29.847  0.00  0.00    +0.286 C 
ATOM     26  N   LIG    1      -20.664  77.171  30.720  0.00  0.00    -0.199 NA
BRANCH  26  27
ATOM     27  C   LIG    1      -19.598  76.259  30.724  0.00  0.00    +0.069 A 
ATOM     28  C   LIG    1      -19.654  75.006  31.351  0.00  0.00    +0.028 A 
ATOM     29  C   LIG    1      -18.557  74.142  31.348  0.00  0.00    +0.002 A 
ATOM     30  C   LIG    1      -17.353  74.548  30.782  0.00  0.00    +0.000 A 
ATOM     31  C   LIG    1      -17.250  75.821  30.226  0.00  0.00    +0.002 A 
ATOM     32  C   LIG    1      -18.365  76.667  30.194  0.00  0.00    +0.028 A 
ENDBRANCH  26  27
BRANCH  25  33
ATOM     33  O   LIG    1      -21.611  76.454  28.720  0.00  0.00    -0.481 OA
ATOM     34  H   LIG    1      -21.932  75.561  28.912  0.00  0.00    +0.295 HD
ENDBRANCH  25  33
ENDBRANCH  23  25
ENDBRANCH   1  23
TORSDOF 6
ENDMDL
MODEL 2
REMARK VINA RESULT:      -5.9     20.424     23.165
REMARK  Name = pdb/CHEMBL3966928.pdb
REMARK                            x       y       z     vdW  Elec       q    Type
REMARK                         _______ _______ _______ _____ _____    ______ ____
ROOT
ATOM      1  C   LIG    1      -21.311  86.977  14.529  0.00  0.00    +0.148 A 
ATOM      2  N   LIG    1      -21.635  87.619  13.347  0.00  0.00    -0.197 N 
ATOM      3  N   LIG    1      -22.906  87.873  12.875  0.00  0.00    -0.148 NA
ATOM      4  C   LIG    1      -22.952  88.486  11.714  0.00  0.00    +0.143 A 
ATOM      5  C   LIG    1      -21.694  88.877  10.978  0.00  0.00    +0.049 A 
ATOM      6  C   LIG    1      -20.498  88.598  11.503  0.00  0.00    +0.051 A 
ATOM      7  C   LIG    1      -20.433  87.940  12.741  0.00  0.00    +0.156 A 
ATOM      8  N   LIG    1      -19.395  87.559  13.452  0.00  0.00    -0.233 NA
ATOM      9  C   LIG    1      -19.932  86.966  14.566  0.00  0.00    +0.157 A 
ENDROOT
BRANCH   4  10
ATOM     10  N   LIG    1      -24.189  88.797  11.145  0.00  0.00    -0.307 N 
ATOM     11  C   LIG    1      -24.406  89.987  10.292  0.00  0.00    +0.108 C 
ATOM     12  C   LIG    1      -25.394  89.530   9.202  0.00  0.00    +0.029 C 
ATOM     13  C   LIG    1      -25.406  88.014   9.306  0.00  0.00    +0.021 C 
ATOM     14  C   LIG    1      -25.171  87.773  10.787  0.00  0.00    +0.107 C 
BRANCH  11  15
ATOM     15  C   LIG    1      -24.953  91.165  11.072  0.00  0.00    +0.011 A 
ATOM     16  C   LIG    1      -24.670  92.467  10.636  0.00  0.00    +0.129 A 
ATOM     17  F   LIG    1      -23.920  92.650   9.541  0.00  0.00    -0.205 F 
ATOM     18  C   LIG    1      -25.148  93.589  11.312  0.00  0.00    +0.041 A 
ATOM     19  C   LIG    1      -25.938  93.425  12.447  0.00  0.00    +0.041 A 
ATOM     20  C   LIG    1      -26.248  92.141  12.879  0.00  0.00    +0.124 A 
ATOM     21  F   LIG    1      -27.022  91.979  13.959  0.00  0.00    -0.205 F 
ATOM     22  C   LIG    1      -25.769  91.018  12.206  0.00  0.00    +0.046 A 
ENDBRANCH  11  15
ENDBRANCH   4  10
BRANCH   1  23
ATOM     23  N   LIG    1      -22.253  86.462  15.361  0.00  0.00    -0.253 N 
ATOM     24  H   LIG    1      -22.952  87.102  15.734  0.00  0.00    +0.158 HD
BRANCH  23  25
ATOM     25  C   LIG    1      -22.482  85.159  15.669  0.00  0.00    +0.286 C 
ATOM     26  N   LIG    1      -22.379  84.130  14.880  0.00  0.00    -0.199 NA
BRANCH  26  27
ATOM     27  C   LIG    1      -22.460  82.791  15.289  0.00  0.00    +0.069 A 
ATOM     28  C   LIG    1      -21.409  82.110  15.918  0.00  0.00    +0.028 A 
ATOM     29  C   LIG    1      -21.530  80.767  16.285  0.00  0.00    +0.002 A 
ATOM     30  C   LIG    1      -22.681  80.058  15.959  0.00  0.00    +0.000 A 
ATOM     31  C   LIG    1      -23.705  80.693  15.261  0.00  0.00    +0.002 A 
ATOM     32  C   LIG    1      -23.596  82.049  14.932  0.00  0.00    +0.028 A 
ENDBRANCH  26  27
BRANCH  25  33
ATOM     33  O   LIG    1      -22.875  85.064  16.952  0.00  0.00    -0.481 OA
ATOM     34  H   LIG    1      -22.817  84.142  17.241  0.00  0.00    +0.295 HD
ENDBRANCH  25  33
ENDBRANCH  23  25
ENDBRANCH   1  23
TORSDOF 6
ENDMDL
MODEL 3
REMARK VINA RESULT:      -5.9     12.737     16.671
REMARK  Name = pdb/CHEMBL3966928.pdb
REMARK                            x       y       z     vdW  Elec       q    Type
REMARK                         _______ _______ _______ _____ _____    ______ ____
ROOT
ATOM      1  C   LIG    1      -38.549  78.603  26.733  0.00  0.00    +0.148 A 
ATOM      2  N   LIG    1      -37.462  78.631  27.589  0.00  0.00    -0.197 N 
ATOM      3  N   LIG    1      -36.147  78.394  27.250  0.00  0.00    -0.148 NA
ATOM      4  C   LIG    1      -35.297  78.465  28.248  0.00  0.00    +0.143 A 
ATOM      5  C   LIG    1      -35.752  78.790  29.650  0.00  0.00    +0.049 A 
ATOM      6  C   LIG    1      -37.046  79.009  29.898  0.00  0.00    +0.051 A 
ATOM      7  C   LIG    1      -37.967  78.933  28.842  0.00  0.00    +0.156 A 
ATOM      8  N   LIG    1      -39.271  79.102  28.831  0.00  0.00    -0.233 NA
ATOM      9  C   LIG    1      -39.639  78.905  27.525  0.00  0.00    +0.157 A 
ENDROOT
BRANCH   4  10
ATOM     10  N   LIG    1      -33.937  78.248  28.016  0.00  0.00    -0.307 N 
ATOM     11  C   LIG    1      -33.422  77.052  27.312  0.00  0.00    +0.108 C 
ATOM     12  C   LIG    1      -32.235  77.556  26.470  0.00  0.00    +0.029 C 
ATOM     13  C   LIG    1      -32.370  79.070  26.486  0.00  0.00    +0.021 C 
ATOM     14  C   LIG    1      -32.981  79.343  27.849  0.00  0.00    +0.107 C 
BRANCH  11  15
ATOM     15  C   LIG    1      -32.993  75.957  28.269  0.00  0.00    +0.011 A 
ATOM     16  C   LIG    1      -33.757  74.785  28.354  0.00  0.00    +0.129 A 
ATOM     17  F   LIG    1      -34.853  74.651  27.595  0.00  0.00    -0.205 F 
ATOM     18  C   LIG    1      -33.409  73.743  29.215  0.00  0.00    +0.041 A 
ATOM     19  C   LIG    1      -32.270  73.855  30.007  0.00  0.00    +0.041 A 
ATOM     20  C   LIG    1      -31.489  75.002  29.916  0.00  0.00    +0.124 A 
ATOM     21  F   LIG    1      -30.382  75.105  30.663  0.00  0.00    -0.205 F 
ATOM     22  C   LIG    1      -31.836  76.044  29.059  0.00  0.00    +0.046 A 
ENDBRANCH  11  15
ENDBRANCH   4  10
BRANCH   1  23
ATOM     23  N   LIG    1      -38.435  78.275  25.420  0.00  0.00    -0.253 N 
ATOM     24  H   LIG    1      -37.930  78.920  24.816  0.00  0.00    +0.158 HD
BRANCH  23  25
ATOM     25  C   LIG    1      -38.793  77.115  24.809  0.00  0.00    +0.286 C 
ATOM     26  N   LIG    1      -39.024  75.965  25.368  0.00  0.00    -0.199 NA
BRANCH  26  27
ATOM     27  C   LIG    1      -39.554  74.843  24.714  0.00  0.00    +0.069 A 
ATOM     28  C   LIG    1      -40.809  74.835  24.089  0.00  0.00    +0.028 A 
ATOM     29  C   LIG    1      -41.305  73.685  23.470  0.00  0.00    +0.002 A 
ATOM     30  C   LIG    1      -40.586  72.496  23.533  0.00  0.00    +0.000 A 
ATOM     31  C   LIG    1      -39.375  72.461  24.220  0.00  0.00    +0.002 A 
ATOM     32  C   LIG    1      -38.863  73.626  24.802  0.00  0.00    +0.028 A 
ENDBRANCH  26  27
BRANCH  25  33
ATOM     33  O   LIG    1      -38.854  77.311  23.479  0.00  0.00    -0.481 OA
ATOM     34  H   LIG    1      -39.757  77.152  23.169  0.00  0.00    +0.295 HD
ENDBRANCH  25  33
ENDBRANCH  23  25
ENDBRANCH   1  23
TORSDOF 6
ENDMDL
MODEL 4
REMARK VINA RESULT:      -5.7      2.261      5.496
REMARK  Name = pdb/CHEMBL3966928.pdb
REMARK                            x       y       z     vdW  Elec       q    Type
REMARK                         _______ _______ _______ _____ _____    ______ ____
ROOT
ATOM      1  C   LIG    1      -19.980  77.574  30.609  0.00  0.00    +0.148 A 
ATOM      2  N   LIG    1      -19.727  77.971  31.911  0.00  0.00    -0.197 N 
ATOM      3  N   LIG    1      -20.573  78.691  32.726  0.00  0.00    -0.148 NA
ATOM      4  C   LIG    1      -20.096  78.958  33.920  0.00  0.00    +0.143 A 
ATOM      5  C   LIG    1      -18.724  78.493  34.343  0.00  0.00    +0.049 A 
ATOM      6  C   LIG    1      -17.964  77.796  33.495  0.00  0.00    +0.051 A 
ATOM      7  C   LIG    1      -18.459  77.507  32.214  0.00  0.00    +0.156 A 
ATOM      8  N   LIG    1      -17.912  76.851  31.214  0.00  0.00    -0.233 NA
ATOM      9  C   LIG    1      -18.852  76.883  30.217  0.00  0.00    +0.157 A 
ENDROOT
BRANCH   4  10
ATOM     10  N   LIG    1      -20.873  79.679  34.830  0.00  0.00    -0.307 N 
ATOM     11  C   LIG    1      -21.504  79.059  36.017  0.00  0.00    +0.108 C 
ATOM     12  C   LIG    1      -21.405  80.120  37.130  0.00  0.00    +0.029 C 
ATOM     13  C   LIG    1      -20.416  81.143  36.597  0.00  0.00    +0.021 C 
ATOM     14  C   LIG    1      -20.656  81.101  35.098  0.00  0.00    +0.107 C 
BRANCH  11  15
ATOM     15  C   LIG    1      -22.944  78.659  35.764  0.00  0.00    +0.011 A 
ATOM     16  C   LIG    1      -23.217  77.410  35.191  0.00  0.00    +0.129 A 
ATOM     17  F   LIG    1      -22.204  76.591  34.873  0.00  0.00    -0.205 F 
ATOM     18  C   LIG    1      -24.521  76.987  34.936  0.00  0.00    +0.041 A 
ATOM     19  C   LIG    1      -25.591  77.816  35.266  0.00  0.00    +0.041 A 
ATOM     20  C   LIG    1      -25.338  79.048  35.857  0.00  0.00    +0.124 A 
ATOM     21  F   LIG    1      -26.364  79.840  36.193  0.00  0.00    -0.205 F 
ATOM     22  C   LIG    1      -24.035  79.473  36.110  0.00  0.00    +0.046 A 
ENDBRANCH  11  15
ENDBRANCH   4  10
BRANCH   1  23
ATOM     23  N   LIG    1      -21.120  77.913  29.953  0.00  0.00    -0.253 N 
ATOM     24  H   LIG    1      -21.038  78.555  29.167  0.00  0.00    +0.158 HD
BRANCH  23  25
ATOM     25  C   LIG    1      -22.368  77.400  30.115  0.00  0.00    +0.286 C 
ATOM     26  N   LIG    1      -22.827  76.744  31.139  0.00  0.00    -0.199 NA
BRANCH  26  27
ATOM     27  C   LIG    1      -24.169  76.384  31.330  0.00  0.00    +0.069 A 
ATOM     28  C   LIG    1      -25.199  77.315  31.522  0.00  0.00    +0.028 A 
ATOM     29  C   LIG    1      -26.518  76.907  31.732  0.00  0.00    +0.002 A 
ATOM     30  C   LIG    1      -26.820  75.552  31.830  0.00  0.00    +0.000 A 
ATOM     31  C   LIG    1      -25.798  74.611  31.725  0.00  0.00    +0.002 A 
ATOM     32  C   LIG    1      -24.484  75.025  31.473  0.00  0.00    +0.028 A 
ENDBRANCH  26  27
BRANCH  25  33
ATOM     33  O   LIG    1      -23.099  77.644  29.012  0.00  0.00    -0.481 OA
ATOM     34  H   LIG    1      -23.632  76.864  28.798  0.00  0.00    +0.295 HD
ENDBRANCH  25  33
ENDBRANCH  23  25
ENDBRANCH   1  23
TORSDOF 6
ENDMDL
MODEL 5
REMARK VINA RESULT:      -5.7      3.133      7.320
REMARK  Name = pdb/CHEMBL3966928.pdb
REMARK                            x       y       z     vdW  Elec       q    Type
REMARK                         _______ _______ _______ _____ _____    ______ ____
ROOT
ATOM      1  C   LIG    1      -22.697  80.286  35.116  0.00  0.00    +0.148 A 
ATOM      2  N   LIG    1      -21.869  79.495  34.340  0.00  0.00    -0.197 N 
ATOM      3  N   LIG    1      -22.263  78.633  33.339  0.00  0.00    -0.148 NA
ATOM      4  C   LIG    1      -21.284  77.978  32.756  0.00  0.00    +0.143 A 
ATOM      5  C   LIG    1      -19.846  78.178  33.168  0.00  0.00    +0.049 A 
ATOM      6  C   LIG    1      -19.545  79.034  34.148  0.00  0.00    +0.051 A 
ATOM      7  C   LIG    1      -20.580  79.738  34.782  0.00  0.00    +0.156 A 
ATOM      8  N   LIG    1      -20.542  80.619  35.758  0.00  0.00    -0.233 NA
ATOM      9  C   LIG    1      -21.851  80.968  35.967  0.00  0.00    +0.157 A 
ENDROOT
BRANCH   4  10
ATOM     10  N   LIG    1      -21.570  77.083  31.723  0.00  0.00    -0.307 N 
ATOM     11  C   LIG    1      -22.694  77.276  30.778  0.00  0.00    +0.108 C 
ATOM     12  C   LIG    1      -22.169  76.779  29.418  0.00  0.00    +0.029 C 
ATOM     13  C   LIG    1      -20.666  76.656  29.608  0.00  0.00    +0.021 C 
ATOM     14  C   LIG    1      -20.538  76.275  31.073  0.00  0.00    +0.107 C 
BRANCH  11  15
ATOM     15  C   LIG    1      -23.939  76.521  31.198  0.00  0.00    +0.011 A 
ATOM     16  C   LIG    1      -25.191  77.137  31.064  0.00  0.00    +0.129 A 
ATOM     17  F   LIG    1      -25.268  78.381  30.572  0.00  0.00    -0.205 F 
ATOM     18  C   LIG    1      -26.371  76.490  31.431  0.00  0.00    +0.041 A 
ATOM     19  C   LIG    1      -26.317  75.194  31.936  0.00  0.00    +0.041 A 
ATOM     20  C   LIG    1      -25.086  74.560  32.053  0.00  0.00    +0.124 A 
ATOM     21  F   LIG    1      -25.032  73.306  32.520  0.00  0.00    -0.205 F 
ATOM     22  C   LIG    1      -23.905  75.206  31.688  0.00  0.00    +0.046 A 
ENDBRANCH  11  15
ENDBRANCH   4  10
BRANCH   1  23
ATOM     23  N   LIG    1      -24.050  80.258  35.000  0.00  0.00    -0.253 N 
ATOM     24  H   LIG    1      -24.496  81.029  34.507  0.00  0.00    +0.158 HD
BRANCH  23  25
ATOM     25  C   LIG    1      -24.903  79.257  35.341  0.00  0.00    +0.286 C 
ATOM     26  N   LIG    1      -25.545  78.458  34.541  0.00  0.00    -0.199 NA
BRANCH  26  27
ATOM     27  C   LIG    1      -26.279  77.334  34.945  0.00  0.00    +0.069 A 
ATOM     28  C   LIG    1      -25.688  76.132  35.361  0.00  0.00    +0.028 A 
ATOM     29  C   LIG    1      -26.463  75.031  35.731  0.00  0.00    +0.002 A 
ATOM     30  C   LIG    1      -27.849  75.086  35.618  0.00  0.00    +0.000 A 
ATOM     31  C   LIG    1      -28.453  76.241  35.128  0.00  0.00    +0.002 A 
ATOM     32  C   LIG    1      -27.674  77.356  34.798  0.00  0.00    +0.028 A 
ENDBRANCH  26  27
BRANCH  25  33
ATOM     33  O   LIG    1      -25.029  79.213  36.680  0.00  0.00    -0.481 OA
ATOM     34  H   LIG    1      -25.937  78.969  36.912  0.00  0.00    +0.295 HD
ENDBRANCH  25  33
ENDBRANCH  23  25
ENDBRANCH   1  23
TORSDOF 6
ENDMDL
MODEL 6
REMARK VINA RESULT:      -5.7     15.540     17.423
REMARK  Name = pdb/CHEMBL3966928.pdb
REMARK                            x       y       z     vdW  Elec       q    Type
REMARK                         _______ _______ _______ _____ _____    ______ ____
ROOT
ATOM      1  C   LIG    1      -24.348  76.079  14.016  0.00  0.00    +0.148 A 
ATOM      2  N   LIG    1      -24.255  77.372  14.499  0.00  0.00    -0.197 N 
ATOM      3  N   LIG    1      -23.113  77.995  14.956  0.00  0.00    -0.148 NA
ATOM      4  C   LIG    1      -23.287  79.227  15.379  0.00  0.00    +0.143 A 
ATOM      5  C   LIG    1      -24.644  79.887  15.349  0.00  0.00    +0.049 A 
ATOM      6  C   LIG    1      -25.703  79.216  14.888  0.00  0.00    +0.051 A 
ATOM      7  C   LIG    1      -25.533  77.899  14.436  0.00  0.00    +0.156 A 
ATOM      8  N   LIG    1      -26.405  77.044  13.948  0.00  0.00    -0.233 NA
ATOM      9  C   LIG    1      -25.676  75.914  13.679  0.00  0.00    +0.157 A 
ENDROOT
BRANCH   4  10
ATOM     10  N   LIG    1      -22.195  79.953  15.859  0.00  0.00    -0.307 N 
ATOM     11  C   LIG    1      -20.993  80.235  15.042  0.00  0.00    +0.108 C 
ATOM     12  C   LIG    1      -20.558  81.658  15.438  0.00  0.00    +0.029 C 
ATOM     13  C   LIG    1      -21.743  82.223  16.203  0.00  0.00    +0.021 C 
ATOM     14  C   LIG    1      -22.329  80.995  16.878  0.00  0.00    +0.107 C 
BRANCH  11  15
ATOM     15  C   LIG    1      -19.883  79.232  15.282  0.00  0.00    +0.011 A 
ATOM     16  C   LIG    1      -19.114  78.788  14.198  0.00  0.00    +0.129 A 
ATOM     17  F   LIG    1      -19.374  79.252  12.968  0.00  0.00    -0.205 F 
ATOM     18  C   LIG    1      -18.078  77.868  14.359  0.00  0.00    +0.041 A 
ATOM     19  C   LIG    1      -17.783  77.378  15.629  0.00  0.00    +0.041 A 
ATOM     20  C   LIG    1      -18.520  77.827  16.718  0.00  0.00    +0.124 A 
ATOM     21  F   LIG    1      -18.227  77.373  17.943  0.00  0.00    -0.205 F 
ATOM     22  C   LIG    1      -19.558  78.744  16.558  0.00  0.00    +0.046 A 
ENDBRANCH  11  15
ENDBRANCH   4  10
BRANCH   1  23
ATOM     23  N   LIG    1      -23.285  75.233  13.988  0.00  0.00    -0.253 N 
ATOM     24  H   LIG    1      -22.664  75.284  13.183  0.00  0.00    +0.158 HD
BRANCH  23  25
ATOM     25  C   LIG    1      -22.847  74.399  14.968  0.00  0.00    +0.286 C 
ATOM     26  N   LIG    1      -22.257  74.726  16.079  0.00  0.00    -0.199 NA
BRANCH  26  27
ATOM     27  C   LIG    1      -21.978  73.844  17.132  0.00  0.00    +0.069 A 
ATOM     28  C   LIG    1      -22.931  73.448  18.082  0.00  0.00    +0.028 A 
ATOM     29  C   LIG    1      -22.599  72.584  19.129  0.00  0.00    +0.002 A 
ATOM     30  C   LIG    1      -21.284  72.160  19.290  0.00  0.00    +0.000 A 
ATOM     31  C   LIG    1      -20.304  72.607  18.406  0.00  0.00    +0.002 A 
ATOM     32  C   LIG    1      -20.651  73.439  17.335  0.00  0.00    +0.028 A 
ENDBRANCH  26  27
BRANCH  25  33
ATOM     33  O   LIG    1      -23.089  73.124  14.612  0.00  0.00    -0.481 OA
ATOM     34  H   LIG    1      -22.290  72.594  14.746  0.00  0.00    +0.295 HD
ENDBRANCH  25  33
ENDBRANCH  23  25
ENDBRANCH   1  23
TORSDOF 6
ENDMDL
MODEL 7
REMARK VINA RESULT:      -5.6     17.487     19.769
REMARK  Name = pdb/CHEMBL3966928.pdb
REMARK                            x       y       z     vdW  Elec       q    Type
REMARK                         _______ _______ _______ _____ _____    ______ ____
ROOT
ATOM      1  C   LIG    1      -27.627  77.142  13.583  0.00  0.00    +0.148 A 
ATOM      2  N   LIG    1      -27.580  75.759  13.560  0.00  0.00    -0.197 N 
ATOM      3  N   LIG    1      -27.011  74.945  14.515  0.00  0.00    -0.148 NA
ATOM      4  C   LIG    1      -27.081  73.658  14.258  0.00  0.00    +0.143 A 
ATOM      5  C   LIG    1      -27.745  73.140  13.005  0.00  0.00    +0.049 A 
ATOM      6  C   LIG    1      -28.276  73.995  12.128  0.00  0.00    +0.051 A 
ATOM      7  C   LIG    1      -28.205  75.372  12.388  0.00  0.00    +0.156 A 
ATOM      8  N   LIG    1      -28.643  76.397  11.690  0.00  0.00    -0.233 NA
ATOM      9  C   LIG    1      -28.293  77.498  12.427  0.00  0.00    +0.157 A 
ENDROOT
BRANCH   4  10
ATOM     10  N   LIG    1      -26.541  72.741  15.162  0.00  0.00    -0.307 N 
ATOM     11  C   LIG    1      -27.005  71.339  15.260  0.00  0.00    +0.108 C 
ATOM     12  C   LIG    1      -25.738  70.511  15.544  0.00  0.00    +0.029 C 
ATOM     13  C   LIG    1      -24.587  71.458  15.246  0.00  0.00    +0.021 C 
ATOM     14  C   LIG    1      -25.155  72.814  15.625  0.00  0.00    +0.107 C 
BRANCH  11  15
ATOM     15  C   LIG    1      -28.043  71.148  16.348  0.00  0.00    +0.011 A 
ATOM     16  C   LIG    1      -29.389  70.992  15.991  0.00  0.00    +0.129 A 
ATOM     17  F   LIG    1      -29.739  71.019  14.698  0.00  0.00    -0.205 F 
ATOM     18  C   LIG    1      -30.387  70.811  16.948  0.00  0.00    +0.041 A 
ATOM     19  C   LIG    1      -30.048  70.771  18.298  0.00  0.00    +0.041 A 
ATOM     20  C   LIG    1      -28.714  70.900  18.668  0.00  0.00    +0.124 A 
ATOM     21  F   LIG    1      -28.381  70.842  19.963  0.00  0.00    -0.205 F 
ATOM     22  C   LIG    1      -27.716  71.083  17.712  0.00  0.00    +0.046 A 
ENDBRANCH  11  15
ENDBRANCH   4  10
BRANCH   1  23
ATOM     23  N   LIG    1      -27.048  77.876  14.568  0.00  0.00    -0.253 N 
ATOM     24  H   LIG    1      -27.425  77.780  15.509  0.00  0.00    +0.158 HD
BRANCH  23  25
ATOM     25  C   LIG    1      -25.925  78.637  14.501  0.00  0.00    +0.286 C 
ATOM     26  N   LIG    1      -25.696  79.764  15.106  0.00  0.00    -0.199 NA
BRANCH  26  27
ATOM     27  C   LIG    1      -24.459  80.424  15.138  0.00  0.00    +0.069 A 
ATOM     28  C   LIG    1      -24.111  81.458  14.257  0.00  0.00    +0.028 A 
ATOM     29  C   LIG    1      -22.856  82.069  14.313  0.00  0.00    +0.002 A 
ATOM     30  C   LIG    1      -21.894  81.604  15.204  0.00  0.00    +0.000 A 
ATOM     31  C   LIG    1      -22.190  80.523  16.032  0.00  0.00    +0.002 A 
ATOM     32  C   LIG    1      -23.464  79.942  16.001  0.00  0.00    +0.028 A 
ENDBRANCH  26  27
BRANCH  25  33
ATOM     33  O   LIG    1      -25.044  78.061  13.662  0.00  0.00    -0.481 OA
ATOM     34  H   LIG    1      -25.351  77.172  13.432  0.00  0.00    +0.295 HD
ENDBRANCH  25  33
ENDBRANCH  23  25
ENDBRANCH   1  23
TORSDOF 6
ENDMDL
MODEL 8
REMARK VINA RESULT:      -5.5      2.843      5.704
REMARK  Name = pdb/CHEMBL3966928.pdb
REMARK                            x       y       z     vdW  Elec       q    Type
REMARK                         _______ _______ _______ _____ _____    ______ ____
ROOT
ATOM      1  C   LIG    1      -24.009  80.546  35.853  0.00  0.00    +0.148 A 
ATOM      2  N   LIG    1      -24.803  79.495  35.429  0.00  0.00    -0.197 N 
ATOM      3  N   LIG    1      -24.707  78.830  34.226  0.00  0.00    -0.148 NA
ATOM      4  C   LIG    1      -25.589  77.873  34.051  0.00  0.00    +0.143 A 
ATOM      5  C   LIG    1      -26.616  77.544  35.107  0.00  0.00    +0.049 A 
ATOM      6  C   LIG    1      -26.644  78.234  36.250  0.00  0.00    +0.051 A 
ATOM      7  C   LIG    1      -25.709  79.262  36.449  0.00  0.00    +0.156 A 
ATOM      8  N   LIG    1      -25.536  80.073  37.470  0.00  0.00    -0.233 NA
ATOM      9  C   LIG    1      -24.480  80.869  37.110  0.00  0.00    +0.157 A 
ENDROOT
BRANCH   4  10
ATOM     10  N   LIG    1      -25.578  77.130  32.868  0.00  0.00    -0.307 N 
ATOM     11  C   LIG    1      -24.816  75.870  32.716  0.00  0.00    +0.108 C 
ATOM     12  C   LIG    1      -25.700  74.964  31.839  0.00  0.00    +0.029 C 
ATOM     13  C   LIG    1      -27.061  75.641  31.838  0.00  0.00    +0.021 C 
ATOM     14  C   LIG    1      -26.707  77.115  31.936  0.00  0.00    +0.107 C 
BRANCH  11  15
ATOM     15  C   LIG    1      -23.456  76.090  32.084  0.00  0.00    +0.011 A 
ATOM     16  C   LIG    1      -22.342  76.297  32.909  0.00  0.00    +0.129 A 
ATOM     17  F   LIG    1      -22.496  76.300  34.240  0.00  0.00    -0.205 F 
ATOM     18  C   LIG    1      -21.066  76.502  32.384  0.00  0.00    +0.041 A 
ATOM     19  C   LIG    1      -20.880  76.494  31.004  0.00  0.00    +0.041 A 
ATOM     20  C   LIG    1      -21.970  76.267  30.173  0.00  0.00    +0.124 A 
ATOM     21  F   LIG    1      -21.791  76.239  28.846  0.00  0.00    -0.205 F 
ATOM     22  C   LIG    1      -23.246  76.063  30.696  0.00  0.00    +0.046 A 
ENDBRANCH  11  15
ENDBRANCH   4  10
BRANCH   1  23
ATOM     23  N   LIG    1      -23.041  81.089  35.072  0.00  0.00    -0.253 N 
ATOM     24  H   LIG    1      -23.279  81.922  34.537  0.00  0.00    +0.158 HD
BRANCH  23  25
ATOM     25  C   LIG    1      -21.727  80.748  35.002  0.00  0.00    +0.286 C 
ATOM     26  N   LIG    1      -21.226  79.562  34.824  0.00  0.00    -0.199 NA
BRANCH  26  27
ATOM     27  C   LIG    1      -19.870  79.288  34.590  0.00  0.00    +0.069 A 
ATOM     28  C   LIG    1      -19.308  79.209  33.308  0.00  0.00    +0.028 A 
ATOM     29  C   LIG    1      -17.956  78.908  33.125  0.00  0.00    +0.002 A 
ATOM     30  C   LIG    1      -17.156  78.604  34.221  0.00  0.00    +0.000 A 
ATOM     31  C   LIG    1      -17.714  78.596  35.498  0.00  0.00    +0.002 A 
ATOM     32  C   LIG    1      -19.059  78.939  35.679  0.00  0.00    +0.028 A 
ENDBRANCH  26  27
BRANCH  25  33
ATOM     33  O   LIG    1      -20.970  81.847  35.176  0.00  0.00    -0.481 OA
ATOM     34  H   LIG    1      -20.141  81.603  35.612  0.00  0.00    +0.295 HD
ENDBRANCH  25  33
ENDBRANCH  23  25
ENDBRANCH   1  23
TORSDOF 6
ENDMDL
MODEL 9
REMARK VINA RESULT:      -5.4     18.312     21.232
REMARK  Name = pdb/CHEMBL3966928.pdb
REMARK                            x       y       z     vdW  Elec       q    Type
REMARK                         _______ _______ _______ _____ _____    ______ ____
ROOT
ATOM      1  C   LIG    1      -18.932  86.402  13.294  0.00  0.00    +0.148 A 
ATOM      2  N   LIG    1      -19.086  85.032  13.414  0.00  0.00    -0.197 N 
ATOM      3  N   LIG    1      -20.131  84.377  14.029  0.00  0.00    -0.148 NA
ATOM      4  C   LIG    1      -20.041  83.066  14.026  0.00  0.00    +0.143 A 
ATOM      5  C   LIG    1      -18.872  82.358  13.385  0.00  0.00    +0.049 A 
ATOM      6  C   LIG    1      -17.898  83.065  12.806  0.00  0.00    +0.051 A 
ATOM      7  C   LIG    1      -17.979  84.466  12.805  0.00  0.00    +0.156 A 
ATOM      8  N   LIG    1      -17.161  85.369  12.311  0.00  0.00    -0.233 NA
ATOM      9  C   LIG    1      -17.748  86.572  12.605  0.00  0.00    +0.157 A 
ENDROOT
BRANCH   4  10
ATOM     10  N   LIG    1      -21.049  82.302  14.617  0.00  0.00    -0.307 N 
ATOM     11  C   LIG    1      -20.891  81.639  15.931  0.00  0.00    +0.108 C 
ATOM     12  C   LIG    1      -22.266  81.758  16.614  0.00  0.00    +0.029 C 
ATOM     13  C   LIG    1      -23.019  82.784  15.783  0.00  0.00    +0.021 C 
ATOM     14  C   LIG    1      -22.471  82.559  14.385  0.00  0.00    +0.107 C 
BRANCH  11  15
ATOM     15  C   LIG    1      -20.463  80.191  15.801  0.00  0.00    +0.011 A 
ATOM     16  C   LIG    1      -19.156  79.828  16.154  0.00  0.00    +0.129 A 
ATOM     17  F   LIG    1      -18.305  80.764  16.596  0.00  0.00    -0.205 F 
ATOM     18  C   LIG    1      -18.708  78.511  16.057  0.00  0.00    +0.041 A 
ATOM     19  C   LIG    1      -19.576  77.519  15.608  0.00  0.00    +0.041 A 
ATOM     20  C   LIG    1      -20.882  77.858  15.277  0.00  0.00    +0.124 A 
ATOM     21  F   LIG    1      -21.726  76.904  14.864  0.00  0.00    -0.205 F 
ATOM     22  C   LIG    1      -21.331  79.174  15.371  0.00  0.00    +0.046 A 
ENDBRANCH  11  15
ENDBRANCH   4  10
BRANCH   1  23
ATOM     23  N   LIG    1      -19.809  87.285  13.837  0.00  0.00    -0.253 N 
ATOM     24  H   LIG    1      -19.840  87.353  14.852  0.00  0.00    +0.158 HD
BRANCH  23  25
ATOM     25  C   LIG    1      -20.577  88.208  13.200  0.00  0.00    +0.286 C 
ATOM     26  N   LIG    1      -21.262  88.049  12.108  0.00  0.00    -0.199 NA
BRANCH  26  27
ATOM     27  C   LIG    1      -22.171  88.980  11.585  0.00  0.00    +0.069 A 
ATOM     28  C   LIG    1      -21.805  90.007  10.703  0.00  0.00    +0.028 A 
ATOM     29  C   LIG    1      -22.743  90.926  10.227  0.00  0.00    +0.002 A 
ATOM     30  C   LIG    1      -24.055  90.881  10.686  0.00  0.00    +0.000 A 
ATOM     31  C   LIG    1      -24.422  89.921  11.626  0.00  0.00    +0.002 A 
ATOM     32  C   LIG    1      -23.488  88.976  12.068  0.00  0.00    +0.028 A 
ENDBRANCH  26  27
BRANCH  25  33
ATOM     33  O   LIG    1      -20.511  89.378  13.863  0.00  0.00    -0.481 OA
ATOM     34  H   LIG    1      -19.678  89.823  13.652  0.00  0.00    +0.295 HD
ENDBRANCH  25  33
ENDBRANCH  23  25
ENDBRANCH   1  23
TORSDOF 6
ENDMDL
