MODEL 1
REMARK VINA RESULT:      -7.1      0.000      0.000
REMARK  Name = pdb/CHEMBL3894615.pdb
REMARK                            x       y       z     vdW  Elec       q    Type
REMARK                         _______ _______ _______ _____ _____    ______ ____
ROOT
ATOM      1  C   LIG    1      -38.724  72.538  24.754  0.00  0.00    +0.126 A 
ATOM      2  N   LIG    1      -37.904  73.546  24.978  0.00  0.00    -0.211 NA
ATOM      3  C   LIG    1      -38.365  74.817  24.743  0.00  0.00    +0.179 A 
ATOM      4  C   LIG    1      -37.809  76.064  24.956  0.00  0.00    +0.098 A 
ATOM      5  C   LIG    1      -38.763  76.974  24.455  0.00  0.00    +0.160 A 
ATOM      6  N   LIG    1      -39.864  76.374  23.996  0.00  0.00    -0.171 NA
ATOM      7  N   LIG    1      -39.637  75.059  24.220  0.00  0.00    -0.220 N 
ATOM      8  C   LIG    1      -40.520  74.013  24.019  0.00  0.00    +0.118 A 
ATOM      9  C   LIG    1      -40.148  72.760  24.292  0.00  0.00    +0.063 A 
ENDROOT
BRANCH   1  11
ATOM     10  C   LIG    1      -37.550  70.430  23.959  0.00  0.00    +0.108 C 
ATOM     11  N   LIG    1      -38.257  71.246  24.948  0.00  0.00    -0.308 N 
ATOM     12  C   LIG    1      -38.253  70.600  26.263  0.00  0.00    +0.107 C 
ATOM     13  C   LIG    1      -37.599  69.238  26.036  0.00  0.00    +0.021 C 
ATOM     14  C   LIG    1      -36.719  69.469  24.819  0.00  0.00    +0.029 C 
BRANCH  10  18
ATOM     15  F   LIG    1      -42.042  68.852  22.693  0.00  0.00    -0.205 F 
ATOM     16  C   LIG    1      -40.739  68.960  22.404  0.00  0.00    +0.124 A 
ATOM     17  C   LIG    1      -39.891  69.599  23.304  0.00  0.00    +0.046 A 
ATOM     18  C   LIG    1      -38.519  69.731  23.024  0.00  0.00    +0.011 A 
ATOM     19  C   LIG    1      -38.049  69.196  21.818  0.00  0.00    +0.129 A 
ATOM     20  F   LIG    1      -36.750  69.308  21.505  0.00  0.00    -0.205 F 
ATOM     21  C   LIG    1      -38.900  68.556  20.916  0.00  0.00    +0.041 A 
ATOM     22  C   LIG    1      -40.257  68.437  21.212  0.00  0.00    +0.041 A 
ENDBRANCH  10  18
ENDBRANCH   1  11
BRANCH   4  23
ATOM     23  N   LIG    1      -36.573  76.278  25.551  0.00  0.00    -0.276 N 
ATOM     24  H   LIG    1      -35.793  76.472  24.930  0.00  0.00    +0.155 HD
ATOM     25  C   LIG    1      -36.353  76.177  26.913  0.00  0.00    +0.267 C 
ATOM     26  O   LIG    1      -37.196  75.913  27.758  0.00  0.00    -0.268 OA
BRANCH  25  27
ATOM     27  C   LIG    1      -34.935  76.386  27.347  0.00  0.00    +0.127 A 
ATOM     28  N   LIG    1      -34.276  77.461  26.845  0.00  0.00    -0.231 NA
ATOM     29  C   LIG    1      -33.032  77.657  27.333  0.00  0.00    +0.130 A 
ATOM     30 CL   LIG    1      -32.250  79.070  26.753  0.00  0.00    -0.062 Cl
ATOM     31  C   LIG    1      -32.391  76.826  28.242  0.00  0.00    +0.040 A 
ATOM     32  C   LIG    1      -33.078  75.709  28.703  0.00  0.00    +0.005 A 
ATOM     33  C   LIG    1      -34.378  75.489  28.260  0.00  0.00    +0.033 A 
ENDBRANCH  25  27
ENDBRANCH   4  23
TORSDOF 4
ENDMDL
MODEL 2
REMARK VINA RESULT:      -6.8      2.036      3.708
REMARK  Name = pdb/CHEMBL3894615.pdb
REMARK                            x       y       z     vdW  Elec       q    Type
REMARK                         _______ _______ _______ _____ _____    ______ ____
ROOT
ATOM      1  C   LIG    1      -39.245  72.761  24.544  0.00  0.00    +0.126 A 
ATOM      2  N   LIG    1      -38.328  73.674  24.799  0.00  0.00    -0.211 NA
ATOM      3  C   LIG    1      -38.656  74.992  24.600  0.00  0.00    +0.179 A 
ATOM      4  C   LIG    1      -37.977  76.169  24.850  0.00  0.00    +0.098 A 
ATOM      5  C   LIG    1      -38.831  77.185  24.374  0.00  0.00    +0.160 A 
ATOM      6  N   LIG    1      -39.985  76.714  23.896  0.00  0.00    -0.171 NA
ATOM      7  N   LIG    1      -39.894  75.377  24.082  0.00  0.00    -0.220 N 
ATOM      8  C   LIG    1      -40.879  74.433  23.849  0.00  0.00    +0.118 A 
ATOM      9  C   LIG    1      -40.638  73.141  24.086  0.00  0.00    +0.063 A 
ENDROOT
BRANCH   1  11
ATOM     10  C   LIG    1      -38.646  70.749  25.974  0.00  0.00    +0.108 C 
ATOM     11  N   LIG    1      -38.914  71.424  24.702  0.00  0.00    -0.308 N 
ATOM     12  C   LIG    1      -38.979  70.462  23.599  0.00  0.00    +0.107 C 
ATOM     13  C   LIG    1      -38.608  69.116  24.221  0.00  0.00    +0.021 C 
ATOM     14  C   LIG    1      -38.997  69.285  25.679  0.00  0.00    +0.029 C 
BRANCH  10  18
ATOM     15  F   LIG    1      -33.781  70.144  25.478  0.00  0.00    -0.205 F 
ATOM     16  C   LIG    1      -34.811  70.657  26.163  0.00  0.00    +0.124 A 
ATOM     17  C   LIG    1      -36.110  70.425  25.720  0.00  0.00    +0.046 A 
ATOM     18  C   LIG    1      -37.210  70.955  26.417  0.00  0.00    +0.011 A 
ATOM     19  C   LIG    1      -36.945  71.716  27.564  0.00  0.00    +0.129 A 
ATOM     20  F   LIG    1      -37.963  72.251  28.254  0.00  0.00    -0.205 F 
ATOM     21  C   LIG    1      -35.642  71.950  28.007  0.00  0.00    +0.041 A 
ATOM     22  C   LIG    1      -34.567  71.415  27.300  0.00  0.00    +0.041 A 
ENDBRANCH  10  18
ENDBRANCH   1  11
BRANCH   4  23
ATOM     23  N   LIG    1      -36.729  76.238  25.454  0.00  0.00    -0.276 N 
ATOM     24  H   LIG    1      -35.923  76.055  24.862  0.00  0.00    +0.155 HD
ATOM     25  C   LIG    1      -36.544  76.477  26.804  0.00  0.00    +0.267 C 
ATOM     26  O   LIG    1      -37.429  76.674  27.624  0.00  0.00    -0.268 OA
BRANCH  25  27
ATOM     27  C   LIG    1      -35.120  76.452  27.266  0.00  0.00    +0.127 A 
ATOM     28  N   LIG    1      -34.342  77.522  26.964  0.00  0.00    -0.231 NA
ATOM     29  C   LIG    1      -33.093  77.493  27.478  0.00  0.00    +0.130 A 
ATOM     30 CL   LIG    1      -32.155  78.894  27.158  0.00  0.00    -0.062 Cl
ATOM     31  C   LIG    1      -32.561  76.450  28.224  0.00  0.00    +0.040 A 
ATOM     32  C   LIG    1      -33.371  75.350  28.479  0.00  0.00    +0.005 A 
ATOM     33  C   LIG    1      -34.679  75.354  28.005  0.00  0.00    +0.033 A 
ENDBRANCH  25  27
ENDBRANCH   4  23
TORSDOF 4
ENDMDL
MODEL 3
REMARK VINA RESULT:      -6.8      4.686      9.210
REMARK  Name = pdb/CHEMBL3894615.pdb
REMARK                            x       y       z     vdW  Elec       q    Type
REMARK                         _______ _______ _______ _____ _____    ______ ____
ROOT
ATOM      1  C   LIG    1      -37.484  79.691  27.982  0.00  0.00    +0.126 A 
ATOM      2  N   LIG    1      -38.183  78.855  27.239  0.00  0.00    -0.211 NA
ATOM      3  C   LIG    1      -38.932  79.375  26.212  0.00  0.00    +0.179 A 
ATOM      4  C   LIG    1      -39.685  78.783  25.216  0.00  0.00    +0.098 A 
ATOM      5  C   LIG    1      -40.251  79.862  24.505  0.00  0.00    +0.160 A 
ATOM      6  N   LIG    1      -39.864  81.052  24.968  0.00  0.00    -0.171 NA
ATOM      7  N   LIG    1      -39.018  80.749  25.981  0.00  0.00    -0.220 N 
ATOM      8  C   LIG    1      -38.259  81.633  26.726  0.00  0.00    +0.118 A 
ATOM      9  C   LIG    1      -37.462  81.178  27.698  0.00  0.00    +0.063 A 
ENDROOT
BRANCH   1  11
ATOM     10  C   LIG    1      -35.449  79.662  29.502  0.00  0.00    +0.108 C 
ATOM     11  N   LIG    1      -36.757  79.183  29.048  0.00  0.00    -0.308 N 
ATOM     12  C   LIG    1      -37.314  78.205  29.986  0.00  0.00    +0.107 C 
ATOM     13  C   LIG    1      -36.217  77.982  31.026  0.00  0.00    +0.021 C 
ATOM     14  C   LIG    1      -35.426  79.277  30.986  0.00  0.00    +0.029 C 
BRANCH  10  18
ATOM     15  F   LIG    1      -32.270  76.040  28.480  0.00  0.00    -0.205 F 
ATOM     16  C   LIG    1      -32.761  77.252  28.192  0.00  0.00    +0.124 A 
ATOM     17  C   LIG    1      -33.785  77.777  28.976  0.00  0.00    +0.046 A 
ATOM     18  C   LIG    1      -34.323  79.045  28.693  0.00  0.00    +0.011 A 
ATOM     19  C   LIG    1      -33.791  79.748  27.605  0.00  0.00    +0.129 A 
ATOM     20  F   LIG    1      -34.282  80.956  27.291  0.00  0.00    -0.205 F 
ATOM     21  C   LIG    1      -32.766  79.220  26.818  0.00  0.00    +0.041 A 
ATOM     22  C   LIG    1      -32.247  77.961  27.115  0.00  0.00    +0.041 A 
ENDBRANCH  10  18
ENDBRANCH   1  11
BRANCH   4  23
ATOM     23  N   LIG    1      -39.795  77.412  25.029  0.00  0.00    -0.276 N 
ATOM     24  H   LIG    1      -40.676  76.982  25.295  0.00  0.00    +0.155 HD
ATOM     25  C   LIG    1      -38.760  76.618  24.567  0.00  0.00    +0.267 C 
ATOM     26  O   LIG    1      -37.645  77.007  24.251  0.00  0.00    -0.268 OA
BRANCH  25  27
ATOM     27  C   LIG    1      -39.065  75.154  24.494  0.00  0.00    +0.127 A 
ATOM     28  N   LIG    1      -40.237  74.784  23.919  0.00  0.00    -0.231 NA
ATOM     29  C   LIG    1      -40.426  73.452  23.795  0.00  0.00    +0.130 A 
ATOM     30 CL   LIG    1      -41.872  73.007  22.986  0.00  0.00    -0.062 Cl
ATOM     31  C   LIG    1      -39.551  72.476  24.252  0.00  0.00    +0.040 A 
ATOM     32  C   LIG    1      -38.380  72.889  24.876  0.00  0.00    +0.005 A 
ATOM     33  C   LIG    1      -38.123  74.251  24.988  0.00  0.00    +0.033 A 
ENDBRANCH  25  27
ENDBRANCH   4  23
TORSDOF 4
ENDMDL
MODEL 4
REMARK VINA RESULT:      -6.6      4.361      8.978
REMARK  Name = pdb/CHEMBL3894615.pdb
REMARK                            x       y       z     vdW  Elec       q    Type
REMARK                         _______ _______ _______ _____ _____    ______ ____
ROOT
ATOM      1  C   LIG    1      -33.116  75.374  28.440  0.00  0.00    +0.126 A 
ATOM      2  N   LIG    1      -33.835  74.433  27.861  0.00  0.00    -0.211 NA
ATOM      3  C   LIG    1      -33.662  73.138  28.282  0.00  0.00    +0.179 A 
ATOM      4  C   LIG    1      -34.306  71.959  27.957  0.00  0.00    +0.098 A 
ATOM      5  C   LIG    1      -33.627  70.965  28.691  0.00  0.00    +0.160 A 
ATOM      6  N   LIG    1      -32.655  71.458  29.463  0.00  0.00    -0.171 NA
ATOM      7  N   LIG    1      -32.713  72.793  29.246  0.00  0.00    -0.220 N 
ATOM      8  C   LIG    1      -31.982  73.775  29.890  0.00  0.00    +0.118 A 
ATOM      9  C   LIG    1      -32.154  75.060  29.567  0.00  0.00    +0.063 A 
ENDROOT
BRANCH   1  11
ATOM     10  C   LIG    1      -34.216  77.663  28.495  0.00  0.00    +0.108 C 
ATOM     11  N   LIG    1      -33.250  76.681  27.996  0.00  0.00    -0.308 N 
ATOM     12  C   LIG    1      -32.290  77.305  27.082  0.00  0.00    +0.107 C 
ATOM     13  C   LIG    1      -32.773  78.745  26.918  0.00  0.00    +0.021 C 
ATOM     14  C   LIG    1      -33.538  79.008  28.203  0.00  0.00    +0.029 C 
BRANCH  10  18
ATOM     15  F   LIG    1      -37.247  75.599  25.203  0.00  0.00    -0.205 F 
ATOM     16  C   LIG    1      -37.056  76.475  26.198  0.00  0.00    +0.124 A 
ATOM     17  C   LIG    1      -35.793  76.594  26.771  0.00  0.00    +0.046 A 
ATOM     18  C   LIG    1      -35.566  77.502  27.821  0.00  0.00    +0.011 A 
ATOM     19  C   LIG    1      -36.651  78.274  28.257  0.00  0.00    +0.129 A 
ATOM     20  F   LIG    1      -36.483  79.144  29.262  0.00  0.00    -0.205 F 
ATOM     21  C   LIG    1      -37.917  78.153  27.682  0.00  0.00    +0.041 A 
ATOM     22  C   LIG    1      -38.121  77.246  26.644  0.00  0.00    +0.041 A 
ENDBRANCH  10  18
ENDBRANCH   1  11
BRANCH   4  23
ATOM     23  N   LIG    1      -35.386  71.872  27.089  0.00  0.00    -0.276 N 
ATOM     24  H   LIG    1      -36.250  72.315  27.387  0.00  0.00    +0.155 HD
ATOM     25  C   LIG    1      -35.354  71.171  25.897  0.00  0.00    +0.267 C 
ATOM     26  O   LIG    1      -34.391  70.566  25.447  0.00  0.00    -0.268 OA
BRANCH  25  27
ATOM     27  C   LIG    1      -36.643  71.150  25.135  0.00  0.00    +0.127 A 
ATOM     28  N   LIG    1      -36.829  70.147  24.241  0.00  0.00    -0.231 NA
ATOM     29  C   LIG    1      -38.041  70.120  23.645  0.00  0.00    +0.130 A 
ATOM     30 CL   LIG    1      -38.288  68.794  22.585  0.00  0.00    -0.062 Cl
ATOM     31  C   LIG    1      -39.050  71.052  23.846  0.00  0.00    +0.040 A 
ATOM     32  C   LIG    1      -38.810  72.092  24.736  0.00  0.00    +0.005 A 
ATOM     33  C   LIG    1      -37.592  72.138  25.405  0.00  0.00    +0.033 A 
ENDBRANCH  25  27
ENDBRANCH   4  23
TORSDOF 4
ENDMDL
MODEL 5
REMARK VINA RESULT:      -6.5      5.005      7.336
REMARK  Name = pdb/CHEMBL3894615.pdb
REMARK                            x       y       z     vdW  Elec       q    Type
REMARK                         _______ _______ _______ _____ _____    ______ ____
ROOT
ATOM      1  C   LIG    1      -38.627  69.110  23.349  0.00  0.00    +0.126 A 
ATOM      2  N   LIG    1      -37.600  68.600  24.001  0.00  0.00    -0.211 NA
ATOM      3  C   LIG    1      -36.576  68.054  23.268  0.00  0.00    +0.179 A 
ATOM      4  C   LIG    1      -35.348  67.533  23.627  0.00  0.00    +0.098 A 
ATOM      5  C   LIG    1      -34.780  67.085  22.416  0.00  0.00    +0.160 A 
ATOM      6  N   LIG    1      -35.551  67.333  21.355  0.00  0.00    -0.171 NA
ATOM      7  N   LIG    1      -36.626  67.970  21.875  0.00  0.00    -0.220 N 
ATOM      8  C   LIG    1      -37.678  68.538  21.177  0.00  0.00    +0.118 A 
ATOM      9  C   LIG    1      -38.672  69.139  21.836  0.00  0.00    +0.063 A 
ENDROOT
BRANCH   1  11
ATOM     10  C   LIG    1      -40.423  70.856  23.771  0.00  0.00    +0.108 C 
ATOM     11  N   LIG    1      -39.686  69.628  24.079  0.00  0.00    -0.308 N 
ATOM     12  C   LIG    1      -40.331  68.886  25.166  0.00  0.00    +0.107 C 
ATOM     13  C   LIG    1      -41.476  69.781  25.636  0.00  0.00    +0.021 C 
ATOM     14  C   LIG    1      -41.798  70.613  24.407  0.00  0.00    +0.029 C 
BRANCH  10  18
ATOM     15  F   LIG    1      -36.938  73.050  26.477  0.00  0.00    -0.205 F 
ATOM     16  C   LIG    1      -37.983  73.155  25.645  0.00  0.00    +0.124 A 
ATOM     17  C   LIG    1      -38.612  72.000  25.190  0.00  0.00    +0.046 A 
ATOM     18  C   LIG    1      -39.708  72.080  24.312  0.00  0.00    +0.011 A 
ATOM     19  C   LIG    1      -40.135  73.356  23.923  0.00  0.00    +0.129 A 
ATOM     20  F   LIG    1      -41.168  73.480  23.078  0.00  0.00    -0.205 F 
ATOM     21  C   LIG    1      -39.502  74.514  24.378  0.00  0.00    +0.041 A 
ATOM     22  C   LIG    1      -38.417  74.412  25.247  0.00  0.00    +0.041 A 
ENDBRANCH  10  18
ENDBRANCH   1  11
BRANCH   4  23
ATOM     23  N   LIG    1      -34.859  67.508  24.925  0.00  0.00    -0.276 N 
ATOM     24  H   LIG    1      -35.013  66.655  25.456  0.00  0.00    +0.155 HD
ATOM     25  C   LIG    1      -34.243  68.588  25.532  0.00  0.00    +0.267 C 
ATOM     26  O   LIG    1      -34.034  69.676  25.015  0.00  0.00    -0.268 OA
BRANCH  25  27
ATOM     27  C   LIG    1      -33.842  68.374  26.959  0.00  0.00    +0.127 A 
ATOM     28  N   LIG    1      -33.950  67.118  27.460  0.00  0.00    -0.231 NA
ATOM     29  C   LIG    1      -33.494  66.957  28.721  0.00  0.00    +0.130 A 
ATOM     30 CL   LIG    1      -33.558  65.345  29.306  0.00  0.00    -0.062 Cl
ATOM     31  C   LIG    1      -32.988  67.972  29.522  0.00  0.00    +0.040 A 
ATOM     32  C   LIG    1      -32.930  69.255  28.992  0.00  0.00    +0.005 A 
ATOM     33  C   LIG    1      -33.351  69.461  27.683  0.00  0.00    +0.033 A 
ENDBRANCH  25  27
ENDBRANCH   4  23
TORSDOF 4
ENDMDL
MODEL 6
REMARK VINA RESULT:      -6.4      3.911      6.927
REMARK  Name = pdb/CHEMBL3894615.pdb
REMARK                            x       y       z     vdW  Elec       q    Type
REMARK                         _______ _______ _______ _____ _____    ______ ____
ROOT
ATOM      1  C   LIG    1      -33.387  73.865  29.475  0.00  0.00    +0.126 A 
ATOM      2  N   LIG    1      -34.145  74.543  28.636  0.00  0.00    -0.211 NA
ATOM      3  C   LIG    1      -33.681  75.751  28.177  0.00  0.00    +0.179 A 
ATOM      4  C   LIG    1      -34.172  76.644  27.244  0.00  0.00    +0.098 A 
ATOM      5  C   LIG    1      -33.260  77.720  27.262  0.00  0.00    +0.160 A 
ATOM      6  N   LIG    1      -32.240  77.524  28.101  0.00  0.00    -0.171 NA
ATOM      7  N   LIG    1      -32.475  76.297  28.621  0.00  0.00    -0.220 N 
ATOM      8  C   LIG    1      -31.652  75.578  29.469  0.00  0.00    +0.118 A 
ATOM      9  C   LIG    1      -32.023  74.369  29.898  0.00  0.00    +0.063 A 
ENDROOT
BRANCH   1  11
ATOM     10  C   LIG    1      -33.290  71.339  29.728  0.00  0.00    +0.108 C 
ATOM     11  N   LIG    1      -33.863  72.664  29.979  0.00  0.00    -0.308 N 
ATOM     12  C   LIG    1      -34.911  72.598  31.000  0.00  0.00    +0.107 C 
ATOM     13  C   LIG    1      -35.073  71.111  31.311  0.00  0.00    +0.021 C 
ATOM     14  C   LIG    1      -33.715  70.529  30.959  0.00  0.00    +0.029 C 
BRANCH  10  18
ATOM     15  F   LIG    1      -36.157  71.408  25.721  0.00  0.00    -0.205 F 
ATOM     16  C   LIG    1      -35.201  70.805  26.439  0.00  0.00    +0.124 A 
ATOM     17  C   LIG    1      -34.793  71.371  27.644  0.00  0.00    +0.046 A 
ATOM     18  C   LIG    1      -33.787  70.762  28.415  0.00  0.00    +0.011 A 
ATOM     19  C   LIG    1      -33.223  69.576  27.927  0.00  0.00    +0.129 A 
ATOM     20  F   LIG    1      -32.253  68.967  28.624  0.00  0.00    -0.205 F 
ATOM     21  C   LIG    1      -33.632  69.011  26.718  0.00  0.00    +0.041 A 
ATOM     22  C   LIG    1      -34.630  69.631  25.969  0.00  0.00    +0.041 A 
ENDBRANCH  10  18
ENDBRANCH   1  11
BRANCH   4  23
ATOM     23  N   LIG    1      -35.320  76.437  26.493  0.00  0.00    -0.276 N 
ATOM     24  H   LIG    1      -35.192  76.094  25.545  0.00  0.00    +0.155 HD
ATOM     25  C   LIG    1      -36.594  76.731  26.945  0.00  0.00    +0.267 C 
ATOM     26  O   LIG    1      -36.876  77.182  28.046  0.00  0.00    -0.268 OA
BRANCH  25  27
ATOM     27  C   LIG    1      -37.693  76.490  25.957  0.00  0.00    +0.127 A 
ATOM     28  N   LIG    1      -37.910  75.212  25.557  0.00  0.00    -0.231 NA
ATOM     29  C   LIG    1      -38.967  75.035  24.735  0.00  0.00    +0.130 A 
ATOM     30 CL   LIG    1      -39.278  73.401  24.312  0.00  0.00    -0.062 Cl
ATOM     31  C   LIG    1      -39.781  76.049  24.251  0.00  0.00    +0.040 A 
ATOM     32  C   LIG    1      -39.504  77.353  24.646  0.00  0.00    +0.005 A 
ATOM     33  C   LIG    1      -38.451  77.580  25.525  0.00  0.00    +0.033 A 
ENDBRANCH  25  27
ENDBRANCH   4  23
TORSDOF 4
ENDMDL
MODEL 7
REMARK VINA RESULT:      -6.4      4.923      7.444
REMARK  Name = pdb/CHEMBL3894615.pdb
REMARK                            x       y       z     vdW  Elec       q    Type
REMARK                         _______ _______ _______ _____ _____    ______ ____
ROOT
ATOM      1  C   LIG    1      -35.888  76.315  27.755  0.00  0.00    +0.126 A 
ATOM      2  N   LIG    1      -35.591  77.597  27.686  0.00  0.00    -0.211 NA
ATOM      3  C   LIG    1      -34.265  77.952  27.640  0.00  0.00    +0.179 A 
ATOM      4  C   LIG    1      -33.632  79.169  27.477  0.00  0.00    +0.098 A 
ATOM      5  C   LIG    1      -32.256  78.874  27.571  0.00  0.00    +0.160 A 
ATOM      6  N   LIG    1      -32.013  77.571  27.735  0.00  0.00    -0.171 NA
ATOM      7  N   LIG    1      -33.242  77.006  27.727  0.00  0.00    -0.220 N 
ATOM      8  C   LIG    1      -33.540  75.655  27.758  0.00  0.00    +0.118 A 
ATOM      9  C   LIG    1      -34.812  75.249  27.741  0.00  0.00    +0.063 A 
ENDROOT
BRANCH   1  11
ATOM     10  C   LIG    1      -38.026  75.362  26.768  0.00  0.00    +0.108 C 
ATOM     11  N   LIG    1      -37.221  75.945  27.844  0.00  0.00    -0.308 N 
ATOM     12  C   LIG    1      -37.948  75.920  29.117  0.00  0.00    +0.107 C 
ATOM     13  C   LIG    1      -39.339  75.393  28.771  0.00  0.00    +0.021 C 
ATOM     14  C   LIG    1      -39.101  74.567  27.519  0.00  0.00    +0.029 C 
BRANCH  10  18
ATOM     15  F   LIG    1      -39.161  80.032  25.683  0.00  0.00    -0.205 F 
ATOM     16  C   LIG    1      -39.139  78.742  25.324  0.00  0.00    +0.124 A 
ATOM     17  C   LIG    1      -38.627  77.796  26.207  0.00  0.00    +0.046 A 
ATOM     18  C   LIG    1      -38.587  76.436  25.854  0.00  0.00    +0.011 A 
ATOM     19  C   LIG    1      -39.082  76.078  24.593  0.00  0.00    +0.129 A 
ATOM     20  F   LIG    1      -39.054  74.793  24.210  0.00  0.00    -0.205 F 
ATOM     21  C   LIG    1      -39.594  77.027  23.708  0.00  0.00    +0.041 A 
ATOM     22  C   LIG    1      -39.624  78.371  24.077  0.00  0.00    +0.041 A 
ENDBRANCH  10  18
ENDBRANCH   1  11
BRANCH   4  23
ATOM     23  N   LIG    1      -34.292  80.372  27.264  0.00  0.00    -0.276 N 
ATOM     24  H   LIG    1      -34.331  80.710  26.306  0.00  0.00    +0.155 HD
ATOM     25  C   LIG    1      -34.829  81.140  28.281  0.00  0.00    +0.267 C 
ATOM     26  O   LIG    1      -34.813  80.864  29.472  0.00  0.00    -0.268 OA
BRANCH  25  27
ATOM     27  C   LIG    1      -35.446  82.433  27.845  0.00  0.00    +0.127 A 
ATOM     28  N   LIG    1      -35.896  82.515  26.568  0.00  0.00    -0.231 NA
ATOM     29  C   LIG    1      -36.524  83.668  26.249  0.00  0.00    +0.130 A 
ATOM     30 CL   LIG    1      -37.164  83.717  24.657  0.00  0.00    -0.062 Cl
ATOM     31  C   LIG    1      -36.684  84.752  27.101  0.00  0.00    +0.040 A 
ATOM     32  C   LIG    1      -36.173  84.651  28.389  0.00  0.00    +0.005 A 
ATOM     33  C   LIG    1      -35.555  83.467  28.776  0.00  0.00    +0.033 A 
ENDBRANCH  25  27
ENDBRANCH   4  23
TORSDOF 4
ENDMDL
MODEL 8
REMARK VINA RESULT:      -6.3      5.567      8.949
REMARK  Name = pdb/CHEMBL3894615.pdb
REMARK                            x       y       z     vdW  Elec       q    Type
REMARK                         _______ _______ _______ _____ _____    ______ ____
ROOT
ATOM      1  C   LIG    1      -38.024  77.684  27.243  0.00  0.00    +0.126 A 
ATOM      2  N   LIG    1      -38.220  78.403  26.156  0.00  0.00    -0.211 NA
ATOM      3  C   LIG    1      -38.930  77.837  25.126  0.00  0.00    +0.179 A 
ATOM      4  C   LIG    1      -39.379  78.337  23.918  0.00  0.00    +0.098 A 
ATOM      5  C   LIG    1      -40.001  77.240  23.285  0.00  0.00    +0.160 A 
ATOM      6  N   LIG    1      -39.997  76.135  24.033  0.00  0.00    -0.171 NA
ATOM      7  N   LIG    1      -39.385  76.518  25.178  0.00  0.00    -0.220 N 
ATOM      8  C   LIG    1      -39.222  75.767  26.329  0.00  0.00    +0.118 A 
ATOM      9  C   LIG    1      -38.594  76.289  27.386  0.00  0.00    +0.063 A 
ENDROOT
BRANCH   1  11
ATOM     10  C   LIG    1      -36.213  79.229  28.129  0.00  0.00    +0.108 C 
ATOM     11  N   LIG    1      -37.274  78.229  28.274  0.00  0.00    -0.308 N 
ATOM     12  C   LIG    1      -37.592  78.001  29.686  0.00  0.00    +0.107 C 
ATOM     13  C   LIG    1      -36.573  78.832  30.464  0.00  0.00    +0.021 C 
ATOM     14  C   LIG    1      -36.204  79.937  29.490  0.00  0.00    +0.029 C 
BRANCH  10  18
ATOM     15  F   LIG    1      -33.352  75.317  27.238  0.00  0.00    -0.205 F 
ATOM     16  C   LIG    1      -33.485  76.647  27.326  0.00  0.00    +0.124 A 
ATOM     17  C   LIG    1      -34.719  77.188  27.674  0.00  0.00    +0.046 A 
ATOM     18  C   LIG    1      -34.889  78.581  27.769  0.00  0.00    +0.011 A 
ATOM     19  C   LIG    1      -33.776  79.390  27.504  0.00  0.00    +0.129 A 
ATOM     20  F   LIG    1      -33.894  80.723  27.571  0.00  0.00    -0.205 F 
ATOM     21  C   LIG    1      -32.539  78.846  27.152  0.00  0.00    +0.041 A 
ATOM     22  C   LIG    1      -32.393  77.463  27.064  0.00  0.00    +0.041 A 
ENDBRANCH  10  18
ENDBRANCH   1  11
BRANCH   4  23
ATOM     23  N   LIG    1      -39.215  79.652  23.507  0.00  0.00    -0.276 N 
ATOM     24  H   LIG    1      -38.422  79.847  22.902  0.00  0.00    +0.155 HD
ATOM     25  C   LIG    1      -40.026  80.691  23.926  0.00  0.00    +0.267 C 
ATOM     26  O   LIG    1      -40.984  80.593  24.679  0.00  0.00    -0.268 OA
BRANCH  25  27
ATOM     27  C   LIG    1      -39.643  82.045  23.413  0.00  0.00    +0.127 A 
ATOM     28  N   LIG    1      -38.794  82.786  24.168  0.00  0.00    -0.231 NA
ATOM     29  C   LIG    1      -38.409  83.960  23.623  0.00  0.00    +0.130 A 
ATOM     30 CL   LIG    1      -37.267  84.841  24.553  0.00  0.00    -0.062 Cl
ATOM     31  C   LIG    1      -38.853  84.459  22.406  0.00  0.00    +0.040 A 
ATOM     32  C   LIG    1      -39.757  83.694  21.677  0.00  0.00    +0.005 A 
ATOM     33  C   LIG    1      -40.150  82.458  22.180  0.00  0.00    +0.033 A 
ENDBRANCH  25  27
ENDBRANCH   4  23
TORSDOF 4
ENDMDL
MODEL 9
REMARK VINA RESULT:      -6.3     20.089     23.156
REMARK  Name = pdb/CHEMBL3894615.pdb
REMARK                            x       y       z     vdW  Elec       q    Type
REMARK                         _______ _______ _______ _____ _____    ______ ____
ROOT
ATOM      1  C   LIG    1      -21.651  84.327  12.834  0.00  0.00    +0.126 A 
ATOM      2  N   LIG    1      -22.225  85.514  12.838  0.00  0.00    -0.211 NA
ATOM      3  C   LIG    1      -21.449  86.606  13.141  0.00  0.00    +0.179 A 
ATOM      4  C   LIG    1      -21.710  87.963  13.144  0.00  0.00    +0.098 A 
ATOM      5  C   LIG    1      -20.515  88.558  13.600  0.00  0.00    +0.160 A 
ATOM      6  N   LIG    1      -19.546  87.669  13.831  0.00  0.00    -0.171 NA
ATOM      7  N   LIG    1      -20.106  86.482  13.502  0.00  0.00    -0.220 N 
ATOM      8  C   LIG    1      -19.482  85.248  13.462  0.00  0.00    +0.118 A 
ATOM      9  C   LIG    1      -20.172  84.159  13.112  0.00  0.00    +0.063 A 
ENDROOT
BRANCH   1  11
ATOM     10  C   LIG    1      -23.599  82.778  13.342  0.00  0.00    +0.108 C 
ATOM     11  N   LIG    1      -22.433  83.213  12.570  0.00  0.00    -0.308 N 
ATOM     12  C   LIG    1      -22.291  82.424  11.343  0.00  0.00    +0.107 C 
ATOM     13  C   LIG    1      -23.378  81.354  11.429  0.00  0.00    +0.021 C 
ATOM     14  C   LIG    1      -24.429  81.992  12.320  0.00  0.00    +0.029 C 
BRANCH  10  18
ATOM     15  F   LIG    1      -22.709  78.516  15.648  0.00  0.00    -0.205 F 
ATOM     16  C   LIG    1      -22.744  79.854  15.682  0.00  0.00    +0.124 A 
ATOM     17  C   LIG    1      -23.145  80.554  14.547  0.00  0.00    +0.046 A 
ATOM     18  C   LIG    1      -23.186  81.960  14.552  0.00  0.00    +0.011 A 
ATOM     19  C   LIG    1      -22.816  82.616  15.733  0.00  0.00    +0.129 A 
ATOM     20  F   LIG    1      -22.829  83.956  15.780  0.00  0.00    -0.205 F 
ATOM     21  C   LIG    1      -22.413  81.913  16.870  0.00  0.00    +0.041 A 
ATOM     22  C   LIG    1      -22.378  80.520  16.843  0.00  0.00    +0.041 A 
ENDBRANCH  10  18
ENDBRANCH   1  11
BRANCH   4  23
ATOM     23  N   LIG    1      -22.917  88.527  12.756  0.00  0.00    -0.276 N 
ATOM     24  H   LIG    1      -23.607  88.681  13.486  0.00  0.00    +0.155 HD
ATOM     25  C   LIG    1      -23.236  88.824  11.443  0.00  0.00    +0.267 C 
ATOM     26  O   LIG    1      -22.511  88.651  10.474  0.00  0.00    -0.268 OA
BRANCH  25  27
ATOM     27  C   LIG    1      -24.613  89.372  11.230  0.00  0.00    +0.127 A 
ATOM     28  N   LIG    1      -24.907  90.570  11.795  0.00  0.00    -0.231 NA
ATOM     29  C   LIG    1      -26.129  91.064  11.501  0.00  0.00    +0.130 A 
ATOM     30 CL   LIG    1      -26.448  92.619  12.153  0.00  0.00    -0.062 Cl
ATOM     31  C   LIG    1      -27.086  90.420  10.728  0.00  0.00    +0.040 A 
ATOM     32  C   LIG    1      -26.768  89.175  10.200  0.00  0.00    +0.005 A 
ATOM     33  C   LIG    1      -25.506  88.644  10.441  0.00  0.00    +0.033 A 
ENDBRANCH  25  27
ENDBRANCH   4  23
TORSDOF 4
ENDMDL
