MODEL 1
REMARK VINA RESULT:      -5.6      0.000      0.000
REMARK  Name = pdb/CHEMBL3937084.pdb
REMARK                            x       y       z     vdW  Elec       q    Type
REMARK                         _______ _______ _______ _____ _____    ______ ____
ROOT
ATOM      1  C   LIG    1      -24.277  75.581  31.206  0.00  0.00    +0.131 A 
ATOM      2  C   LIG    1      -24.195  75.754  32.568  0.00  0.00    +0.183 A 
ATOM      3  N   LIG    1      -23.898  76.830  33.402  0.00  0.00    -0.211 NA
ATOM      4  C   LIG    1      -23.900  76.639  34.702  0.00  0.00    +0.126 A 
ATOM      5  C   LIG    1      -24.254  75.296  35.308  0.00  0.00    +0.063 A 
ATOM      6  C   LIG    1      -24.569  74.318  34.478  0.00  0.00    +0.118 A 
ATOM      7  N   LIG    1      -24.547  74.515  33.116  0.00  0.00    -0.220 N 
ATOM      8  N   LIG    1      -24.788  73.573  32.151  0.00  0.00    -0.171 NA
ATOM      9  C   LIG    1      -24.688  74.252  31.012  0.00  0.00    +0.165 A 
ENDROOT
BRANCH   4  10
ATOM     10  N   LIG    1      -23.566  77.698  35.584  0.00  0.00    -0.308 N 
ATOM     11  C   LIG    1      -23.169  79.015  35.019  0.00  0.00    +0.108 C 
ATOM     12  C   LIG    1      -24.505  79.771  35.095  0.00  0.00    +0.029 C 
ATOM     13  C   LIG    1      -25.188  79.253  36.363  0.00  0.00    +0.021 C 
ATOM     14  C   LIG    1      -24.425  77.988  36.740  0.00  0.00    +0.107 C 
BRANCH  11  15
ATOM     15  C   LIG    1      -22.003  79.681  35.764  0.00  0.00    +0.011 A 
ATOM     16  C   LIG    1      -21.730  81.060  35.736  0.00  0.00    +0.129 A 
ATOM     17  F   LIG    1      -22.501  81.917  35.063  0.00  0.00    -0.205 F 
ATOM     18  C   LIG    1      -20.625  81.633  36.365  0.00  0.00    +0.041 A 
ATOM     19  C   LIG    1      -19.724  80.826  37.037  0.00  0.00    +0.041 A 
ATOM     20  C   LIG    1      -19.957  79.457  37.081  0.00  0.00    +0.124 A 
ATOM     21  F   LIG    1      -19.072  78.673  37.709  0.00  0.00    -0.205 F 
ATOM     22  C   LIG    1      -21.080  78.883  36.467  0.00  0.00    +0.046 A 
ENDBRANCH  11  15
ENDBRANCH   4  10
BRANCH   1  24
ATOM     23  C   LIG    1      -23.151  77.195  29.935  0.00  0.00    +0.238 C 
ATOM     24  N   LIG    1      -24.240  76.574  30.220  0.00  0.00    -0.207 NA
BRANCH  23  29
ATOM     25  N   LIG    1      -19.810  77.941  33.330  0.00  0.00    -0.258 NA
ATOM     26  C   LIG    1      -20.179  77.737  32.125  0.00  0.00    +0.167 A 
ATOM     27  S   LIG    1      -19.208  77.029  30.819  0.00  0.00    -0.058 S 
ATOM     28  C   LIG    1      -20.644  76.734  29.876  0.00  0.00    +0.079 A 
ATOM     29  C   LIG    1      -21.740  77.261  30.444  0.00  0.00    +0.110 A 
ATOM     30  N   LIG    1      -21.456  77.946  31.631  0.00  0.00    -0.330 N 
ATOM     31  H   LIG    1      -22.189  78.012  32.329  0.00  0.00    +0.168 HD
BRANCH  25  33
ATOM     32  C   LIG    1      -17.632  78.597  34.314  0.00  0.00    +0.032 C 
ATOM     33  C   LIG    1      -18.497  77.461  33.784  0.00  0.00    +0.102 C 
ATOM     34  C   LIG    1      -18.762  76.425  34.875  0.00  0.00    +0.032 C 
ENDBRANCH  25  33
ENDBRANCH  23  29
BRANCH  23  35
ATOM     35  O   LIG    1      -23.250  78.051  28.877  0.00  0.00    -0.491 OA
ATOM     36  H   LIG    1      -24.102  78.501  28.827  0.00  0.00    +0.294 HD
ENDBRANCH  23  35
ENDBRANCH   1  24
TORSDOF 6
ENDMDL
MODEL 2
REMARK VINA RESULT:      -5.6     13.778     16.974
REMARK  Name = pdb/CHEMBL3937084.pdb
REMARK                            x       y       z     vdW  Elec       q    Type
REMARK                         _______ _______ _______ _____ _____    ______ ____
ROOT
ATOM      1  C   LIG    1      -35.229  79.200  28.221  0.00  0.00    +0.131 A 
ATOM      2  C   LIG    1      -36.294  78.388  27.906  0.00  0.00    +0.183 A 
ATOM      3  N   LIG    1      -36.697  77.700  26.763  0.00  0.00    -0.211 NA
ATOM      4  C   LIG    1      -37.810  77.003  26.806  0.00  0.00    +0.126 A 
ATOM      5  C   LIG    1      -38.636  76.901  28.073  0.00  0.00    +0.063 A 
ATOM      6  C   LIG    1      -38.191  77.537  29.142  0.00  0.00    +0.118 A 
ATOM      7  N   LIG    1      -37.036  78.282  29.089  0.00  0.00    -0.220 N 
ATOM      8  N   LIG    1      -36.504  79.037  30.100  0.00  0.00    -0.171 NA
ATOM      9  C   LIG    1      -35.383  79.524  29.579  0.00  0.00    +0.165 A 
ENDROOT
BRANCH   4  10
ATOM     10  N   LIG    1      -38.274  76.320  25.654  0.00  0.00    -0.308 N 
ATOM     11  C   LIG    1      -39.705  75.922  25.574  0.00  0.00    +0.108 C 
ATOM     12  C   LIG    1      -40.279  77.086  24.750  0.00  0.00    +0.029 C 
ATOM     13  C   LIG    1      -39.165  77.474  23.775  0.00  0.00    +0.021 C 
ATOM     14  C   LIG    1      -37.907  76.805  24.317  0.00  0.00    +0.107 C 
BRANCH  11  15
ATOM     15  C   LIG    1      -39.926  74.528  24.969  0.00  0.00    +0.011 A 
ATOM     16  C   LIG    1      -39.116  73.411  25.237  0.00  0.00    +0.129 A 
ATOM     17  F   LIG    1      -38.084  73.475  26.080  0.00  0.00    -0.205 F 
ATOM     18  C   LIG    1      -39.297  72.172  24.622  0.00  0.00    +0.041 A 
ATOM     19  C   LIG    1      -40.298  72.013  23.681  0.00  0.00    +0.041 A 
ATOM     20  C   LIG    1      -41.115  73.096  23.385  0.00  0.00    +0.124 A 
ATOM     21  F   LIG    1      -42.068  72.949  22.456  0.00  0.00    -0.205 F 
ATOM     22  C   LIG    1      -40.949  74.336  24.019  0.00  0.00    +0.046 A 
ENDBRANCH  11  15
ENDBRANCH   4  10
BRANCH   1  24
ATOM     23  C   LIG    1      -33.108  78.595  27.432  0.00  0.00    +0.238 C 
ATOM     24  N   LIG    1      -34.083  79.433  27.453  0.00  0.00    -0.207 NA
BRANCH  23  29
ATOM     25  N   LIG    1      -30.675  76.005  30.691  0.00  0.00    -0.258 NA
ATOM     26  C   LIG    1      -31.430  76.123  29.667  0.00  0.00    +0.167 A 
ATOM     27  S   LIG    1      -32.585  74.925  29.051  0.00  0.00    -0.058 S 
ATOM     28  C   LIG    1      -33.374  76.144  28.086  0.00  0.00    +0.079 A 
ATOM     29  C   LIG    1      -32.722  77.318  28.121  0.00  0.00    +0.110 A 
ATOM     30  N   LIG    1      -31.555  77.264  28.892  0.00  0.00    -0.330 N 
ATOM     31  H   LIG    1      -31.229  78.122  29.322  0.00  0.00    +0.168 HD
BRANCH  25  33
ATOM     32  C   LIG    1      -29.449  74.241  31.927  0.00  0.00    +0.032 C 
ATOM     33  C   LIG    1      -30.806  74.829  31.563  0.00  0.00    +0.102 C 
ATOM     34  C   LIG    1      -31.551  75.291  32.813  0.00  0.00    +0.032 C 
ENDBRANCH  25  33
ENDBRANCH  23  29
BRANCH  23  35
ATOM     35  O   LIG    1      -32.114  78.906  26.550  0.00  0.00    -0.491 OA
ATOM     36  H   LIG    1      -32.312  78.644  25.643  0.00  0.00    +0.294 HD
ENDBRANCH  23  35
ENDBRANCH   1  24
TORSDOF 6
ENDMDL
MODEL 3
REMARK VINA RESULT:      -5.5     14.023     17.469
REMARK  Name = pdb/CHEMBL3937084.pdb
REMARK                            x       y       z     vdW  Elec       q    Type
REMARK                         _______ _______ _______ _____ _____    ______ ____
ROOT
ATOM      1  C   LIG    1      -35.201  79.354  28.162  0.00  0.00    +0.131 A 
ATOM      2  C   LIG    1      -36.286  78.573  27.840  0.00  0.00    +0.183 A 
ATOM      3  N   LIG    1      -36.642  77.798  26.738  0.00  0.00    -0.211 NA
ATOM      4  C   LIG    1      -37.795  77.168  26.756  0.00  0.00    +0.126 A 
ATOM      5  C   LIG    1      -38.719  77.234  27.955  0.00  0.00    +0.063 A 
ATOM      6  C   LIG    1      -38.319  77.948  28.992  0.00  0.00    +0.118 A 
ATOM      7  N   LIG    1      -37.120  78.623  28.963  0.00  0.00    -0.220 N 
ATOM      8  N   LIG    1      -36.622  79.444  29.939  0.00  0.00    -0.171 NA
ATOM      9  C   LIG    1      -35.437  79.818  29.467  0.00  0.00    +0.165 A 
ENDROOT
BRANCH   4  10
ATOM     10  N   LIG    1      -38.212  76.400  25.639  0.00  0.00    -0.308 N 
ATOM     11  C   LIG    1      -39.601  75.870  25.601  0.00  0.00    +0.108 C 
ATOM     12  C   LIG    1      -40.291  76.944  24.743  0.00  0.00    +0.029 C 
ATOM     13  C   LIG    1      -39.232  77.392  23.733  0.00  0.00    +0.021 C 
ATOM     14  C   LIG    1      -37.910  76.863  24.278  0.00  0.00    +0.107 C 
BRANCH  11  15
ATOM     15  C   LIG    1      -39.702  74.439  25.053  0.00  0.00    +0.011 A 
ATOM     16  C   LIG    1      -38.796  73.408  25.359  0.00  0.00    +0.129 A 
ATOM     17  F   LIG    1      -37.771  73.596  26.192  0.00  0.00    -0.205 F 
ATOM     18  C   LIG    1      -38.870  72.135  24.796  0.00  0.00    +0.041 A 
ATOM     19  C   LIG    1      -39.858  71.851  23.869  0.00  0.00    +0.041 A 
ATOM     20  C   LIG    1      -40.767  72.847  23.536  0.00  0.00    +0.124 A 
ATOM     21  F   LIG    1      -41.707  72.580  22.621  0.00  0.00    -0.205 F 
ATOM     22  C   LIG    1      -40.708  74.121  24.120  0.00  0.00    +0.046 A 
ENDBRANCH  11  15
ENDBRANCH   4  10
BRANCH   1  24
ATOM     23  C   LIG    1      -33.146  78.479  27.458  0.00  0.00    +0.238 C 
ATOM     24  N   LIG    1      -33.989  79.450  27.470  0.00  0.00    -0.207 NA
BRANCH  23  29
ATOM     25  N   LIG    1      -34.414  73.894  28.240  0.00  0.00    -0.258 NA
ATOM     26  C   LIG    1      -33.732  74.943  28.494  0.00  0.00    +0.167 A 
ATOM     27  S   LIG    1      -32.152  75.018  29.299  0.00  0.00    -0.058 S 
ATOM     28  C   LIG    1      -31.905  76.644  28.720  0.00  0.00    +0.079 A 
ATOM     29  C   LIG    1      -32.991  77.130  28.098  0.00  0.00    +0.110 A 
ATOM     30  N   LIG    1      -34.062  76.229  28.098  0.00  0.00    -0.330 N 
ATOM     31  H   LIG    1      -34.738  76.294  27.346  0.00  0.00    +0.168 HD
BRANCH  25  33
ATOM     32  C   LIG    1      -34.212  72.064  29.899  0.00  0.00    +0.032 C 
ATOM     33  C   LIG    1      -33.842  72.567  28.509  0.00  0.00    +0.102 C 
ATOM     34  C   LIG    1      -34.380  71.630  27.431  0.00  0.00    +0.032 C 
ENDBRANCH  25  33
ENDBRANCH  23  29
BRANCH  23  35
ATOM     35  O   LIG    1      -32.065  78.680  26.649  0.00  0.00    -0.491 OA
ATOM     36  H   LIG    1      -31.412  79.283  27.025  0.00  0.00    +0.294 HD
ENDBRANCH  23  35
ENDBRANCH   1  24
TORSDOF 6
ENDMDL
MODEL 4
REMARK VINA RESULT:      -5.4     19.071     22.624
REMARK  Name = pdb/CHEMBL3937084.pdb
REMARK                            x       y       z     vdW  Elec       q    Type
REMARK                         _______ _______ _______ _____ _____    ______ ____
ROOT
ATOM      1  C   LIG    1      -18.691  86.221  13.322  0.00  0.00    +0.131 A 
ATOM      2  C   LIG    1      -19.371  85.029  13.398  0.00  0.00    +0.183 A 
ATOM      3  N   LIG    1      -20.570  84.621  13.980  0.00  0.00    -0.211 NA
ATOM      4  C   LIG    1      -20.931  83.363  13.867  0.00  0.00    +0.126 A 
ATOM      5  C   LIG    1      -20.097  82.364  13.091  0.00  0.00    +0.063 A 
ATOM      6  C   LIG    1      -18.990  82.807  12.522  0.00  0.00    +0.118 A 
ATOM      7  N   LIG    1      -18.605  84.121  12.659  0.00  0.00    -0.220 N 
ATOM      8  N   LIG    1      -17.455  84.688  12.178  0.00  0.00    -0.171 NA
ATOM      9  C   LIG    1      -17.560  85.966  12.528  0.00  0.00    +0.165 A 
ENDROOT
BRANCH   4  10
ATOM     10  N   LIG    1      -22.124  82.900  14.477  0.00  0.00    -0.308 N 
ATOM     11  C   LIG    1      -22.217  81.478  14.902  0.00  0.00    +0.108 C 
ATOM     12  C   LIG    1      -21.857  81.603  16.392  0.00  0.00    +0.029 C 
ATOM     13  C   LIG    1      -22.440  82.947  16.834  0.00  0.00    +0.021 C 
ATOM     14  C   LIG    1      -22.758  83.690  15.541  0.00  0.00    +0.107 C 
BRANCH  11  15
ATOM     15  C   LIG    1      -23.582  80.835  14.616  0.00  0.00    +0.011 A 
ATOM     16  C   LIG    1      -24.185  79.862  15.433  0.00  0.00    +0.129 A 
ATOM     17  F   LIG    1      -23.613  79.434  16.559  0.00  0.00    -0.205 F 
ATOM     18  C   LIG    1      -25.394  79.243  15.116  0.00  0.00    +0.041 A 
ATOM     19  C   LIG    1      -26.041  79.565  13.936  0.00  0.00    +0.041 A 
ATOM     20  C   LIG    1      -25.472  80.518  13.101  0.00  0.00    +0.124 A 
ATOM     21  F   LIG    1      -26.085  80.810  11.947  0.00  0.00    -0.205 F 
ATOM     22  C   LIG    1      -24.268  81.157  13.429  0.00  0.00    +0.046 A 
ENDBRANCH  11  15
ENDBRANCH   4  10
BRANCH   1  24
ATOM     23  C   LIG    1      -20.192  88.012  13.165  0.00  0.00    +0.238 C 
ATOM     24  N   LIG    1      -19.149  87.487  13.703  0.00  0.00    -0.207 NA
BRANCH  23  29
ATOM     25  N   LIG    1      -24.501  86.746  11.411  0.00  0.00    -0.258 NA
ATOM     26  C   LIG    1      -23.251  86.981  11.294  0.00  0.00    +0.167 A 
ATOM     27  S   LIG    1      -22.389  87.452   9.816  0.00  0.00    -0.058 S 
ATOM     28  C   LIG    1      -21.020  87.986  10.754  0.00  0.00    +0.079 A 
ATOM     29  C   LIG    1      -21.154  87.694  12.057  0.00  0.00    +0.110 A 
ATOM     30  N   LIG    1      -22.339  87.003  12.337  0.00  0.00    -0.330 N 
ATOM     31  H   LIG    1      -22.737  87.098  13.264  0.00  0.00    +0.168 HD
BRANCH  25  33
ATOM     32  C   LIG    1      -26.549  85.983  10.243  0.00  0.00    +0.032 C 
ATOM     33  C   LIG    1      -25.399  86.981  10.272  0.00  0.00    +0.102 C 
ATOM     34  C   LIG    1      -25.922  88.409  10.414  0.00  0.00    +0.032 C 
ENDBRANCH  25  33
ENDBRANCH  23  29
BRANCH  23  35
ATOM     35  O   LIG    1      -20.578  89.197  13.722  0.00  0.00    -0.491 OA
ATOM     36  H   LIG    1      -21.445  89.496  13.423  0.00  0.00    +0.294 HD
ENDBRANCH  23  35
ENDBRANCH   1  24
TORSDOF 6
ENDMDL
MODEL 5
REMARK VINA RESULT:      -5.4     14.523     17.804
REMARK  Name = pdb/CHEMBL3937084.pdb
REMARK                            x       y       z     vdW  Elec       q    Type
REMARK                         _______ _______ _______ _____ _____    ______ ____
ROOT
ATOM      1  C   LIG    1      -33.658  76.624  28.293  0.00  0.00    +0.131 A 
ATOM      2  C   LIG    1      -34.840  76.019  27.934  0.00  0.00    +0.183 A 
ATOM      3  N   LIG    1      -35.681  76.093  26.826  0.00  0.00    -0.211 NA
ATOM      4  C   LIG    1      -36.772  75.361  26.811  0.00  0.00    +0.126 A 
ATOM      5  C   LIG    1      -37.112  74.418  27.948  0.00  0.00    +0.063 A 
ATOM      6  C   LIG    1      -36.263  74.353  28.958  0.00  0.00    +0.118 A 
ATOM      7  N   LIG    1      -35.131  75.134  28.979  0.00  0.00    -0.220 N 
ATOM      8  N   LIG    1      -34.209  75.209  29.990  0.00  0.00    -0.171 NA
ATOM      9  C   LIG    1      -33.297  76.057  29.526  0.00  0.00    +0.165 A 
ENDROOT
BRANCH   4  10
ATOM     10  N   LIG    1      -37.673  75.436  25.719  0.00  0.00    -0.308 N 
ATOM     11  C   LIG    1      -39.137  75.405  25.983  0.00  0.00    +0.108 C 
ATOM     12  C   LIG    1      -39.460  76.908  25.967  0.00  0.00    +0.029 C 
ATOM     13  C   LIG    1      -38.520  77.509  24.920  0.00  0.00    +0.021 C 
ATOM     14  C   LIG    1      -37.466  76.438  24.665  0.00  0.00    +0.107 C 
BRANCH  11  15
ATOM     15  C   LIG    1      -39.929  74.560  24.975  0.00  0.00    +0.011 A 
ATOM     16  C   LIG    1      -41.171  74.934  24.431  0.00  0.00    +0.129 A 
ATOM     17  F   LIG    1      -41.754  76.093  24.740  0.00  0.00    -0.205 F 
ATOM     18  C   LIG    1      -41.903  74.118  23.569  0.00  0.00    +0.041 A 
ATOM     19  C   LIG    1      -41.421  72.866  23.234  0.00  0.00    +0.041 A 
ATOM     20  C   LIG    1      -40.200  72.459  23.757  0.00  0.00    +0.124 A 
ATOM     21  F   LIG    1      -39.745  71.237  23.453  0.00  0.00    -0.205 F 
ATOM     22  C   LIG    1      -39.452  73.288  24.606  0.00  0.00    +0.046 A 
ENDBRANCH  11  15
ENDBRANCH   4  10
BRANCH   1  24
ATOM     23  C   LIG    1      -32.976  78.697  27.443  0.00  0.00    +0.238 C 
ATOM     24  N   LIG    1      -32.834  77.420  27.490  0.00  0.00    -0.207 NA
BRANCH  23  29
ATOM     25  N   LIG    1      -36.294  82.168  27.012  0.00  0.00    -0.258 NA
ATOM     26  C   LIG    1      -35.454  81.476  27.680  0.00  0.00    +0.167 A 
ATOM     27  S   LIG    1      -35.462  81.191  29.432  0.00  0.00    -0.058 S 
ATOM     28  C   LIG    1      -34.360  79.853  29.245  0.00  0.00    +0.079 A 
ATOM     29  C   LIG    1      -33.917  79.734  27.984  0.00  0.00    +0.110 A 
ATOM     30  N   LIG    1      -34.419  80.731  27.139  0.00  0.00    -0.330 N 
ATOM     31  H   LIG    1      -34.503  80.519  26.151  0.00  0.00    +0.168 HD
BRANCH  25  33
ATOM     32  C   LIG    1      -37.599  84.225  27.470  0.00  0.00    +0.032 C 
ATOM     33  C   LIG    1      -37.481  82.720  27.680  0.00  0.00    +0.102 C 
ATOM     34  C   LIG    1      -38.691  81.994  27.096  0.00  0.00    +0.032 C 
ENDBRANCH  25  33
ENDBRANCH  23  29
BRANCH  23  35
ATOM     35  O   LIG    1      -32.026  79.343  26.706  0.00  0.00    -0.491 OA
ATOM     36  H   LIG    1      -32.152  79.250  25.753  0.00  0.00    +0.294 HD
ENDBRANCH  23  35
ENDBRANCH   1  24
TORSDOF 6
ENDMDL
MODEL 6
REMARK VINA RESULT:      -5.3      2.468      4.708
REMARK  Name = pdb/CHEMBL3937084.pdb
REMARK                            x       y       z     vdW  Elec       q    Type
REMARK                         _______ _______ _______ _____ _____    ______ ____
ROOT
ATOM      1  C   LIG    1      -24.067  75.663  31.041  0.00  0.00    +0.131 A 
ATOM      2  C   LIG    1      -22.981  76.030  31.801  0.00  0.00    +0.183 A 
ATOM      3  N   LIG    1      -22.514  77.234  32.323  0.00  0.00    -0.211 NA
ATOM      4  C   LIG    1      -21.400  77.229  33.020  0.00  0.00    +0.126 A 
ATOM      5  C   LIG    1      -20.640  75.947  33.297  0.00  0.00    +0.063 A 
ATOM      6  C   LIG    1      -21.146  74.825  32.815  0.00  0.00    +0.118 A 
ATOM      7  N   LIG    1      -22.302  74.836  32.070  0.00  0.00    -0.220 N 
ATOM      8  N   LIG    1      -22.892  73.759  31.464  0.00  0.00    -0.171 NA
ATOM      9  C   LIG    1      -23.988  74.267  30.909  0.00  0.00    +0.165 A 
ENDROOT
BRANCH   4  10
ATOM     10  N   LIG    1      -20.870  78.439  33.536  0.00  0.00    -0.308 N 
ATOM     11  C   LIG    1      -20.593  78.546  34.994  0.00  0.00    +0.108 C 
ATOM     12  C   LIG    1      -19.090  78.224  35.022  0.00  0.00    +0.029 C 
ATOM     13  C   LIG    1      -18.529  78.813  33.726  0.00  0.00    +0.021 C 
ATOM     14  C   LIG    1      -19.747  79.097  32.855  0.00  0.00    +0.107 C 
BRANCH  11  15
ATOM     15  C   LIG    1      -20.976  79.905  35.597  0.00  0.00    +0.011 A 
ATOM     16  C   LIG    1      -22.104  80.652  35.215  0.00  0.00    +0.129 A 
ATOM     17  F   LIG    1      -22.962  80.210  34.293  0.00  0.00    -0.205 F 
ATOM     18  C   LIG    1      -22.394  81.915  35.729  0.00  0.00    +0.041 A 
ATOM     19  C   LIG    1      -21.534  82.497  36.644  0.00  0.00    +0.041 A 
ATOM     20  C   LIG    1      -20.406  81.792  37.042  0.00  0.00    +0.124 A 
ATOM     21  F   LIG    1      -19.561  82.365  37.908  0.00  0.00    -0.205 F 
ATOM     22  C   LIG    1      -20.126  80.512  36.542  0.00  0.00    +0.046 A 
ENDBRANCH  11  15
ENDBRANCH   4  10
BRANCH   1  24
ATOM     23  C   LIG    1      -25.884  77.030  31.606  0.00  0.00    +0.238 C 
ATOM     24  N   LIG    1      -25.173  76.451  30.704  0.00  0.00    -0.207 NA
BRANCH  23  29
ATOM     25  N   LIG    1      -25.435  79.167  35.904  0.00  0.00    -0.258 NA
ATOM     26  C   LIG    1      -25.627  78.150  35.156  0.00  0.00    +0.167 A 
ATOM     27  S   LIG    1      -26.474  76.652  35.589  0.00  0.00    -0.058 S 
ATOM     28  C   LIG    1      -26.627  76.221  33.907  0.00  0.00    +0.079 A 
ATOM     29  C   LIG    1      -25.965  77.070  33.105  0.00  0.00    +0.110 A 
ATOM     30  N   LIG    1      -25.287  78.067  33.815  0.00  0.00    -0.330 N 
ATOM     31  H   LIG    1      -25.120  78.952  33.350  0.00  0.00    +0.168 HD
BRANCH  25  33
ATOM     32  C   LIG    1      -25.096  79.796  38.277  0.00  0.00    +0.032 C 
ATOM     33  C   LIG    1      -26.049  79.218  37.238  0.00  0.00    +0.102 C 
ATOM     34  C   LIG    1      -27.302  80.081  37.111  0.00  0.00    +0.032 C 
ENDBRANCH  25  33
ENDBRANCH  23  29
BRANCH  23  35
ATOM     35  O   LIG    1      -26.856  77.853  31.116  0.00  0.00    -0.491 OA
ATOM     36  H   LIG    1      -27.702  77.409  30.981  0.00  0.00    +0.294 HD
ENDBRANCH  23  35
ENDBRANCH   1  24
TORSDOF 6
ENDMDL
MODEL 7
REMARK VINA RESULT:      -5.2     11.702     13.781
REMARK  Name = pdb/CHEMBL3937084.pdb
REMARK                            x       y       z     vdW  Elec       q    Type
REMARK                         _______ _______ _______ _____ _____    ______ ____
ROOT
ATOM      1  C   LIG    1      -35.003  80.259  28.027  0.00  0.00    +0.131 A 
ATOM      2  C   LIG    1      -35.407  81.336  28.780  0.00  0.00    +0.183 A 
ATOM      3  N   LIG    1      -34.888  82.604  29.032  0.00  0.00    -0.211 NA
ATOM      4  C   LIG    1      -35.548  83.408  29.834  0.00  0.00    +0.126 A 
ATOM      5  C   LIG    1      -36.869  83.003  30.455  0.00  0.00    +0.063 A 
ATOM      6  C   LIG    1      -37.341  81.806  30.153  0.00  0.00    +0.118 A 
ATOM      7  N   LIG    1      -36.639  80.959  29.327  0.00  0.00    -0.220 N 
ATOM      8  N   LIG    1      -36.983  79.678  28.990  0.00  0.00    -0.171 NA
ATOM      9  C   LIG    1      -36.022  79.300  28.152  0.00  0.00    +0.165 A 
ENDROOT
BRANCH   4  10
ATOM     10  N   LIG    1      -35.034  84.692  30.147  0.00  0.00    -0.308 N 
ATOM     11  C   LIG    1      -34.401  85.502  29.072  0.00  0.00    +0.108 C 
ATOM     12  C   LIG    1      -35.579  86.401  28.662  0.00  0.00    +0.029 C 
ATOM     13  C   LIG    1      -36.354  86.662  29.956  0.00  0.00    +0.021 C 
ATOM     14  C   LIG    1      -35.836  85.627  30.948  0.00  0.00    +0.107 C 
BRANCH  11  15
ATOM     15  C   LIG    1      -33.140  86.252  29.525  0.00  0.00    +0.011 A 
ATOM     16  C   LIG    1      -32.075  85.660  30.226  0.00  0.00    +0.129 A 
ATOM     17  F   LIG    1      -32.071  84.362  30.535  0.00  0.00    -0.205 F 
ATOM     18  C   LIG    1      -30.971  86.377  30.686  0.00  0.00    +0.041 A 
ATOM     19  C   LIG    1      -30.905  87.743  30.478  0.00  0.00    +0.041 A 
ATOM     20  C   LIG    1      -31.941  88.365  29.793  0.00  0.00    +0.124 A 
ATOM     21  F   LIG    1      -31.890  89.691  29.613  0.00  0.00    -0.205 F 
ATOM     22  C   LIG    1      -33.041  87.641  29.311  0.00  0.00    +0.046 A 
ENDBRANCH  11  15
ENDBRANCH   4  10
BRANCH   1  24
ATOM     23  C   LIG    1      -33.234  79.157  26.958  0.00  0.00    +0.238 C 
ATOM     24  N   LIG    1      -33.952  80.214  27.104  0.00  0.00    -0.207 NA
BRANCH  23  29
ATOM     25  N   LIG    1      -31.842  76.169  30.477  0.00  0.00    -0.258 NA
ATOM     26  C   LIG    1      -32.298  76.415  29.310  0.00  0.00    +0.167 A 
ATOM     27  S   LIG    1      -33.300  75.346  28.309  0.00  0.00    -0.058 S 
ATOM     28  C   LIG    1      -33.759  76.685  27.291  0.00  0.00    +0.079 A 
ATOM     29  C   LIG    1      -33.093  77.808  27.601  0.00  0.00    +0.110 A 
ATOM     30  N   LIG    1      -32.170  77.620  28.637  0.00  0.00    -0.330 N 
ATOM     31  H   LIG    1      -31.934  78.419  29.214  0.00  0.00    +0.168 HD
BRANCH  25  33
ATOM     32  C   LIG    1      -31.163  73.868  31.099  0.00  0.00    +0.032 C 
ATOM     33  C   LIG    1      -32.244  74.939  31.174  0.00  0.00    +0.102 C 
ATOM     34  C   LIG    1      -32.525  75.327  32.623  0.00  0.00    +0.032 C 
ENDBRANCH  25  33
ENDBRANCH  23  29
BRANCH  23  35
ATOM     35  O   LIG    1      -32.324  79.229  25.943  0.00  0.00    -0.491 OA
ATOM     36  H   LIG    1      -32.039  80.130  25.747  0.00  0.00    +0.294 HD
ENDBRANCH  23  35
ENDBRANCH   1  24
TORSDOF 6
ENDMDL
MODEL 8
REMARK VINA RESULT:      -5.2     18.996     22.343
REMARK  Name = pdb/CHEMBL3937084.pdb
REMARK                            x       y       z     vdW  Elec       q    Type
REMARK                         _______ _______ _______ _____ _____    ______ ____
ROOT
ATOM      1  C   LIG    1      -19.923  86.663  13.954  0.00  0.00    +0.131 A 
ATOM      2  C   LIG    1      -20.170  85.334  13.704  0.00  0.00    +0.183 A 
ATOM      3  N   LIG    1      -21.055  84.389  14.220  0.00  0.00    -0.211 NA
ATOM      4  C   LIG    1      -21.018  83.165  13.745  0.00  0.00    +0.126 A 
ATOM      5  C   LIG    1      -20.068  82.772  12.631  0.00  0.00    +0.063 A 
ATOM      6  C   LIG    1      -19.277  83.713  12.147  0.00  0.00    +0.118 A 
ATOM      7  N   LIG    1      -19.305  84.990  12.659  0.00  0.00    -0.220 N 
ATOM      8  N   LIG    1      -18.498  86.034  12.293  0.00  0.00    -0.171 NA
ATOM      9  C   LIG    1      -18.932  87.048  13.035  0.00  0.00    +0.165 A 
ENDROOT
BRANCH   4  10
ATOM     10  N   LIG    1      -21.875  82.164  14.269  0.00  0.00    -0.308 N 
ATOM     11  C   LIG    1      -21.297  80.858  14.684  0.00  0.00    +0.108 C 
ATOM     12  C   LIG    1      -21.133  81.088  16.195  0.00  0.00    +0.029 C 
ATOM     13  C   LIG    1      -22.316  81.971  16.598  0.00  0.00    +0.021 C 
ATOM     14  C   LIG    1      -22.874  82.514  15.288  0.00  0.00    +0.107 C 
BRANCH  11  15
ATOM     15  C   LIG    1      -22.164  79.649  14.302  0.00  0.00    +0.011 A 
ATOM     16  C   LIG    1      -22.954  79.576  13.142  0.00  0.00    +0.129 A 
ATOM     17  F   LIG    1      -22.988  80.567  12.250  0.00  0.00    -0.205 F 
ATOM     18  C   LIG    1      -23.785  78.494  12.851  0.00  0.00    +0.041 A 
ATOM     19  C   LIG    1      -23.875  77.440  13.742  0.00  0.00    +0.041 A 
ATOM     20  C   LIG    1      -23.114  77.479  14.903  0.00  0.00    +0.124 A 
ATOM     21  F   LIG    1      -23.220  76.471  15.777  0.00  0.00    -0.205 F 
ATOM     22  C   LIG    1      -22.260  78.556  15.185  0.00  0.00    +0.046 A 
ENDBRANCH  11  15
ENDBRANCH   4  10
BRANCH   1  24
ATOM     23  C   LIG    1      -21.850  87.919  14.392  0.00  0.00    +0.238 C 
ATOM     24  N   LIG    1      -20.677  87.533  14.749  0.00  0.00    -0.207 NA
BRANCH  23  29
ATOM     25  N   LIG    1      -25.036  85.580  11.631  0.00  0.00    -0.258 NA
ATOM     26  C   LIG    1      -24.225  86.538  11.867  0.00  0.00    +0.167 A 
ATOM     27  S   LIG    1      -24.250  88.159  11.145  0.00  0.00    -0.058 S 
ATOM     28  C   LIG    1      -23.197  88.761  12.398  0.00  0.00    +0.079 A 
ATOM     29  C   LIG    1      -22.755  87.781  13.202  0.00  0.00    +0.110 A 
ATOM     30  N   LIG    1      -23.216  86.517  12.817  0.00  0.00    -0.330 N 
ATOM     31  H   LIG    1      -23.304  85.805  13.533  0.00  0.00    +0.168 HD
BRANCH  25  33
ATOM     32  C   LIG    1      -25.961  85.322   9.346  0.00  0.00    +0.032 C 
ATOM     33  C   LIG    1      -26.204  85.808  10.769  0.00  0.00    +0.102 C 
ATOM     34  C   LIG    1      -27.373  85.061  11.406  0.00  0.00    +0.032 C 
ENDBRANCH  25  33
ENDBRANCH  23  29
BRANCH  23  35
ATOM     35  O   LIG    1      -22.504  88.673  15.324  0.00  0.00    -0.491 OA
ATOM     36  H   LIG    1      -21.929  89.295  15.785  0.00  0.00    +0.294 HD
ENDBRANCH  23  35
ENDBRANCH   1  24
TORSDOF 6
ENDMDL
MODEL 9
REMARK VINA RESULT:      -5.2      2.183      3.050
REMARK  Name = pdb/CHEMBL3937084.pdb
REMARK                            x       y       z     vdW  Elec       q    Type
REMARK                         _______ _______ _______ _____ _____    ______ ____
ROOT
ATOM      1  C   LIG    1      -25.072  76.332  31.493  0.00  0.00    +0.131 A 
ATOM      2  C   LIG    1      -25.101  76.906  32.742  0.00  0.00    +0.183 A 
ATOM      3  N   LIG    1      -24.680  78.124  33.269  0.00  0.00    -0.211 NA
ATOM      4  C   LIG    1      -24.859  78.353  34.551  0.00  0.00    +0.126 A 
ATOM      5  C   LIG    1      -25.543  77.343  35.450  0.00  0.00    +0.063 A 
ATOM      6  C   LIG    1      -25.963  76.220  34.895  0.00  0.00    +0.118 A 
ATOM      7  N   LIG    1      -25.756  75.975  33.557  0.00  0.00    -0.220 N 
ATOM      8  N   LIG    1      -26.082  74.832  32.877  0.00  0.00    -0.171 NA
ATOM      9  C   LIG    1      -25.725  75.095  31.624  0.00  0.00    +0.165 A 
ENDROOT
BRANCH   4  10
ATOM     10  N   LIG    1      -24.410  79.565  35.134  0.00  0.00    -0.308 N 
ATOM     11  C   LIG    1      -24.189  79.624  36.604  0.00  0.00    +0.108 C 
ATOM     12  C   LIG    1      -22.673  79.375  36.674  0.00  0.00    +0.029 C 
ATOM     13  C   LIG    1      -22.099  80.047  35.424  0.00  0.00    +0.021 C 
ATOM     14  C   LIG    1      -23.299  80.306  34.522  0.00  0.00    +0.107 C 
BRANCH  11  15
ATOM     15  C   LIG    1      -24.662  80.935  37.248  0.00  0.00    +0.011 A 
ATOM     16  C   LIG    1      -26.001  81.362  37.285  0.00  0.00    +0.129 A 
ATOM     17  F   LIG    1      -26.988  80.625  36.772  0.00  0.00    -0.205 F 
ATOM     18  C   LIG    1      -26.397  82.589  37.815  0.00  0.00    +0.041 A 
ATOM     19  C   LIG    1      -25.445  83.460  38.314  0.00  0.00    +0.041 A 
ATOM     20  C   LIG    1      -24.110  83.076  38.289  0.00  0.00    +0.124 A 
ATOM     21  F   LIG    1      -23.186  83.929  38.749  0.00  0.00    -0.205 F 
ATOM     22  C   LIG    1      -23.713  81.832  37.777  0.00  0.00    +0.046 A 
ENDBRANCH  11  15
ENDBRANCH   4  10
BRANCH   1  24
ATOM     23  C   LIG    1      -23.499  77.098  29.935  0.00  0.00    +0.238 C 
ATOM     24  N   LIG    1      -24.728  76.946  30.283  0.00  0.00    -0.207 NA
BRANCH  23  29
ATOM     25  N   LIG    1      -19.426  78.519  32.089  0.00  0.00    -0.258 NA
ATOM     26  C   LIG    1      -20.151  77.659  31.484  0.00  0.00    +0.167 A 
ATOM     27  S   LIG    1      -19.996  75.893  31.559  0.00  0.00    -0.058 S 
ATOM     28  C   LIG    1      -21.599  75.699  30.901  0.00  0.00    +0.079 A 
ATOM     29  C   LIG    1      -22.137  76.870  30.525  0.00  0.00    +0.110 A 
ATOM     30  N   LIG    1      -21.269  77.950  30.719  0.00  0.00    -0.330 N 
ATOM     31  H   LIG    1      -21.676  78.866  30.871  0.00  0.00    +0.168 HD
BRANCH  25  33
ATOM     32  C   LIG    1      -17.006  78.456  32.617  0.00  0.00    +0.032 C 
ATOM     33  C   LIG    1      -18.413  78.071  33.055  0.00  0.00    +0.102 C 
ATOM     34  C   LIG    1      -18.763  78.720  34.392  0.00  0.00    +0.032 C 
ENDBRANCH  25  33
ENDBRANCH  23  29
BRANCH  23  35
ATOM     35  O   LIG    1      -23.327  77.610  28.681  0.00  0.00    -0.491 OA
ATOM     36  H   LIG    1      -23.696  77.051  27.986  0.00  0.00    +0.294 HD
ENDBRANCH  23  35
ENDBRANCH   1  24
TORSDOF 6
ENDMDL
