MODEL 1
REMARK VINA RESULT:      -6.9      0.000      0.000
REMARK  Name = pdb/CHEMBL3930367.pdb
REMARK                            x       y       z     vdW  Elec       q    Type
REMARK                         _______ _______ _______ _____ _____    ______ ____
ROOT
ATOM      1  C   LIG    1      -37.411  77.181  26.690  0.00  0.00    +0.149 A 
ATOM      2  N   LIG    1      -38.663  77.590  26.441  0.00  0.00    -0.160 NA
ATOM      3  N   LIG    1      -39.140  76.726  25.506  0.00  0.00    -0.218 N 
ATOM      4  C   LIG    1      -38.262  75.649  25.324  0.00  0.00    +0.129 A 
ATOM      5  C   LIG    1      -37.137  75.963  26.036  0.00  0.00    +0.078 A 
ENDROOT
BRANCH   3   6
ATOM      6  C   LIG    1      -40.399  76.988  24.891  0.00  0.00    +0.067 A 
ATOM      7  C   LIG    1      -40.765  76.399  23.674  0.00  0.00    +0.028 A 
ATOM      8  C   LIG    1      -42.006  76.696  23.096  0.00  0.00    +0.002 A 
ATOM      9  C   LIG    1      -42.883  77.581  23.721  0.00  0.00    +0.000 A 
ATOM     10  C   LIG    1      -42.516  78.186  24.921  0.00  0.00    +0.002 A 
ATOM     11  C   LIG    1      -41.275  77.904  25.498  0.00  0.00    +0.028 A 
ENDBRANCH   3   6
BRANCH   4  12
ATOM     12  N   LIG    1      -38.493  74.452  24.643  0.00  0.00    -0.266 N 
ATOM     13  H   LIG    1      -38.201  74.423  23.676  0.00  0.00    +0.157 HD
ATOM     14  C   LIG    1      -39.199  73.320  25.201  0.00  0.00    +0.251 C 
ATOM     15  O   LIG    1      -39.633  73.344  26.336  0.00  0.00    -0.270 OA
BRANCH  14  16
ATOM     16  C   LIG    1      -39.398  72.120  24.325  0.00  0.00    +0.056 A 
ATOM     17  C   LIG    1      -40.544  71.856  23.600  0.00  0.00    +0.054 A 
ATOM     18 CL   LIG    1      -41.923  72.884  23.492  0.00  0.00    -0.083 Cl
ATOM     19  C   LIG    1      -40.656  70.658  22.904  0.00  0.00    +0.041 A 
ATOM     20  C   LIG    1      -39.624  69.706  22.907  0.00  0.00    +0.052 A 
ATOM     21 CL   LIG    1      -40.058  68.199  22.181  0.00  0.00    -0.083 Cl
ATOM     22  C   LIG    1      -38.399  69.956  23.552  0.00  0.00    +0.022 A 
ATOM     23  C   LIG    1      -38.329  71.181  24.279  0.00  0.00    +0.026 A 
BRANCH  22  24
ATOM     24  C   LIG    1      -37.214  69.043  23.573  0.00  0.00    +0.107 A 
ATOM     25  C   LIG    1      -36.585  68.489  22.454  0.00  0.00    +0.149 A 
ATOM     26  F   LIG    1      -36.954  68.797  21.204  0.00  0.00    -0.203 F 
ATOM     27  C   LIG    1      -35.489  67.639  22.611  0.00  0.00    +0.042 A 
ATOM     28  C   LIG    1      -34.988  67.397  23.882  0.00  0.00    +0.023 A 
ATOM     29  C   LIG    1      -35.616  68.018  24.946  0.00  0.00    +0.111 A 
ATOM     30  N   LIG    1      -36.709  68.813  24.823  0.00  0.00    -0.252 NA
ENDBRANCH  22  24
ENDBRANCH  14  16
ENDBRANCH   4  12
BRANCH   1  31
ATOM     31  C   LIG    1      -36.484  77.875  27.572  0.00  0.00    +0.236 C 
ATOM     32  N   LIG    1      -35.263  77.479  27.634  0.00  0.00    -0.246 NA
BRANCH  31  33
ATOM     33  O   LIG    1      -37.019  78.850  28.330  0.00  0.00    -0.491 OA
ATOM     34  H   LIG    1      -37.793  79.237  27.885  0.00  0.00    +0.294 HD
ENDBRANCH  31  33
BRANCH  32  35
ATOM     35  C   LIG    1      -34.291  78.235  28.426  0.00  0.00    +0.184 C 
BRANCH  35  36
ATOM     36  C   LIG    1      -32.900  78.109  27.813  0.00  0.00    +0.132 C 
ATOM     37  C   LIG    1      -32.529  79.256  26.852  0.00  0.00    +0.198 C 
ATOM     38  O   LIG    1      -32.291  78.333  25.763  0.00  0.00    -0.374 OA
ATOM     39  C   LIG    1      -32.818  77.235  26.541  0.00  0.00    +0.198 C 
BRANCH  36  40
ATOM     40  O   LIG    1      -31.935  77.843  28.875  0.00  0.00    -0.382 OA
ATOM     41  H   LIG    1      -31.249  77.297  28.446  0.00  0.00    +0.210 HD
ENDBRANCH  36  40
ENDBRANCH  35  36
ENDBRANCH  32  35
ENDBRANCH   1  31
TORSDOF 9
ENDMDL
MODEL 2
REMARK VINA RESULT:      -6.9      3.776      4.325
REMARK  Name = pdb/CHEMBL3930367.pdb
REMARK                            x       y       z     vdW  Elec       q    Type
REMARK                         _______ _______ _______ _____ _____    ______ ____
ROOT
ATOM      1  C   LIG    1      -37.072  76.508  26.156  0.00  0.00    +0.149 A 
ATOM      2  N   LIG    1      -37.734  77.669  26.262  0.00  0.00    -0.160 NA
ATOM      3  N   LIG    1      -38.712  77.607  25.320  0.00  0.00    -0.218 N 
ATOM      4  C   LIG    1      -38.797  76.322  24.768  0.00  0.00    +0.129 A 
ATOM      5  C   LIG    1      -37.720  75.636  25.260  0.00  0.00    +0.078 A 
ENDROOT
BRANCH   3   6
ATOM      6  C   LIG    1      -39.496  78.767  25.051  0.00  0.00    +0.067 A 
ATOM      7  C   LIG    1      -40.368  79.308  26.004  0.00  0.00    +0.028 A 
ATOM      8  C   LIG    1      -41.132  80.441  25.694  0.00  0.00    +0.002 A 
ATOM      9  C   LIG    1      -41.037  81.033  24.436  0.00  0.00    +0.000 A 
ATOM     10  C   LIG    1      -40.188  80.487  23.476  0.00  0.00    +0.002 A 
ATOM     11  C   LIG    1      -39.431  79.351  23.775  0.00  0.00    +0.028 A 
ENDBRANCH   3   6
BRANCH   4  12
ATOM     12  N   LIG    1      -39.805  75.795  23.959  0.00  0.00    -0.266 N 
ATOM     13  H   LIG    1      -39.572  75.657  22.985  0.00  0.00    +0.157 HD
ATOM     14  C   LIG    1      -41.156  75.538  24.404  0.00  0.00    +0.251 C 
ATOM     15  O   LIG    1      -41.497  75.762  25.549  0.00  0.00    -0.270 OA
BRANCH  14  16
ATOM     16  C   LIG    1      -42.133  75.004  23.400  0.00  0.00    +0.056 A 
ATOM     17  C   LIG    1      -43.097  75.760  22.761  0.00  0.00    +0.054 A 
ATOM     18 CL   LIG    1      -43.308  77.463  22.924  0.00  0.00    -0.083 Cl
ATOM     19  C   LIG    1      -44.017  75.138  21.926  0.00  0.00    +0.041 A 
ATOM     20  C   LIG    1      -43.988  73.752  21.703  0.00  0.00    +0.052 A 
ATOM     21 CL   LIG    1      -45.353  73.153  20.829  0.00  0.00    -0.083 Cl
ATOM     22  C   LIG    1      -42.977  72.942  22.254  0.00  0.00    +0.022 A 
ATOM     23  C   LIG    1      -42.068  73.609  23.127  0.00  0.00    +0.026 A 
BRANCH  22  24
ATOM     24  C   LIG    1      -42.815  71.471  22.040  0.00  0.00    +0.107 A 
ATOM     25  C   LIG    1      -42.475  70.850  20.834  0.00  0.00    +0.149 A 
ATOM     26  F   LIG    1      -42.178  71.550  19.731  0.00  0.00    -0.203 F 
ATOM     27  C   LIG    1      -42.365  69.460  20.764  0.00  0.00    +0.042 A 
ATOM     28  C   LIG    1      -42.533  68.703  21.914  0.00  0.00    +0.023 A 
ATOM     29  C   LIG    1      -42.811  69.376  23.088  0.00  0.00    +0.111 A 
ATOM     30  N   LIG    1      -42.967  70.722  23.173  0.00  0.00    -0.252 NA
ENDBRANCH  22  24
ENDBRANCH  14  16
ENDBRANCH   4  12
BRANCH   1  31
ATOM     31  C   LIG    1      -35.879  76.175  26.920  0.00  0.00    +0.236 C 
ATOM     32  N   LIG    1      -34.993  77.083  27.126  0.00  0.00    -0.246 NA
BRANCH  31  33
ATOM     33  O   LIG    1      -35.761  74.885  27.287  0.00  0.00    -0.491 OA
ATOM     34  H   LIG    1      -35.129  74.425  26.709  0.00  0.00    +0.294 HD
ENDBRANCH  31  33
BRANCH  32  35
ATOM     35  C   LIG    1      -33.844  76.800  27.988  0.00  0.00    +0.184 C 
BRANCH  35  36
ATOM     36  C   LIG    1      -32.765  77.861  27.795  0.00  0.00    +0.132 C 
ATOM     37  C   LIG    1      -33.314  79.275  27.523  0.00  0.00    +0.198 C 
ATOM     38  O   LIG    1      -32.596  79.368  26.271  0.00  0.00    -0.374 OA
ATOM     39  C   LIG    1      -32.208  77.979  26.359  0.00  0.00    +0.198 C 
BRANCH  36  40
ATOM     40  O   LIG    1      -31.800  77.761  28.884  0.00  0.00    -0.382 OA
ATOM     41  H   LIG    1      -32.041  76.934  29.345  0.00  0.00    +0.210 HD
ENDBRANCH  36  40
ENDBRANCH  35  36
ENDBRANCH  32  35
ENDBRANCH   1  31
TORSDOF 9
ENDMDL
MODEL 3
REMARK VINA RESULT:      -6.9      4.561      8.831
REMARK  Name = pdb/CHEMBL3930367.pdb
REMARK                            x       y       z     vdW  Elec       q    Type
REMARK                         _______ _______ _______ _____ _____    ______ ____
ROOT
ATOM      1  C   LIG    1      -37.025  76.078  26.331  0.00  0.00    +0.149 A 
ATOM      2  N   LIG    1      -37.634  75.097  25.650  0.00  0.00    -0.160 NA
ATOM      3  N   LIG    1      -38.735  75.676  25.100  0.00  0.00    -0.218 N 
ATOM      4  C   LIG    1      -38.702  77.067  25.261  0.00  0.00    +0.129 A 
ATOM      5  C   LIG    1      -37.643  77.320  26.090  0.00  0.00    +0.078 A 
ENDROOT
BRANCH   3   6
ATOM      6  C   LIG    1      -39.702  74.857  24.448  0.00  0.00    +0.067 A 
ATOM      7  C   LIG    1      -40.889  75.386  23.926  0.00  0.00    +0.028 A 
ATOM      8  C   LIG    1      -41.821  74.544  23.306  0.00  0.00    +0.002 A 
ATOM      9  C   LIG    1      -41.579  73.174  23.209  0.00  0.00    +0.000 A 
ATOM     10  C   LIG    1      -40.411  72.638  23.745  0.00  0.00    +0.002 A 
ATOM     11  C   LIG    1      -39.482  73.471  24.374  0.00  0.00    +0.028 A 
ENDBRANCH   3   6
BRANCH   4  12
ATOM     12  N   LIG    1      -39.509  78.027  24.645  0.00  0.00    -0.266 N 
ATOM     13  H   LIG    1      -39.218  78.336  23.728  0.00  0.00    +0.157 HD
ATOM     14  C   LIG    1      -40.648  78.657  25.274  0.00  0.00    +0.251 C 
ATOM     15  O   LIG    1      -40.985  78.368  26.406  0.00  0.00    -0.270 OA
BRANCH  14  16
ATOM     16  C   LIG    1      -41.390  79.698  24.492  0.00  0.00    +0.056 A 
ATOM     17  C   LIG    1      -42.670  79.545  23.994  0.00  0.00    +0.054 A 
ATOM     18 CL   LIG    1      -43.687  78.176  24.242  0.00  0.00    -0.083 Cl
ATOM     19  C   LIG    1      -43.219  80.539  23.194  0.00  0.00    +0.041 A 
ATOM     20  C   LIG    1      -42.510  81.711  22.884  0.00  0.00    +0.052 A 
ATOM     21 CL   LIG    1      -43.276  82.700  21.692  0.00  0.00    -0.083 Cl
ATOM     22  C   LIG    1      -41.240  81.965  23.435  0.00  0.00    +0.022 A 
ATOM     23  C   LIG    1      -40.695  80.912  24.227  0.00  0.00    +0.026 A 
BRANCH  22  24
ATOM     24  C   LIG    1      -40.420  83.197  23.220  0.00  0.00    +0.107 A 
ATOM     25  C   LIG    1      -39.772  83.555  22.033  0.00  0.00    +0.149 A 
ATOM     26  F   LIG    1      -39.892  82.835  20.911  0.00  0.00    -0.203 F 
ATOM     27  C   LIG    1      -39.025  84.733  21.966  0.00  0.00    +0.042 A 
ATOM     28  C   LIG    1      -38.982  85.578  23.065  0.00  0.00    +0.023 A 
ATOM     29  C   LIG    1      -39.689  85.200  24.192  0.00  0.00    +0.111 A 
ATOM     30  N   LIG    1      -40.385  84.039  24.296  0.00  0.00    -0.252 NA
ENDBRANCH  22  24
ENDBRANCH  14  16
ENDBRANCH   4  12
BRANCH   1  31
ATOM     31  C   LIG    1      -35.842  75.887  27.156  0.00  0.00    +0.236 C 
ATOM     32  N   LIG    1      -34.832  76.664  26.993  0.00  0.00    -0.246 NA
BRANCH  31  33
ATOM     33  O   LIG    1      -35.876  74.831  27.990  0.00  0.00    -0.491 OA
ATOM     34  H   LIG    1      -36.428  74.123  27.616  0.00  0.00    +0.294 HD
ENDBRANCH  31  33
BRANCH  32  35
ATOM     35  C   LIG    1      -33.679  76.563  27.891  0.00  0.00    +0.184 C 
BRANCH  35  36
ATOM     36  C   LIG    1      -32.833  77.828  27.808  0.00  0.00    +0.132 C 
ATOM     37  C   LIG    1      -33.652  79.129  27.701  0.00  0.00    +0.198 C 
ATOM     38  O   LIG    1      -33.004  79.494  26.460  0.00  0.00    -0.374 OA
ATOM     39  C   LIG    1      -32.353  78.207  26.389  0.00  0.00    +0.198 C 
BRANCH  36  40
ATOM     40  O   LIG    1      -31.833  77.801  28.870  0.00  0.00    -0.382 OA
ATOM     41  H   LIG    1      -31.942  76.923  29.283  0.00  0.00    +0.210 HD
ENDBRANCH  36  40
ENDBRANCH  35  36
ENDBRANCH  32  35
ENDBRANCH   1  31
TORSDOF 9
ENDMDL
MODEL 4
REMARK VINA RESULT:      -6.7      3.382      5.184
REMARK  Name = pdb/CHEMBL3930367.pdb
REMARK                            x       y       z     vdW  Elec       q    Type
REMARK                         _______ _______ _______ _____ _____    ______ ____
ROOT
ATOM      1  C   LIG    1      -37.460  79.816  27.514  0.00  0.00    +0.149 A 
ATOM      2  N   LIG    1      -36.301  79.172  27.714  0.00  0.00    -0.160 NA
ATOM      3  N   LIG    1      -36.584  77.858  27.511  0.00  0.00    -0.218 N 
ATOM      4  C   LIG    1      -37.869  77.699  26.977  0.00  0.00    +0.129 A 
ATOM      5  C   LIG    1      -38.448  78.938  27.027  0.00  0.00    +0.078 A 
ENDROOT
BRANCH   3   6
ATOM      6  C   LIG    1      -35.597  76.877  27.817  0.00  0.00    +0.067 A 
ATOM      7  C   LIG    1      -34.324  76.901  27.232  0.00  0.00    +0.028 A 
ATOM      8  C   LIG    1      -33.388  75.907  27.549  0.00  0.00    +0.002 A 
ATOM      9  C   LIG    1      -33.715  74.886  28.439  0.00  0.00    +0.000 A 
ATOM     10  C   LIG    1      -34.986  74.845  29.007  0.00  0.00    +0.002 A 
ATOM     11  C   LIG    1      -35.928  75.826  28.688  0.00  0.00    +0.028 A 
ENDBRANCH   3   6
BRANCH   4  12
ATOM     12  N   LIG    1      -38.435  76.552  26.417  0.00  0.00    -0.266 N 
ATOM     13  H   LIG    1      -39.102  76.054  26.991  0.00  0.00    +0.157 HD
ATOM     14  C   LIG    1      -38.055  75.997  25.137  0.00  0.00    +0.251 C 
ATOM     15  O   LIG    1      -37.202  76.524  24.449  0.00  0.00    -0.270 OA
BRANCH  14  16
ATOM     16  C   LIG    1      -38.732  74.736  24.692  0.00  0.00    +0.056 A 
ATOM     17  C   LIG    1      -39.965  74.681  24.073  0.00  0.00    +0.054 A 
ATOM     18 CL   LIG    1      -40.922  76.040  23.617  0.00  0.00    -0.083 Cl
ATOM     19  C   LIG    1      -40.542  73.447  23.799  0.00  0.00    +0.041 A 
ATOM     20  C   LIG    1      -39.896  72.244  24.125  0.00  0.00    +0.052 A 
ATOM     21 CL   LIG    1      -40.881  70.839  23.917  0.00  0.00    -0.083 Cl
ATOM     22  C   LIG    1      -38.600  72.234  24.674  0.00  0.00    +0.022 A 
ATOM     23  C   LIG    1      -38.051  73.516  24.968  0.00  0.00    +0.026 A 
BRANCH  22  24
ATOM     24  C   LIG    1      -37.796  71.018  25.008  0.00  0.00    +0.107 A 
ATOM     25  C   LIG    1      -37.395  70.026  24.106  0.00  0.00    +0.149 A 
ATOM     26  F   LIG    1      -37.642  70.115  22.793  0.00  0.00    -0.203 F 
ATOM     27  C   LIG    1      -36.653  68.930  24.549  0.00  0.00    +0.042 A 
ATOM     28  C   LIG    1      -36.260  68.863  25.878  0.00  0.00    +0.023 A 
ATOM     29  C   LIG    1      -36.636  69.901  26.710  0.00  0.00    +0.111 A 
ATOM     30  N   LIG    1      -37.395  70.954  26.313  0.00  0.00    -0.252 NA
ENDBRANCH  22  24
ENDBRANCH  14  16
ENDBRANCH   4  12
BRANCH   1  31
ATOM     31  C   LIG    1      -37.647  81.245  27.713  0.00  0.00    +0.236 C 
ATOM     32  N   LIG    1      -37.258  82.061  26.798  0.00  0.00    -0.246 NA
BRANCH  31  33
ATOM     33  O   LIG    1      -38.151  81.607  28.907  0.00  0.00    -0.491 OA
ATOM     34  H   LIG    1      -38.573  80.845  29.340  0.00  0.00    +0.294 HD
ENDBRANCH  31  33
BRANCH  32  35
ATOM     35  C   LIG    1      -37.542  83.492  26.929  0.00  0.00    +0.184 C 
BRANCH  35  36
ATOM     36  C   LIG    1      -36.318  84.310  26.533  0.00  0.00    +0.132 C 
ATOM     37  C   LIG    1      -35.659  85.066  27.704  0.00  0.00    +0.198 C 
ATOM     38  O   LIG    1      -35.817  86.340  27.038  0.00  0.00    -0.374 OA
ATOM     39  C   LIG    1      -36.620  85.730  26.002  0.00  0.00    +0.198 C 
BRANCH  36  40
ATOM     40  O   LIG    1      -35.423  83.474  25.741  0.00  0.00    -0.382 OA
ATOM     41  H   LIG    1      -34.780  83.128  26.389  0.00  0.00    +0.210 HD
ENDBRANCH  36  40
ENDBRANCH  35  36
ENDBRANCH  32  35
ENDBRANCH   1  31
TORSDOF 9
ENDMDL
MODEL 5
REMARK VINA RESULT:      -6.6      4.982     10.017
REMARK  Name = pdb/CHEMBL3930367.pdb
REMARK                            x       y       z     vdW  Elec       q    Type
REMARK                         _______ _______ _______ _____ _____    ______ ____
ROOT
ATOM      1  C   LIG    1      -36.445  69.370  25.424  0.00  0.00    +0.149 A 
ATOM      2  N   LIG    1      -37.311  70.370  25.206  0.00  0.00    -0.160 NA
ATOM      3  N   LIG    1      -36.799  71.436  25.877  0.00  0.00    -0.218 N 
ATOM      4  C   LIG    1      -35.505  71.163  26.340  0.00  0.00    +0.129 A 
ATOM      5  C   LIG    1      -35.299  69.832  26.100  0.00  0.00    +0.078 A 
ENDROOT
BRANCH   3   6
ATOM      6  C   LIG    1      -37.576  72.626  25.992  0.00  0.00    +0.067 A 
ATOM      7  C   LIG    1      -37.923  73.394  24.873  0.00  0.00    +0.028 A 
ATOM      8  C   LIG    1      -38.674  74.565  25.031  0.00  0.00    +0.002 A 
ATOM      9  C   LIG    1      -39.077  74.980  26.300  0.00  0.00    +0.000 A 
ATOM     10  C   LIG    1      -38.716  74.233  27.418  0.00  0.00    +0.002 A 
ATOM     11  C   LIG    1      -37.958  73.069  27.269  0.00  0.00    +0.028 A 
ENDBRANCH   3   6
BRANCH   4  12
ATOM     12  N   LIG    1      -34.567  72.059  26.857  0.00  0.00    -0.266 N 
ATOM     13  H   LIG    1      -33.889  72.426  26.203  0.00  0.00    +0.157 HD
ATOM     14  C   LIG    1      -34.453  72.401  28.256  0.00  0.00    +0.251 C 
ATOM     15  O   LIG    1      -35.201  71.922  29.087  0.00  0.00    -0.270 OA
BRANCH  14  16
ATOM     16  C   LIG    1      -33.366  73.352  28.658  0.00  0.00    +0.056 A 
ATOM     17  C   LIG    1      -32.223  72.995  29.348  0.00  0.00    +0.054 A 
ATOM     18 CL   LIG    1      -31.786  71.392  29.807  0.00  0.00    -0.083 Cl
ATOM     19  C   LIG    1      -31.333  73.980  29.758  0.00  0.00    +0.041 A 
ATOM     20  C   LIG    1      -31.556  75.337  29.477  0.00  0.00    +0.052 A 
ATOM     21 CL   LIG    1      -30.459  76.408  30.274  0.00  0.00    -0.083 Cl
ATOM     22  C   LIG    1      -32.653  75.754  28.700  0.00  0.00    +0.022 A 
ATOM     23  C   LIG    1      -33.560  74.721  28.321  0.00  0.00    +0.026 A 
BRANCH  22  24
ATOM     24  C   LIG    1      -32.958  77.160  28.293  0.00  0.00    +0.107 A 
ATOM     25  C   LIG    1      -32.418  77.830  27.190  0.00  0.00    +0.149 A 
ATOM     26  F   LIG    1      -31.600  77.226  26.320  0.00  0.00    -0.203 F 
ATOM     27  C   LIG    1      -32.779  79.152  26.924  0.00  0.00    +0.042 A 
ATOM     28  C   LIG    1      -33.726  79.776  27.722  0.00  0.00    +0.023 A 
ATOM     29  C   LIG    1      -34.268  79.044  28.763  0.00  0.00    +0.111 A 
ATOM     30  N   LIG    1      -33.901  77.774  29.069  0.00  0.00    -0.252 NA
ENDBRANCH  22  24
ENDBRANCH  14  16
ENDBRANCH   4  12
BRANCH   1  31
ATOM     31  C   LIG    1      -36.641  68.004  24.964  0.00  0.00    +0.236 C 
ATOM     32  N   LIG    1      -35.615  67.292  24.659  0.00  0.00    -0.246 NA
BRANCH  31  33
ATOM     33  O   LIG    1      -37.921  67.616  24.815  0.00  0.00    -0.491 OA
ATOM     34  H   LIG    1      -37.961  66.701  24.485  0.00  0.00    +0.294 HD
ENDBRANCH  31  33
BRANCH  32  35
ATOM     35  C   LIG    1      -35.785  65.881  24.305  0.00  0.00    +0.184 C 
BRANCH  35  36
ATOM     36  C   LIG    1      -35.327  65.638  22.871  0.00  0.00    +0.132 C 
ATOM     37  C   LIG    1      -34.514  66.798  22.264  0.00  0.00    +0.198 C 
ATOM     38  O   LIG    1      -35.444  66.942  21.165  0.00  0.00    -0.374 OA
ATOM     39  C   LIG    1      -36.357  66.006  21.780  0.00  0.00    +0.198 C 
BRANCH  36  40
ATOM     40  O   LIG    1      -34.701  64.322  22.788  0.00  0.00    -0.382 OA
ATOM     41  H   LIG    1      -34.686  64.004  23.711  0.00  0.00    +0.210 HD
ENDBRANCH  36  40
ENDBRANCH  35  36
ENDBRANCH  32  35
ENDBRANCH   1  31
TORSDOF 9
ENDMDL
MODEL 6
REMARK VINA RESULT:      -6.5      4.415      7.930
REMARK  Name = pdb/CHEMBL3930367.pdb
REMARK                            x       y       z     vdW  Elec       q    Type
REMARK                         _______ _______ _______ _____ _____    ______ ____
ROOT
ATOM      1  C   LIG    1      -31.311  74.766  30.191  0.00  0.00    +0.149 A 
ATOM      2  N   LIG    1      -31.570  76.069  30.007  0.00  0.00    -0.160 NA
ATOM      3  N   LIG    1      -32.507  76.110  29.024  0.00  0.00    -0.218 N 
ATOM      4  C   LIG    1      -32.991  74.826  28.739  0.00  0.00    +0.129 A 
ATOM      5  C   LIG    1      -32.194  73.965  29.441  0.00  0.00    +0.078 A 
ENDROOT
BRANCH   3   6
ATOM      6  C   LIG    1      -32.878  77.368  28.465  0.00  0.00    +0.067 A 
ATOM      7  C   LIG    1      -33.952  78.113  28.969  0.00  0.00    +0.028 A 
ATOM      8  C   LIG    1      -34.294  79.338  28.380  0.00  0.00    +0.002 A 
ATOM      9  C   LIG    1      -33.574  79.822  27.289  0.00  0.00    +0.000 A 
ATOM     10  C   LIG    1      -32.519  79.075  26.770  0.00  0.00    +0.002 A 
ATOM     11  C   LIG    1      -32.180  77.848  27.345  0.00  0.00    +0.028 A 
ENDBRANCH   3   6
BRANCH   4  12
ATOM     12  N   LIG    1      -34.107  74.474  27.976  0.00  0.00    -0.266 N 
ATOM     13  H   LIG    1      -33.926  74.175  27.028  0.00  0.00    +0.157 HD
ATOM     14  C   LIG    1      -35.475  74.607  28.425  0.00  0.00    +0.251 C 
ATOM     15  O   LIG    1      -35.738  75.035  29.532  0.00  0.00    -0.270 OA
BRANCH  14  16
ATOM     16  C   LIG    1      -36.564  74.219  27.471  0.00  0.00    +0.056 A 
ATOM     17  C   LIG    1      -36.890  72.920  27.133  0.00  0.00    +0.054 A 
ATOM     18 CL   LIG    1      -36.172  71.500  27.798  0.00  0.00    -0.083 Cl
ATOM     19  C   LIG    1      -37.850  72.683  26.158  0.00  0.00    +0.041 A 
ATOM     20  C   LIG    1      -38.515  73.736  25.508  0.00  0.00    +0.052 A 
ATOM     21 CL   LIG    1      -39.490  73.233  24.174  0.00  0.00    -0.083 Cl
ATOM     22  C   LIG    1      -38.293  75.077  25.872  0.00  0.00    +0.022 A 
ATOM     23  C   LIG    1      -37.281  75.284  26.855  0.00  0.00    +0.026 A 
BRANCH  22  24
ATOM     24  C   LIG    1      -38.980  76.271  25.291  0.00  0.00    +0.107 A 
ATOM     25  C   LIG    1      -38.463  77.117  24.305  0.00  0.00    +0.149 A 
ATOM     26  F   LIG    1      -37.284  76.883  23.713  0.00  0.00    -0.203 F 
ATOM     27  C   LIG    1      -39.205  78.209  23.853  0.00  0.00    +0.042 A 
ATOM     28  C   LIG    1      -40.487  78.413  24.342  0.00  0.00    +0.023 A 
ATOM     29  C   LIG    1      -40.968  77.512  25.273  0.00  0.00    +0.111 A 
ATOM     30  N   LIG    1      -40.249  76.469  25.760  0.00  0.00    -0.252 NA
ENDBRANCH  22  24
ENDBRANCH  14  16
ENDBRANCH   4  12
BRANCH   1  31
ATOM     31  C   LIG    1      -30.293  74.255  31.096  0.00  0.00    +0.236 C 
ATOM     32  N   LIG    1      -29.587  75.084  31.778  0.00  0.00    -0.246 NA
BRANCH  31  33
ATOM     33  O   LIG    1      -30.117  72.920  31.083  0.00  0.00    -0.491 OA
ATOM     34  H   LIG    1      -30.568  72.512  31.842  0.00  0.00    +0.294 HD
ENDBRANCH  31  33
BRANCH  32  35
ATOM     35  C   LIG    1      -28.640  74.586  32.778  0.00  0.00    +0.184 C 
BRANCH  35  36
ATOM     36  C   LIG    1      -27.399  75.472  32.815  0.00  0.00    +0.132 C 
ATOM     37  C   LIG    1      -27.501  76.738  31.942  0.00  0.00    +0.198 C 
ATOM     38  O   LIG    1      -26.321  76.373  31.188  0.00  0.00    -0.374 OA
ATOM     39  C   LIG    1      -26.279  75.077  31.825  0.00  0.00    +0.198 C 
BRANCH  36  40
ATOM     40  O   LIG    1      -27.017  75.697  34.205  0.00  0.00    -0.382 OA
ATOM     41  H   LIG    1      -26.591  76.575  34.199  0.00  0.00    +0.210 HD
ENDBRANCH  36  40
ENDBRANCH  35  36
ENDBRANCH  32  35
ENDBRANCH   1  31
TORSDOF 9
ENDMDL
MODEL 7
REMARK VINA RESULT:      -6.5     17.023     19.878
REMARK  Name = pdb/CHEMBL3930367.pdb
REMARK                            x       y       z     vdW  Elec       q    Type
REMARK                         _______ _______ _______ _____ _____    ______ ____
ROOT
ATOM      1  C   LIG    1      -22.408  83.053  15.075  0.00  0.00    +0.149 A 
ATOM      2  N   LIG    1      -21.343  82.239  15.101  0.00  0.00    -0.160 NA
ATOM      3  N   LIG    1      -21.857  80.981  15.139  0.00  0.00    -0.218 N 
ATOM      4  C   LIG    1      -23.241  80.999  14.923  0.00  0.00    +0.129 A 
ATOM      5  C   LIG    1      -23.602  82.319  14.936  0.00  0.00    +0.078 A 
ENDROOT
BRANCH   3   6
ATOM      6  C   LIG    1      -20.983  79.876  15.349  0.00  0.00    +0.067 A 
ATOM      7  C   LIG    1      -20.134  79.805  16.461  0.00  0.00    +0.028 A 
ATOM      8  C   LIG    1      -19.278  78.707  16.622  0.00  0.00    +0.002 A 
ATOM      9  C   LIG    1      -19.258  77.683  15.676  0.00  0.00    +0.000 A 
ATOM     10  C   LIG    1      -20.083  77.759  14.557  0.00  0.00    +0.002 A 
ATOM     11  C   LIG    1      -20.932  78.855  14.385  0.00  0.00    +0.028 A 
ENDBRANCH   3   6
BRANCH   4  12
ATOM     12  N   LIG    1      -24.088  79.921  14.657  0.00  0.00    -0.266 N 
ATOM     13  H   LIG    1      -24.490  79.457  15.459  0.00  0.00    +0.157 HD
ATOM     14  C   LIG    1      -24.333  79.386  13.336  0.00  0.00    +0.251 C 
ATOM     15  O   LIG    1      -23.808  79.868  12.351  0.00  0.00    -0.270 OA
BRANCH  14  16
ATOM     16  C   LIG    1      -25.240  78.198  13.220  0.00  0.00    +0.056 A 
ATOM     17  C   LIG    1      -24.970  76.947  13.741  0.00  0.00    +0.054 A 
ATOM     18 CL   LIG    1      -23.591  76.530  14.688  0.00  0.00    -0.083 Cl
ATOM     19  C   LIG    1      -25.838  75.893  13.482  0.00  0.00    +0.041 A 
ATOM     20  C   LIG    1      -26.998  76.067  12.711  0.00  0.00    +0.052 A 
ATOM     21 CL   LIG    1      -27.805  74.592  12.315  0.00  0.00    -0.083 Cl
ATOM     22  C   LIG    1      -27.374  77.335  12.230  0.00  0.00    +0.022 A 
ATOM     23  C   LIG    1      -26.447  78.387  12.489  0.00  0.00    +0.026 A 
BRANCH  22  24
ATOM     24  C   LIG    1      -28.611  77.648  11.449  0.00  0.00    +0.107 A 
ATOM     25  C   LIG    1      -28.941  77.129  10.193  0.00  0.00    +0.149 A 
ATOM     26  F   LIG    1      -28.183  76.210   9.580  0.00  0.00    -0.203 F 
ATOM     27  C   LIG    1      -30.126  77.511   9.563  0.00  0.00    +0.042 A 
ATOM     28  C   LIG    1      -31.006  78.359  10.219  0.00  0.00    +0.023 A 
ATOM     29  C   LIG    1      -30.654  78.794  11.483  0.00  0.00    +0.111 A 
ATOM     30  N   LIG    1      -29.487  78.472  12.097  0.00  0.00    -0.252 NA
ENDBRANCH  22  24
ENDBRANCH  14  16
ENDBRANCH   4  12
BRANCH   1  31
ATOM     31  C   LIG    1      -22.328  84.506  15.120  0.00  0.00    +0.236 C 
ATOM     32  N   LIG    1      -21.961  85.146  14.068  0.00  0.00    -0.246 NA
BRANCH  31  33
ATOM     33  O   LIG    1      -22.575  85.067  16.318  0.00  0.00    -0.491 OA
ATOM     34  H   LIG    1      -22.850  84.388  16.959  0.00  0.00    +0.294 HD
ENDBRANCH  31  33
BRANCH  32  35
ATOM     35  C   LIG    1      -21.986  86.610  14.059  0.00  0.00    +0.184 C 
BRANCH  35  36
ATOM     36  C   LIG    1      -20.618  87.164  14.442  0.00  0.00    +0.132 C 
ATOM     37  C   LIG    1      -20.126  88.311  13.537  0.00  0.00    +0.198 C 
ATOM     38  O   LIG    1      -18.922  87.588  13.189  0.00  0.00    -0.374 OA
ATOM     39  C   LIG    1      -19.410  86.400  13.851  0.00  0.00    +0.198 C 
BRANCH  36  40
ATOM     40  O   LIG    1      -20.601  87.442  15.874  0.00  0.00    -0.382 OA
ATOM     41  H   LIG    1      -20.038  86.739  16.250  0.00  0.00    +0.210 HD
ENDBRANCH  36  40
ENDBRANCH  35  36
ENDBRANCH  32  35
ENDBRANCH   1  31
TORSDOF 9
ENDMDL
MODEL 8
REMARK VINA RESULT:      -6.5      8.628     12.547
REMARK  Name = pdb/CHEMBL3930367.pdb
REMARK                            x       y       z     vdW  Elec       q    Type
REMARK                         _______ _______ _______ _____ _____    ______ ____
ROOT
ATOM      1  C   LIG    1      -31.264  87.163  30.646  0.00  0.00    +0.149 A 
ATOM      2  N   LIG    1      -32.227  88.007  30.248  0.00  0.00    -0.160 NA
ATOM      3  N   LIG    1      -33.045  87.266  29.456  0.00  0.00    -0.218 N 
ATOM      4  C   LIG    1      -32.714  85.906  29.527  0.00  0.00    +0.129 A 
ATOM      5  C   LIG    1      -31.548  85.845  30.241  0.00  0.00    +0.078 A 
ENDROOT
BRANCH   3   6
ATOM      6  C   LIG    1      -34.084  87.913  28.726  0.00  0.00    +0.067 A 
ATOM      7  C   LIG    1      -35.279  87.258  28.403  0.00  0.00    +0.028 A 
ATOM      8  C   LIG    1      -36.269  87.926  27.670  0.00  0.00    +0.002 A 
ATOM      9  C   LIG    1      -36.072  89.241  27.251  0.00  0.00    +0.000 A 
ATOM     10  C   LIG    1      -34.876  89.890  27.550  0.00  0.00    +0.002 A 
ATOM     11  C   LIG    1      -33.880  89.227  28.272  0.00  0.00    +0.028 A 
ENDBRANCH   3   6
BRANCH   4  12
ATOM     12  N   LIG    1      -33.447  84.813  29.058  0.00  0.00    -0.266 N 
ATOM     13  H   LIG    1      -33.379  84.619  28.069  0.00  0.00    +0.157 HD
ATOM     14  C   LIG    1      -34.350  84.030  29.871  0.00  0.00    +0.251 C 
ATOM     15  O   LIG    1      -34.517  84.279  31.049  0.00  0.00    -0.270 OA
BRANCH  14  16
ATOM     16  C   LIG    1      -35.093  82.909  29.208  0.00  0.00    +0.056 A 
ATOM     17  C   LIG    1      -36.453  82.901  28.967  0.00  0.00    +0.054 A 
ATOM     18 CL   LIG    1      -37.540  84.198  29.299  0.00  0.00    -0.083 Cl
ATOM     19  C   LIG    1      -37.051  81.763  28.439  0.00  0.00    +0.041 A 
ATOM     20  C   LIG    1      -36.304  80.615  28.131  0.00  0.00    +0.052 A 
ATOM     21 CL   LIG    1      -37.267  79.243  27.712  0.00  0.00    -0.083 Cl
ATOM     22  C   LIG    1      -34.903  80.594  28.269  0.00  0.00    +0.022 A 
ATOM     23  C   LIG    1      -34.328  81.767  28.839  0.00  0.00    +0.026 A 
BRANCH  22  24
ATOM     24  C   LIG    1      -34.003  79.452  27.920  0.00  0.00    +0.107 A 
ATOM     25  C   LIG    1      -33.925  78.232  28.600  0.00  0.00    +0.149 A 
ATOM     26  F   LIG    1      -34.735  77.933  29.623  0.00  0.00    -0.203 F 
ATOM     27  C   LIG    1      -33.031  77.247  28.177  0.00  0.00    +0.042 A 
ATOM     28  C   LIG    1      -32.266  77.461  27.040  0.00  0.00    +0.023 A 
ATOM     29  C   LIG    1      -32.428  78.662  26.376  0.00  0.00    +0.111 A 
ATOM     30  N   LIG    1      -33.257  79.653  26.793  0.00  0.00    -0.252 NA
ENDBRANCH  22  24
ENDBRANCH  14  16
ENDBRANCH   4  12
BRANCH   1  31
ATOM     31  C   LIG    1      -30.112  87.555  31.445  0.00  0.00    +0.236 C 
ATOM     32  N   LIG    1      -30.171  87.443  32.724  0.00  0.00    -0.246 NA
BRANCH  31  33
ATOM     33  O   LIG    1      -29.084  88.092  30.763  0.00  0.00    -0.491 OA
ATOM     34  H   LIG    1      -29.339  88.253  29.838  0.00  0.00    +0.294 HD
ENDBRANCH  31  33
BRANCH  32  35
ATOM     35  C   LIG    1      -28.984  87.721  33.536  0.00  0.00    +0.184 C 
BRANCH  35  36
ATOM     36  C   LIG    1      -28.782  86.619  34.570  0.00  0.00    +0.132 C 
ATOM     37  C   LIG    1      -29.315  86.967  35.974  0.00  0.00    +0.198 C 
ATOM     38  O   LIG    1      -28.015  86.758  36.574  0.00  0.00    -0.374 OA
ATOM     39  C   LIG    1      -27.405  86.620  35.272  0.00  0.00    +0.198 C 
BRANCH  36  40
ATOM     40  O   LIG    1      -29.252  85.355  34.015  0.00  0.00    -0.382 OA
ATOM     41  H   LIG    1      -30.169  85.539  33.736  0.00  0.00    +0.210 HD
ENDBRANCH  36  40
ENDBRANCH  35  36
ENDBRANCH  32  35
ENDBRANCH   1  31
TORSDOF 9
ENDMDL
MODEL 9
REMARK VINA RESULT:      -6.4     17.136     21.181
REMARK  Name = pdb/CHEMBL3930367.pdb
REMARK                            x       y       z     vdW  Elec       q    Type
REMARK                         _______ _______ _______ _____ _____    ______ ____
ROOT
ATOM      1  C   LIG    1      -26.298  77.660  13.917  0.00  0.00    +0.149 A 
ATOM      2  N   LIG    1      -25.241  77.728  14.738  0.00  0.00    -0.160 NA
ATOM      3  N   LIG    1      -24.663  78.930  14.475  0.00  0.00    -0.218 N 
ATOM      4  C   LIG    1      -25.478  79.706  13.640  0.00  0.00    +0.129 A 
ATOM      5  C   LIG    1      -26.493  78.880  13.241  0.00  0.00    +0.078 A 
ENDROOT
BRANCH   3   6
ATOM      6  C   LIG    1      -23.403  79.242  15.064  0.00  0.00    +0.067 A 
ATOM      7  C   LIG    1      -22.239  78.535  14.737  0.00  0.00    +0.028 A 
ATOM      8  C   LIG    1      -21.023  78.863  15.351  0.00  0.00    +0.002 A 
ATOM      9  C   LIG    1      -20.962  79.888  16.293  0.00  0.00    +0.000 A 
ATOM     10  C   LIG    1      -22.120  80.580  16.638  0.00  0.00    +0.002 A 
ATOM     11  C   LIG    1      -23.338  80.251  16.038  0.00  0.00    +0.028 A 
ENDBRANCH   3   6
BRANCH   4  12
ATOM     12  N   LIG    1      -25.357  81.064  13.336  0.00  0.00    -0.266 N 
ATOM     13  H   LIG    1      -25.999  81.687  13.804  0.00  0.00    +0.157 HD
ATOM     14  C   LIG    1      -24.456  81.597  12.339  0.00  0.00    +0.251 C 
ATOM     15  O   LIG    1      -23.721  80.871  11.698  0.00  0.00    -0.270 OA
BRANCH  14  16
ATOM     16  C   LIG    1      -24.473  83.077  12.102  0.00  0.00    +0.056 A 
ATOM     17  C   LIG    1      -25.383  83.736  11.299  0.00  0.00    +0.054 A 
ATOM     18 CL   LIG    1      -26.717  83.007  10.485  0.00  0.00    -0.083 Cl
ATOM     19  C   LIG    1      -25.238  85.099  11.070  0.00  0.00    +0.041 A 
ATOM     20  C   LIG    1      -24.191  85.835  11.648  0.00  0.00    +0.052 A 
ATOM     21 CL   LIG    1      -24.057  87.451  11.051  0.00  0.00    -0.083 Cl
ATOM     22  C   LIG    1      -23.287  85.239  12.546  0.00  0.00    +0.022 A 
ATOM     23  C   LIG    1      -23.447  83.835  12.735  0.00  0.00    +0.026 A 
BRANCH  22  24
ATOM     24  C   LIG    1      -22.172  85.934  13.261  0.00  0.00    +0.107 A 
ATOM     25  C   LIG    1      -20.831  85.958  12.864  0.00  0.00    +0.149 A 
ATOM     26  F   LIG    1      -20.417  85.398  11.720  0.00  0.00    -0.203 F 
ATOM     27  C   LIG    1      -19.882  86.638  13.629  0.00  0.00    +0.042 A 
ATOM     28  C   LIG    1      -20.288  87.344  14.751  0.00  0.00    +0.023 A 
ATOM     29  C   LIG    1      -21.634  87.333  15.063  0.00  0.00    +0.111 A 
ATOM     30  N   LIG    1      -22.569  86.643  14.361  0.00  0.00    -0.252 NA
ENDBRANCH  22  24
ENDBRANCH  14  16
ENDBRANCH   4  12
BRANCH   1  31
ATOM     31  C   LIG    1      -27.164  76.497  13.793  0.00  0.00    +0.236 C 
ATOM     32  N   LIG    1      -26.655  75.372  13.435  0.00  0.00    -0.246 NA
BRANCH  31  33
ATOM     33  O   LIG    1      -28.476  76.722  13.991  0.00  0.00    -0.491 OA
ATOM     34  H   LIG    1      -28.662  76.824  14.941  0.00  0.00    +0.294 HD
ENDBRANCH  31  33
BRANCH  32  35
ATOM     35  C   LIG    1      -27.488  74.167  13.417  0.00  0.00    +0.184 C 
BRANCH  35  36
ATOM     36  C   LIG    1      -26.774  73.023  14.128  0.00  0.00    +0.132 C 
ATOM     37  C   LIG    1      -27.070  72.936  15.638  0.00  0.00    +0.198 C 
ATOM     38  O   LIG    1      -25.667  73.045  15.971  0.00  0.00    -0.374 OA
ATOM     39  C   LIG    1      -25.334  73.334  14.595  0.00  0.00    +0.198 C 
BRANCH  36  40
ATOM     40  O   LIG    1      -26.984  71.791  13.375  0.00  0.00    -0.382 OA
ATOM     41  H   LIG    1      -26.230  71.754  12.756  0.00  0.00    +0.210 HD
ENDBRANCH  36  40
ENDBRANCH  35  36
ENDBRANCH  32  35
ENDBRANCH   1  31
TORSDOF 9
ENDMDL
