MODEL 1
REMARK VINA RESULT:      -6.4      0.000      0.000
REMARK  Name = pdb/CHEMBL3298267.pdb
REMARK                            x       y       z     vdW  Elec       q    Type
REMARK                         _______ _______ _______ _____ _____    ______ ____
ROOT
ATOM      1  C   LIG    1      -34.548  71.833  28.157  0.00  0.00    +0.241 C 
ENDROOT
BRANCH   1   5
ATOM      2  C   LIG    1      -36.459  70.848  25.313  0.00  0.00    +0.113 A 
ATOM      3  N   LIG    1      -35.224  70.281  25.098  0.00  0.00    -0.129 NA
ATOM      4  N   LIG    1      -34.420  70.629  26.094  0.00  0.00    -0.065 NA
ATOM      5  N   LIG    1      -35.130  71.420  26.912  0.00  0.00    -0.242 N 
ATOM      6  C   LIG    1      -36.401  71.604  26.465  0.00  0.00    +0.139 A 
BRANCH   2  10
ATOM      7  C   LIG    1      -39.881  70.233  22.811  0.00  0.00    +0.047 A 
ATOM      8  C   LIG    1      -39.858  71.275  23.745  0.00  0.00    +0.027 A 
ATOM      9  C   LIG    1      -38.733  71.467  24.560  0.00  0.00    +0.012 A 
ATOM     10  C   LIG    1      -37.626  70.611  24.476  0.00  0.00    +0.004 A 
ATOM     11  C   LIG    1      -37.669  69.560  23.546  0.00  0.00    +0.012 A 
ATOM     12  C   LIG    1      -38.777  69.381  22.708  0.00  0.00    +0.027 A 
BRANCH   7  17
ATOM     13  C   LIG    1      -44.213  70.755  20.356  0.00  0.00    +0.067 C 
ATOM     14  C   LIG    1      -42.918  70.286  20.897  0.00  0.00    +0.056 A 
ATOM     15  N   LIG    1      -42.421  69.060  20.541  0.00  0.00    -0.241 NA
ATOM     16  C   LIG    1      -41.291  68.937  21.203  0.00  0.00    +0.204 A 
ATOM     17  N   LIG    1      -41.015  70.038  21.982  0.00  0.00    -0.306 N 
ATOM     18  C   LIG    1      -42.061  70.912  21.777  0.00  0.00    +0.115 A 
ENDBRANCH   7  17
ENDBRANCH   2  10
ENDBRANCH   1   5
BRANCH   1  19
ATOM     19  C   LIG    1      -34.892  73.270  28.431  0.00  0.00    +0.240 C 
ATOM     20  N   LIG    1      -34.419  74.264  27.476  0.00  0.00    -0.269 N 
ATOM     21  H   LIG    1      -33.722  73.981  26.793  0.00  0.00    +0.156 HD
ATOM     22  O   LIG    1      -35.543  73.595  29.408  0.00  0.00    -0.273 OA
BRANCH  20  23
ATOM     23  C   LIG    1      -34.696  75.631  27.638  0.00  0.00    +0.129 A 
ATOM     24  N   LIG    1      -35.798  76.357  27.170  0.00  0.00    -0.218 N 
ATOM     25  N   LIG    1      -35.565  77.697  27.219  0.00  0.00    -0.169 NA
ATOM     26  C   LIG    1      -34.411  77.810  27.873  0.00  0.00    +0.068 A 
ATOM     27  C   LIG    1      -33.866  76.566  28.212  0.00  0.00    +0.069 A 
BRANCH  24  28
ATOM     28  C   LIG    1      -36.994  75.865  26.591  0.00  0.00    +0.067 A 
ATOM     29  C   LIG    1      -37.279  76.176  25.252  0.00  0.00    +0.028 A 
ATOM     30  C   LIG    1      -38.434  75.678  24.649  0.00  0.00    +0.002 A 
ATOM     31  C   LIG    1      -39.325  74.902  25.387  0.00  0.00    +0.000 A 
ATOM     32  C   LIG    1      -39.065  74.623  26.729  0.00  0.00    +0.002 A 
ATOM     33  C   LIG    1      -37.899  75.099  27.336  0.00  0.00    +0.028 A 
ENDBRANCH  24  28
BRANCH  26  34
ATOM     34  C   LIG    1      -33.746  79.151  28.136  0.00  0.00    +0.040 C 
ATOM     35  C   LIG    1      -34.358  80.049  29.200  0.00  0.00    +0.010 C 
ATOM     36  C   LIG    1      -34.456  80.439  27.765  0.00  0.00    +0.010 C 
ENDBRANCH  26  34
ENDBRANCH  20  23
ENDBRANCH   1  19
TORSDOF 7
ENDMDL
MODEL 2
REMARK VINA RESULT:      -6.2      8.932     14.751
REMARK  Name = pdb/CHEMBL3298267.pdb
REMARK                            x       y       z     vdW  Elec       q    Type
REMARK                         _______ _______ _______ _____ _____    ______ ____
ROOT
ATOM      1  C   LIG    1      -29.195  75.406  32.806  0.00  0.00    +0.241 C 
ENDROOT
BRANCH   1   5
ATOM      2  C   LIG    1      -26.068  76.687  31.670  0.00  0.00    +0.113 A 
ATOM      3  N   LIG    1      -26.975  77.661  31.320  0.00  0.00    -0.129 NA
ATOM      4  N   LIG    1      -28.189  77.253  31.668  0.00  0.00    -0.065 NA
ATOM      5  N   LIG    1      -28.052  76.033  32.208  0.00  0.00    -0.242 N 
ATOM      6  C   LIG    1      -26.755  75.625  32.219  0.00  0.00    +0.139 A 
BRANCH   2  10
ATOM      7  C   LIG    1      -21.813  77.031  31.328  0.00  0.00    +0.047 A 
ATOM      8  C   LIG    1      -22.478  77.509  32.463  0.00  0.00    +0.027 A 
ATOM      9  C   LIG    1      -23.872  77.393  32.564  0.00  0.00    +0.012 A 
ATOM     10  C   LIG    1      -24.626  76.822  31.529  0.00  0.00    +0.004 A 
ATOM     11  C   LIG    1      -23.947  76.361  30.390  0.00  0.00    +0.012 A 
ATOM     12  C   LIG    1      -22.552  76.447  30.295  0.00  0.00    +0.027 A 
BRANCH   7  17
ATOM     13  C   LIG    1      -16.985  76.336  30.196  0.00  0.00    +0.067 C 
ATOM     14  C   LIG    1      -18.282  76.833  30.707  0.00  0.00    +0.056 A 
ATOM     15  N   LIG    1      -18.330  77.935  31.521  0.00  0.00    -0.241 NA
ATOM     16  C   LIG    1      -19.602  78.094  31.815  0.00  0.00    +0.204 A 
ATOM     17  N   LIG    1      -20.402  77.143  31.224  0.00  0.00    -0.306 N 
ATOM     18  C   LIG    1      -19.551  76.335  30.502  0.00  0.00    +0.115 A 
ENDBRANCH   7  17
ENDBRANCH   2  10
ENDBRANCH   1   5
BRANCH   1  19
ATOM     19  C   LIG    1      -30.429  75.725  32.009  0.00  0.00    +0.240 C 
ATOM     20  N   LIG    1      -30.367  75.518  30.568  0.00  0.00    -0.269 N 
ATOM     21  H   LIG    1      -29.456  75.365  30.144  0.00  0.00    +0.156 HD
ATOM     22  O   LIG    1      -31.442  76.139  32.543  0.00  0.00    -0.273 OA
BRANCH  20  23
ATOM     23  C   LIG    1      -31.468  75.779  29.738  0.00  0.00    +0.129 A 
ATOM     24  N   LIG    1      -32.415  74.875  29.239  0.00  0.00    -0.218 N 
ATOM     25  N   LIG    1      -33.123  75.419  28.211  0.00  0.00    -0.169 NA
ATOM     26  C   LIG    1      -32.750  76.695  28.189  0.00  0.00    +0.068 A 
ATOM     27  C   LIG    1      -31.778  76.985  29.155  0.00  0.00    +0.069 A 
BRANCH  24  28
ATOM     28  C   LIG    1      -32.612  73.519  29.600  0.00  0.00    +0.067 A 
ATOM     29  C   LIG    1      -33.865  73.122  30.093  0.00  0.00    +0.028 A 
ATOM     30  C   LIG    1      -34.094  71.788  30.425  0.00  0.00    +0.002 A 
ATOM     31  C   LIG    1      -33.068  70.854  30.303  0.00  0.00    +0.000 A 
ATOM     32  C   LIG    1      -31.810  71.251  29.851  0.00  0.00    +0.002 A 
ATOM     33  C   LIG    1      -31.576  72.583  29.494  0.00  0.00    +0.028 A 
ENDBRANCH  24  28
BRANCH  26  34
ATOM     34  C   LIG    1      -33.279  77.686  27.164  0.00  0.00    +0.040 C 
ATOM     35  C   LIG    1      -32.274  78.347  26.234  0.00  0.00    +0.010 C 
ATOM     36  C   LIG    1      -32.946  79.160  27.287  0.00  0.00    +0.010 C 
ENDBRANCH  26  34
ENDBRANCH  20  23
ENDBRANCH   1  19
TORSDOF 7
ENDMDL
MODEL 3
REMARK VINA RESULT:      -6.2      4.657      8.957
REMARK  Name = pdb/CHEMBL3298267.pdb
REMARK                            x       y       z     vdW  Elec       q    Type
REMARK                         _______ _______ _______ _____ _____    ______ ____
ROOT
ATOM      1  C   LIG    1      -35.413  67.337  25.228  0.00  0.00    +0.241 C 
ENDROOT
BRANCH   1   5
ATOM      2  C   LIG    1      -37.096  70.463  24.906  0.00  0.00    +0.113 A 
ATOM      3  N   LIG    1      -35.776  70.811  25.079  0.00  0.00    -0.129 NA
ATOM      4  N   LIG    1      -35.066  69.704  25.252  0.00  0.00    -0.065 NA
ATOM      5  N   LIG    1      -35.927  68.676  25.210  0.00  0.00    -0.242 N 
ATOM      6  C   LIG    1      -37.207  69.093  25.014  0.00  0.00    +0.139 A 
BRANCH   2  10
ATOM      7  C   LIG    1      -40.166  73.286  23.932  0.00  0.00    +0.047 A 
ATOM      8  C   LIG    1      -38.955  73.713  24.491  0.00  0.00    +0.027 A 
ATOM      9  C   LIG    1      -37.958  72.780  24.807  0.00  0.00    +0.012 A 
ATOM     10  C   LIG    1      -38.158  71.409  24.596  0.00  0.00    +0.004 A 
ATOM     11  C   LIG    1      -39.382  70.993  24.049  0.00  0.00    +0.012 A 
ATOM     12  C   LIG    1      -40.372  71.922  23.703  0.00  0.00    +0.027 A 
BRANCH   7  17
ATOM     13  C   LIG    1      -42.850  77.467  23.310  0.00  0.00    +0.067 C 
ATOM     14  C   LIG    1      -42.343  76.077  23.327  0.00  0.00    +0.056 A 
ATOM     15  N   LIG    1      -43.112  75.052  22.842  0.00  0.00    -0.241 NA
ATOM     16  C   LIG    1      -42.396  73.964  23.024  0.00  0.00    +0.204 A 
ATOM     17  N   LIG    1      -41.176  74.227  23.606  0.00  0.00    -0.306 N 
ATOM     18  C   LIG    1      -41.139  75.592  23.793  0.00  0.00    +0.115 A 
ENDBRANCH   7  17
ENDBRANCH   2  10
ENDBRANCH   1   5
BRANCH   1  19
ATOM     19  C   LIG    1      -35.396  66.777  23.834  0.00  0.00    +0.240 C 
ATOM     20  N   LIG    1      -35.005  67.676  22.756  0.00  0.00    -0.269 N 
ATOM     21  H   LIG    1      -34.959  68.672  22.955  0.00  0.00    +0.156 HD
ATOM     22  O   LIG    1      -35.693  65.617  23.609  0.00  0.00    -0.273 OA
BRANCH  20  23
ATOM     23  C   LIG    1      -34.950  67.247  21.421  0.00  0.00    +0.129 A 
ATOM     24  N   LIG    1      -36.008  67.059  20.523  0.00  0.00    -0.218 N 
ATOM     25  N   LIG    1      -35.618  66.322  19.447  0.00  0.00    -0.169 NA
ATOM     26  C   LIG    1      -34.299  66.208  19.583  0.00  0.00    +0.068 A 
ATOM     27  C   LIG    1      -33.828  66.818  20.751  0.00  0.00    +0.069 A 
BRANCH  24  28
ATOM     28  C   LIG    1      -37.366  67.436  20.672  0.00  0.00    +0.067 A 
ATOM     29  C   LIG    1      -38.365  66.471  20.465  0.00  0.00    +0.028 A 
ATOM     30  C   LIG    1      -39.707  66.809  20.636  0.00  0.00    +0.002 A 
ATOM     31  C   LIG    1      -40.060  68.113  20.975  0.00  0.00    +0.000 A 
ATOM     32  C   LIG    1      -39.072  69.084  21.143  0.00  0.00    +0.002 A 
ATOM     33  C   LIG    1      -37.722  68.751  20.996  0.00  0.00    +0.028 A 
ENDBRANCH  24  28
BRANCH  26  34
ATOM     34  C   LIG    1      -33.439  65.426  18.602  0.00  0.00    +0.040 C 
ATOM     35  C   LIG    1      -33.107  63.983  18.947  0.00  0.00    +0.010 C 
ATOM     36  C   LIG    1      -32.031  65.013  18.986  0.00  0.00    +0.010 C 
ENDBRANCH  26  34
ENDBRANCH  20  23
ENDBRANCH   1  19
TORSDOF 7
ENDMDL
MODEL 4
REMARK VINA RESULT:      -5.9      8.608     14.522
REMARK  Name = pdb/CHEMBL3298267.pdb
REMARK                            x       y       z     vdW  Elec       q    Type
REMARK                         _______ _______ _______ _____ _____    ______ ____
ROOT
ATOM      1  C   LIG    1      -29.727  76.158  33.196  0.00  0.00    +0.241 C 
ENDROOT
BRANCH   1   5
ATOM      2  C   LIG    1      -26.522  76.666  31.721  0.00  0.00    +0.113 A 
ATOM      3  N   LIG    1      -27.271  77.727  31.266  0.00  0.00    -0.129 NA
ATOM      4  N   LIG    1      -28.507  77.603  31.733  0.00  0.00    -0.065 NA
ATOM      5  N   LIG    1      -28.542  76.471  32.452  0.00  0.00    -0.242 N 
ATOM      6  C   LIG    1      -27.338  75.839  32.463  0.00  0.00    +0.139 A 
BRANCH   2  10
ATOM      7  C   LIG    1      -22.303  76.224  31.131  0.00  0.00    +0.047 A 
ATOM      8  C   LIG    1      -22.827  77.400  31.680  0.00  0.00    +0.027 A 
ATOM      9  C   LIG    1      -24.210  77.535  31.867  0.00  0.00    +0.012 A 
ATOM     10  C   LIG    1      -25.093  76.514  31.489  0.00  0.00    +0.004 A 
ATOM     11  C   LIG    1      -24.555  75.346  30.926  0.00  0.00    +0.012 A 
ATOM     12  C   LIG    1      -23.172  75.193  30.763  0.00  0.00    +0.027 A 
BRANCH   7  17
ATOM     13  C   LIG    1      -17.515  74.787  31.415  0.00  0.00    +0.067 C 
ATOM     14  C   LIG    1      -18.802  75.432  31.069  0.00  0.00    +0.056 A 
ATOM     15  N   LIG    1      -18.847  76.427  30.129  0.00  0.00    -0.241 NA
ATOM     16  C   LIG    1      -20.108  76.797  30.077  0.00  0.00    +0.204 A 
ATOM     17  N   LIG    1      -20.904  76.082  30.943  0.00  0.00    -0.306 N 
ATOM     18  C   LIG    1      -20.061  75.195  31.577  0.00  0.00    +0.115 A 
ENDBRANCH   7  17
ENDBRANCH   2  10
ENDBRANCH   1   5
BRANCH   1  19
ATOM     19  C   LIG    1      -30.649  75.317  32.359  0.00  0.00    +0.240 C 
ATOM     20  N   LIG    1      -30.552  75.457  30.912  0.00  0.00    -0.269 N 
ATOM     21  H   LIG    1      -30.024  76.242  30.539  0.00  0.00    +0.156 HD
ATOM     22  O   LIG    1      -31.446  74.547  32.865  0.00  0.00    -0.273 OA
BRANCH  20  23
ATOM     23  C   LIG    1      -31.363  74.710  30.043  0.00  0.00    +0.129 A 
ATOM     24  N   LIG    1      -32.421  75.157  29.241  0.00  0.00    -0.218 N 
ATOM     25  N   LIG    1      -33.182  74.117  28.802  0.00  0.00    -0.169 NA
ATOM     26  C   LIG    1      -32.508  73.032  29.173  0.00  0.00    +0.068 A 
ATOM     27  C   LIG    1      -31.343  73.344  29.885  0.00  0.00    +0.069 A 
BRANCH  24  28
ATOM     28  C   LIG    1      -32.809  76.490  28.959  0.00  0.00    +0.067 A 
ATOM     29  C   LIG    1      -33.877  77.053  29.677  0.00  0.00    +0.028 A 
ATOM     30  C   LIG    1      -34.258  78.373  29.441  0.00  0.00    +0.002 A 
ATOM     31  C   LIG    1      -33.604  79.123  28.466  0.00  0.00    +0.000 A 
ATOM     32  C   LIG    1      -32.568  78.555  27.723  0.00  0.00    +0.002 A 
ATOM     33  C   LIG    1      -32.164  77.239  27.968  0.00  0.00    +0.028 A 
ENDBRANCH  24  28
BRANCH  26  34
ATOM     34  C   LIG    1      -33.013  71.622  28.908  0.00  0.00    +0.040 C 
ATOM     35  C   LIG    1      -33.637  70.865  30.070  0.00  0.00    +0.010 C 
ATOM     36  C   LIG    1      -32.314  70.433  29.536  0.00  0.00    +0.010 C 
ENDBRANCH  26  34
ENDBRANCH  20  23
ENDBRANCH   1  19
TORSDOF 7
ENDMDL
MODEL 5
REMARK VINA RESULT:      -5.9     18.426     20.485
REMARK  Name = pdb/CHEMBL3298267.pdb
REMARK                            x       y       z     vdW  Elec       q    Type
REMARK                         _______ _______ _______ _____ _____    ______ ____
ROOT
ATOM      1  C   LIG    1      -25.215  81.295  10.835  0.00  0.00    +0.241 C 
ENDROOT
BRANCH   1   5
ATOM      2  C   LIG    1      -23.593  78.463  12.270  0.00  0.00    +0.113 A 
ATOM      3  N   LIG    1      -22.882  78.707  11.117  0.00  0.00    -0.129 NA
ATOM      4  N   LIG    1      -23.442  79.729  10.483  0.00  0.00    -0.065 NA
ATOM      5  N   LIG    1      -24.501  80.110  11.213  0.00  0.00    -0.242 N 
ATOM      6  C   LIG    1      -24.652  79.345  12.327  0.00  0.00    +0.139 A 
BRANCH   2  10
ATOM      7  C   LIG    1      -22.503  75.617  15.278  0.00  0.00    +0.047 A 
ATOM      8  C   LIG    1      -21.731  76.766  15.070  0.00  0.00    +0.027 A 
ATOM      9  C   LIG    1      -22.096  77.690  14.082  0.00  0.00    +0.012 A 
ATOM     10  C   LIG    1      -23.219  77.474  13.270  0.00  0.00    +0.004 A 
ATOM     11  C   LIG    1      -23.974  76.310  13.479  0.00  0.00    +0.012 A 
ATOM     12  C   LIG    1      -23.632  75.396  14.484  0.00  0.00    +0.027 A 
BRANCH   7  17
ATOM     13  C   LIG    1      -22.515  72.419  19.132  0.00  0.00    +0.067 C 
ATOM     14  C   LIG    1      -22.160  73.265  17.970  0.00  0.00    +0.056 A 
ATOM     15  N   LIG    1      -20.872  73.300  17.505  0.00  0.00    -0.241 NA
ATOM     16  C   LIG    1      -20.887  74.151  16.503  0.00  0.00    +0.204 A 
ATOM     17  N   LIG    1      -22.138  74.680  16.280  0.00  0.00    -0.306 N 
ATOM     18  C   LIG    1      -22.961  74.101  17.221  0.00  0.00    +0.115 A 
ENDBRANCH   7  17
ENDBRANCH   2  10
ENDBRANCH   1   5
BRANCH   1  19
ATOM     19  C   LIG    1      -24.838  82.432  11.742  0.00  0.00    +0.240 C 
ATOM     20  N   LIG    1      -23.429  82.800  11.802  0.00  0.00    -0.269 N 
ATOM     21  H   LIG    1      -22.748  82.163  11.398  0.00  0.00    +0.156 HD
ATOM     22  O   LIG    1      -25.672  83.027  12.401  0.00  0.00    -0.273 OA
BRANCH  20  23
ATOM     23  C   LIG    1      -22.976  83.853  12.612  0.00  0.00    +0.129 A 
ATOM     24  N   LIG    1      -22.598  83.813  13.960  0.00  0.00    -0.218 N 
ATOM     25  N   LIG    1      -22.544  85.064  14.496  0.00  0.00    -0.169 NA
ATOM     26  C   LIG    1      -22.708  85.878  13.457  0.00  0.00    +0.068 A 
ATOM     27  C   LIG    1      -22.913  85.181  12.259  0.00  0.00    +0.069 A 
BRANCH  24  28
ATOM     28  C   LIG    1      -22.394  82.678  14.783  0.00  0.00    +0.067 A 
ATOM     29  C   LIG    1      -21.088  82.358  15.187  0.00  0.00    +0.028 A 
ATOM     30  C   LIG    1      -20.864  81.264  16.022  0.00  0.00    +0.002 A 
ATOM     31  C   LIG    1      -21.932  80.466  16.427  0.00  0.00    +0.000 A 
ATOM     32  C   LIG    1      -23.226  80.757  15.996  0.00  0.00    +0.002 A 
ATOM     33  C   LIG    1      -23.464  81.864  15.176  0.00  0.00    +0.028 A 
ENDBRANCH  24  28
BRANCH  26  34
ATOM     34  C   LIG    1      -22.744  87.391  13.599  0.00  0.00    +0.040 C 
ATOM     35  C   LIG    1      -21.416  88.124  13.704  0.00  0.00    +0.010 C 
ATOM     36  C   LIG    1      -22.308  88.044  14.896  0.00  0.00    +0.010 C 
ENDBRANCH  26  34
ENDBRANCH  20  23
ENDBRANCH   1  19
TORSDOF 7
ENDMDL
MODEL 6
REMARK VINA RESULT:      -5.8      2.931      5.563
REMARK  Name = pdb/CHEMBL3298267.pdb
REMARK                            x       y       z     vdW  Elec       q    Type
REMARK                         _______ _______ _______ _____ _____    ______ ____
ROOT
ATOM      1  C   LIG    1      -38.935  79.667  26.579  0.00  0.00    +0.241 C 
ENDROOT
BRANCH   1   5
ATOM      2  C   LIG    1      -38.555  76.318  25.417  0.00  0.00    +0.113 A 
ATOM      3  N   LIG    1      -37.338  76.613  25.989  0.00  0.00    -0.129 NA
ATOM      4  N   LIG    1      -37.366  77.869  26.418  0.00  0.00    -0.065 NA
ATOM      5  N   LIG    1      -38.574  78.362  26.104  0.00  0.00    -0.242 N 
ATOM      6  C   LIG    1      -39.347  77.445  25.464  0.00  0.00    +0.139 A 
BRANCH   2  10
ATOM      7  C   LIG    1      -39.649  72.414  24.038  0.00  0.00    +0.047 A 
ATOM      8  C   LIG    1      -38.424  72.626  24.680  0.00  0.00    +0.027 A 
ATOM      9  C   LIG    1      -38.075  73.908  25.126  0.00  0.00    +0.012 A 
ATOM     10  C   LIG    1      -38.927  75.002  24.919  0.00  0.00    +0.004 A 
ATOM     11  C   LIG    1      -40.146  74.778  24.260  0.00  0.00    +0.012 A 
ATOM     12  C   LIG    1      -40.515  73.494  23.838  0.00  0.00    +0.027 A 
BRANCH   7  17
ATOM     13  C   LIG    1      -39.589  67.651  22.495  0.00  0.00    +0.067 C 
ATOM     14  C   LIG    1      -39.969  69.016  22.922  0.00  0.00    +0.056 A 
ATOM     15  N   LIG    1      -41.284  69.400  22.929  0.00  0.00    -0.241 NA
ATOM     16  C   LIG    1      -41.277  70.653  23.325  0.00  0.00    +0.204 A 
ATOM     17  N   LIG    1      -40.008  71.117  23.588  0.00  0.00    -0.306 N 
ATOM     18  C   LIG    1      -39.165  70.057  23.336  0.00  0.00    +0.115 A 
ENDBRANCH   7  17
ENDBRANCH   2  10
ENDBRANCH   1   5
BRANCH   1  19
ATOM     19  C   LIG    1      -37.943  80.130  27.608  0.00  0.00    +0.240 C 
ATOM     20  N   LIG    1      -36.774  80.856  27.130  0.00  0.00    -0.269 N 
ATOM     21  H   LIG    1      -36.575  80.844  26.134  0.00  0.00    +0.156 HD
ATOM     22  O   LIG    1      -38.107  79.912  28.795  0.00  0.00    -0.273 OA
BRANCH  20  23
ATOM     23  C   LIG    1      -35.794  81.337  28.013  0.00  0.00    +0.129 A 
ATOM     24  N   LIG    1      -34.633  80.693  28.459  0.00  0.00    -0.218 N 
ATOM     25  N   LIG    1      -34.111  81.316  29.551  0.00  0.00    -0.169 NA
ATOM     26  C   LIG    1      -34.828  82.430  29.672  0.00  0.00    +0.068 A 
ATOM     27  C   LIG    1      -35.838  82.524  28.707  0.00  0.00    +0.069 A 
BRANCH  24  28
ATOM     28  C   LIG    1      -34.061  79.485  27.989  0.00  0.00    +0.067 A 
ATOM     29  C   LIG    1      -33.002  79.548  27.069  0.00  0.00    +0.028 A 
ATOM     30  C   LIG    1      -32.401  78.375  26.614  0.00  0.00    +0.002 A 
ATOM     31  C   LIG    1      -32.876  77.138  27.044  0.00  0.00    +0.000 A 
ATOM     32  C   LIG    1      -33.953  77.070  27.928  0.00  0.00    +0.002 A 
ATOM     33  C   LIG    1      -34.549  78.241  28.406  0.00  0.00    +0.028 A 
ENDBRANCH  24  28
BRANCH  26  34
ATOM     34  C   LIG    1      -34.603  83.431  30.795  0.00  0.00    +0.040 C 
ATOM     35  C   LIG    1      -34.718  84.910  30.458  0.00  0.00    +0.010 C 
ATOM     36  C   LIG    1      -33.383  84.331  30.779  0.00  0.00    +0.010 C 
ENDBRANCH  26  34
ENDBRANCH  20  23
ENDBRANCH   1  19
TORSDOF 7
ENDMDL
MODEL 7
REMARK VINA RESULT:      -5.8      2.271      4.922
REMARK  Name = pdb/CHEMBL3298267.pdb
REMARK                            x       y       z     vdW  Elec       q    Type
REMARK                         _______ _______ _______ _____ _____    ______ ____
ROOT
ATOM      1  C   LIG    1      -36.688  76.523  27.967  0.00  0.00    +0.241 C 
ENDROOT
BRANCH   1   5
ATOM      2  C   LIG    1      -38.622  75.360  25.207  0.00  0.00    +0.113 A 
ATOM      3  N   LIG    1      -37.519  75.939  24.621  0.00  0.00    -0.129 NA
ATOM      4  N   LIG    1      -36.750  76.445  25.577  0.00  0.00    -0.065 NA
ATOM      5  N   LIG    1      -37.368  76.207  26.744  0.00  0.00    -0.242 N 
ATOM      6  C   LIG    1      -38.545  75.550  26.570  0.00  0.00    +0.139 A 
BRANCH   2  10
ATOM      7  C   LIG    1      -41.641  73.135  23.139  0.00  0.00    +0.047 A 
ATOM      8  C   LIG    1      -40.500  72.496  23.639  0.00  0.00    +0.027 A 
ATOM      9  C   LIG    1      -39.518  73.234  24.313  0.00  0.00    +0.012 A 
ATOM     10  C   LIG    1      -39.642  74.621  24.478  0.00  0.00    +0.004 A 
ATOM     11  C   LIG    1      -40.783  75.251  23.958  0.00  0.00    +0.012 A 
ATOM     12  C   LIG    1      -41.784  74.515  23.310  0.00  0.00    +0.027 A 
BRANCH   7  17
ATOM     13  C   LIG    1      -45.059  71.513  19.859  0.00  0.00    +0.067 C 
ATOM     14  C   LIG    1      -44.133  71.681  21.001  0.00  0.00    +0.056 A 
ATOM     15  N   LIG    1      -44.108  70.761  22.016  0.00  0.00    -0.241 NA
ATOM     16  C   LIG    1      -43.215  71.210  22.870  0.00  0.00    +0.204 A 
ATOM     17  N   LIG    1      -42.640  72.391  22.460  0.00  0.00    -0.306 N 
ATOM     18  C   LIG    1      -43.226  72.690  21.249  0.00  0.00    +0.115 A 
ENDBRANCH   7  17
ENDBRANCH   2  10
ENDBRANCH   1   5
BRANCH   1  19
ATOM     19  C   LIG    1      -35.969  75.307  28.480  0.00  0.00    +0.240 C 
ATOM     20  N   LIG    1      -34.933  74.734  27.631  0.00  0.00    -0.269 N 
ATOM     21  H   LIG    1      -34.878  75.044  26.664  0.00  0.00    +0.156 HD
ATOM     22  O   LIG    1      -36.235  74.819  29.564  0.00  0.00    -0.273 OA
BRANCH  20  23
ATOM     23  C   LIG    1      -34.198  73.604  28.024  0.00  0.00    +0.129 A 
ATOM     24  N   LIG    1      -34.556  72.254  27.919  0.00  0.00    -0.218 N 
ATOM     25  N   LIG    1      -33.762  71.470  28.700  0.00  0.00    -0.169 NA
ATOM     26  C   LIG    1      -32.814  72.293  29.141  0.00  0.00    +0.068 A 
ATOM     27  C   LIG    1      -33.000  73.609  28.699  0.00  0.00    +0.069 A 
BRANCH  24  28
ATOM     28  C   LIG    1      -35.651  71.685  27.221  0.00  0.00    +0.067 A 
ATOM     29  C   LIG    1      -35.406  70.981  26.032  0.00  0.00    +0.028 A 
ATOM     30  C   LIG    1      -36.462  70.385  25.343  0.00  0.00    +0.002 A 
ATOM     31  C   LIG    1      -37.766  70.521  25.815  0.00  0.00    +0.000 A 
ATOM     32  C   LIG    1      -38.017  71.254  26.975  0.00  0.00    +0.002 A 
ATOM     33  C   LIG    1      -36.963  71.836  27.685  0.00  0.00    +0.028 A 
ENDBRANCH  24  28
BRANCH  26  34
ATOM     34  C   LIG    1      -31.711  71.841  30.085  0.00  0.00    +0.040 C 
ATOM     35  C   LIG    1      -30.402  71.373  29.470  0.00  0.00    +0.010 C 
ATOM     36  C   LIG    1      -31.299  70.382  30.130  0.00  0.00    +0.010 C 
ENDBRANCH  26  34
ENDBRANCH  20  23
ENDBRANCH   1  19
TORSDOF 7
ENDMDL
MODEL 8
REMARK VINA RESULT:      -5.8      5.436     11.788
REMARK  Name = pdb/CHEMBL3298267.pdb
REMARK                            x       y       z     vdW  Elec       q    Type
REMARK                         _______ _______ _______ _____ _____    ______ ____
ROOT
ATOM      1  C   LIG    1      -36.845  78.536  28.696  0.00  0.00    +0.241 C 
ENDROOT
BRANCH   1   5
ATOM      2  C   LIG    1      -35.994  81.696  27.283  0.00  0.00    +0.113 A 
ATOM      3  N   LIG    1      -34.876  80.923  27.068  0.00  0.00    -0.129 NA
ATOM      4  N   LIG    1      -35.081  79.726  27.603  0.00  0.00    -0.065 NA
ATOM      5  N   LIG    1      -36.300  79.751  28.163  0.00  0.00    -0.242 N 
ATOM      6  C   LIG    1      -36.905  80.959  28.009  0.00  0.00    +0.139 A 
BRANCH   2  10
ATOM      7  C   LIG    1      -36.609  85.640  25.730  0.00  0.00    +0.047 A 
ATOM      8  C   LIG    1      -36.944  84.513  24.970  0.00  0.00    +0.027 A 
ATOM      9  C   LIG    1      -36.738  83.227  25.487  0.00  0.00    +0.012 A 
ATOM     10  C   LIG    1      -36.172  83.042  26.756  0.00  0.00    +0.004 A 
ATOM     11  C   LIG    1      -35.825  84.179  27.501  0.00  0.00    +0.012 A 
ATOM     12  C   LIG    1      -36.057  85.468  27.003  0.00  0.00    +0.027 A 
BRANCH   7  17
ATOM     13  C   LIG    1      -37.120  90.590  25.173  0.00  0.00    +0.067 C 
ATOM     14  C   LIG    1      -37.030  89.125  24.977  0.00  0.00    +0.056 A 
ATOM     15  N   LIG    1      -37.253  88.576  23.742  0.00  0.00    -0.241 NA
ATOM     16  C   LIG    1      -37.125  87.278  23.912  0.00  0.00    +0.204 A 
ATOM     17  N   LIG    1      -36.820  86.944  25.212  0.00  0.00    -0.306 N 
ATOM     18  C   LIG    1      -36.749  88.137  25.897  0.00  0.00    +0.115 A 
ENDBRANCH   7  17
ENDBRANCH   2  10
ENDBRANCH   1   5
BRANCH   1  19
ATOM     19  C   LIG    1      -37.875  77.981  27.753  0.00  0.00    +0.240 C 
ATOM     20  N   LIG    1      -37.500  77.856  26.351  0.00  0.00    -0.269 N 
ATOM     21  H   LIG    1      -36.655  78.325  26.036  0.00  0.00    +0.156 HD
ATOM     22  O   LIG    1      -38.980  77.645  28.141  0.00  0.00    -0.273 OA
BRANCH  20  23
ATOM     23  C   LIG    1      -38.388  77.341  25.393  0.00  0.00    +0.129 A 
ATOM     24  N   LIG    1      -39.382  78.018  24.676  0.00  0.00    -0.218 N 
ATOM     25  N   LIG    1      -40.257  77.148  24.101  0.00  0.00    -0.169 NA
ATOM     26  C   LIG    1      -39.715  75.950  24.304  0.00  0.00    +0.068 A 
ATOM     27  C   LIG    1      -38.525  76.019  25.040  0.00  0.00    +0.069 A 
BRANCH  24  28
ATOM     28  C   LIG    1      -39.612  79.414  24.593  0.00  0.00    +0.067 A 
ATOM     29  C   LIG    1      -40.107  80.089  25.721  0.00  0.00    +0.028 A 
ATOM     30  C   LIG    1      -40.312  81.468  25.675  0.00  0.00    +0.002 A 
ATOM     31  C   LIG    1      -40.060  82.171  24.499  0.00  0.00    +0.000 A 
ATOM     32  C   LIG    1      -39.605  81.498  23.365  0.00  0.00    +0.002 A 
ATOM     33  C   LIG    1      -39.376  80.119  23.406  0.00  0.00    +0.028 A 
ENDBRANCH  24  28
BRANCH  26  34
ATOM     34  C   LIG    1      -40.379  74.661  23.845  0.00  0.00    +0.040 C 
ATOM     35  C   LIG    1      -41.020  73.779  24.905  0.00  0.00    +0.010 C 
ATOM     36  C   LIG    1      -39.779  73.320  24.220  0.00  0.00    +0.010 C 
ENDBRANCH  26  34
ENDBRANCH  20  23
ENDBRANCH   1  19
TORSDOF 7
ENDMDL
MODEL 9
REMARK VINA RESULT:      -5.8      2.635      9.408
REMARK  Name = pdb/CHEMBL3298267.pdb
REMARK                            x       y       z     vdW  Elec       q    Type
REMARK                         _______ _______ _______ _____ _____    ______ ____
ROOT
ATOM      1  C   LIG    1      -34.550  69.139  27.517  0.00  0.00    +0.241 C 
ENDROOT
BRANCH   1   5
ATOM      2  C   LIG    1      -34.145  72.594  28.296  0.00  0.00    +0.113 A 
ATOM      3  N   LIG    1      -33.156  71.970  29.023  0.00  0.00    -0.129 NA
ATOM      4  N   LIG    1      -33.253  70.661  28.829  0.00  0.00    -0.065 NA
ATOM      5  N   LIG    1      -34.297  70.462  28.012  0.00  0.00    -0.242 N 
ATOM      6  C   LIG    1      -34.899  71.630  27.663  0.00  0.00    +0.139 A 
BRANCH   2  10
ATOM      7  C   LIG    1      -34.638  76.841  28.048  0.00  0.00    +0.047 A 
ATOM      8  C   LIG    1      -35.729  75.984  27.862  0.00  0.00    +0.027 A 
ATOM      9  C   LIG    1      -35.556  74.596  27.944  0.00  0.00    +0.012 A 
ATOM     10  C   LIG    1      -34.293  74.038  28.187  0.00  0.00    +0.004 A 
ATOM     11  C   LIG    1      -33.205  74.908  28.356  0.00  0.00    +0.012 A 
ATOM     12  C   LIG    1      -33.376  76.298  28.305  0.00  0.00    +0.027 A 
BRANCH   7  17
ATOM     13  C   LIG    1      -36.539  81.468  27.828  0.00  0.00    +0.067 C 
ATOM     14  C   LIG    1      -35.659  80.280  27.887  0.00  0.00    +0.056 A 
ATOM     15  N   LIG    1      -34.297  80.422  27.828  0.00  0.00    -0.241 NA
ATOM     16  C   LIG    1      -33.818  79.198  27.876  0.00  0.00    +0.204 A 
ATOM     17  N   LIG    1      -34.809  78.247  27.970  0.00  0.00    -0.306 N 
ATOM     18  C   LIG    1      -35.997  78.947  27.986  0.00  0.00    +0.115 A 
ENDBRANCH   7  17
ENDBRANCH   2  10
ENDBRANCH   1   5
BRANCH   1  19
ATOM     19  C   LIG    1      -34.726  69.176  26.025  0.00  0.00    +0.240 C 
ATOM     20  N   LIG    1      -35.940  68.584  25.479  0.00  0.00    -0.269 N 
ATOM     21  H   LIG    1      -36.508  68.004  26.091  0.00  0.00    +0.156 HD
ATOM     22  O   LIG    1      -33.890  69.683  25.297  0.00  0.00    -0.273 OA
BRANCH  20  23
ATOM     23  C   LIG    1      -36.202  68.577  24.100  0.00  0.00    +0.129 A 
ATOM     24  N   LIG    1      -37.114  69.361  23.383  0.00  0.00    -0.218 N 
ATOM     25  N   LIG    1      -37.336  68.851  22.141  0.00  0.00    -0.169 NA
ATOM     26  C   LIG    1      -36.444  67.871  22.020  0.00  0.00    +0.068 A 
ATOM     27  C   LIG    1      -35.674  67.703  23.178  0.00  0.00    +0.069 A 
BRANCH  24  28
ATOM     28  C   LIG    1      -37.854  70.483  23.834  0.00  0.00    +0.067 A 
ATOM     29  C   LIG    1      -37.181  71.514  24.509  0.00  0.00    +0.028 A 
ATOM     30  C   LIG    1      -37.881  72.642  24.935  0.00  0.00    +0.002 A 
ATOM     31  C   LIG    1      -39.255  72.731  24.723  0.00  0.00    +0.000 A 
ATOM     32  C   LIG    1      -39.933  71.691  24.086  0.00  0.00    +0.002 A 
ATOM     33  C   LIG    1      -39.238  70.565  23.636  0.00  0.00    +0.028 A 
ENDBRANCH  24  28
BRANCH  26  34
ATOM     34  C   LIG    1      -36.351  66.995  20.781  0.00  0.00    +0.040 C 
ATOM     35  C   LIG    1      -37.210  65.741  20.734  0.00  0.00    +0.010 C 
ATOM     36  C   LIG    1      -35.731  65.614  20.869  0.00  0.00    +0.010 C 
ENDBRANCH  26  34
ENDBRANCH  20  23
ENDBRANCH   1  19
TORSDOF 7
ENDMDL
