MODEL 1
REMARK VINA RESULT:      -6.6      0.000      0.000
REMARK  Name = pdb/CHEMBL3676032.pdb
REMARK                            x       y       z     vdW  Elec       q    Type
REMARK                         _______ _______ _______ _____ _____    ______ ____
ROOT
ATOM      1  C   LIG    1      -31.141  75.869  31.390  0.00  0.00    +0.126 A 
ATOM      2  N   LIG    1      -29.830  75.956  31.315  0.00  0.00    -0.212 NA
ATOM      3  C   LIG    1      -29.157  76.455  32.412  0.00  0.00    +0.170 A 
ATOM      4  C   LIG    1      -27.806  76.610  32.696  0.00  0.00    +0.101 A 
ATOM      5  C   LIG    1      -27.781  77.213  33.969  0.00  0.00    +0.150 A 
ATOM      6  N   LIG    1      -28.997  77.430  34.473  0.00  0.00    -0.173 NA
ATOM      7  N   LIG    1      -29.836  76.923  33.541  0.00  0.00    -0.221 N 
ATOM      8  C   LIG    1      -31.209  76.821  33.627  0.00  0.00    +0.118 A 
ATOM      9  C   LIG    1      -31.905  76.283  32.622  0.00  0.00    +0.063 A 
ENDROOT
BRANCH   1  11
ATOM     10  C   LIG    1      -33.267  75.881  30.063  0.00  0.00    +0.110 C 
ATOM     11  N   LIG    1      -31.880  75.430  30.305  0.00  0.00    -0.308 N 
ATOM     12  C   LIG    1      -31.616  74.144  29.660  0.00  0.00    +0.107 C 
ATOM     13  C   LIG    1      -32.837  73.874  28.787  0.00  0.00    +0.021 C 
ATOM     14  C   LIG    1      -33.952  74.623  29.500  0.00  0.00    +0.029 C 
BRANCH  10  16
ATOM     15  C   LIG    1      -34.100  78.206  29.432  0.00  0.00    +0.220 A 
ATOM     16  C   LIG    1      -33.321  77.081  29.132  0.00  0.00    +0.037 A 
ATOM     17  C   LIG    1      -32.565  77.141  27.948  0.00  0.00    +0.050 A 
ATOM     18  C   LIG    1      -32.620  78.268  27.142  0.00  0.00    +0.142 A 
ATOM     19  F   LIG    1      -31.887  78.334  26.025  0.00  0.00    -0.204 F 
ATOM     20  C   LIG    1      -33.432  79.318  27.518  0.00  0.00    +0.153 A 
ATOM     21  N   LIG    1      -34.174  79.314  28.652  0.00  0.00    -0.218 NA
BRANCH  15  23
ATOM     22  C   LIG    1      -34.861  79.396  31.306  0.00  0.00    +0.279 C 
ATOM     23  O   LIG    1      -34.869  78.168  30.577  0.00  0.00    -0.479 OA
ENDBRANCH  15  23
ENDBRANCH  10  16
ENDBRANCH   1  11
BRANCH   4  24
ATOM     24  C   LIG    1      -26.658  76.203  31.931  0.00  0.00    +0.253 C 
ATOM     25  N   LIG    1      -25.648  77.157  31.823  0.00  0.00    -0.280 N 
ATOM     26  H   LIG    1      -25.874  78.070  32.199  0.00  0.00    +0.155 HD
ATOM     27  O   LIG    1      -26.653  75.113  31.382  0.00  0.00    -0.270 OA
BRANCH  25  28
ATOM     28  C   LIG    1      -24.510  77.004  31.061  0.00  0.00    +0.050 A 
ATOM     29  C   LIG    1      -23.480  76.123  31.579  0.00  0.00    +0.030 A 
ATOM     30  C   LIG    1      -22.288  76.031  30.966  0.00  0.00    +0.072 A 
ATOM     31  C   LIG    1      -22.038  76.789  29.711  0.00  0.00    +0.249 A 
ATOM     32  O   LIG    1      -20.949  76.753  29.153  0.00  0.00    -0.268 OA
ATOM     33  N   LIG    1      -23.102  77.507  29.233  0.00  0.00    -0.327 N 
ATOM     34  H   LIG    1      -22.950  78.023  28.375  0.00  0.00    +0.168 HD
ATOM     35  C   LIG    1      -24.298  77.629  29.895  0.00  0.00    +0.109 A 
ENDBRANCH  25  28
ENDBRANCH   4  24
TORSDOF 5
ENDMDL
MODEL 2
REMARK VINA RESULT:      -6.4      6.178     10.608
REMARK  Name = pdb/CHEMBL3676032.pdb
REMARK                            x       y       z     vdW  Elec       q    Type
REMARK                         _______ _______ _______ _____ _____    ______ ____
ROOT
ATOM      1  C   LIG    1      -39.022  73.522  24.734  0.00  0.00    +0.126 A 
ATOM      2  N   LIG    1      -38.233  74.346  25.389  0.00  0.00    -0.212 NA
ATOM      3  C   LIG    1      -38.530  75.693  25.339  0.00  0.00    +0.170 A 
ATOM      4  C   LIG    1      -37.970  76.804  25.956  0.00  0.00    +0.101 A 
ATOM      5  C   LIG    1      -38.709  77.895  25.457  0.00  0.00    +0.150 A 
ATOM      6  N   LIG    1      -39.663  77.534  24.597  0.00  0.00    -0.173 NA
ATOM      7  N   LIG    1      -39.584  76.185  24.561  0.00  0.00    -0.221 N 
ATOM      8  C   LIG    1      -40.419  75.321  23.883  0.00  0.00    +0.118 A 
ATOM      9  C   LIG    1      -40.219  74.003  23.954  0.00  0.00    +0.063 A 
ENDROOT
BRANCH   1  11
ATOM     10  C   LIG    1      -37.374  71.635  24.827  0.00  0.00    +0.110 C 
ATOM     11  N   LIG    1      -38.747  72.165  24.698  0.00  0.00    -0.308 N 
ATOM     12  C   LIG    1      -39.622  71.219  24.005  0.00  0.00    +0.107 C 
ATOM     13  C   LIG    1      -38.807  69.936  23.882  0.00  0.00    +0.021 C 
ATOM     14  C   LIG    1      -37.369  70.432  23.870  0.00  0.00    +0.029 C 
BRANCH  10  16
ATOM     15  C   LIG    1      -35.738  70.898  26.638  0.00  0.00    +0.220 A 
ATOM     16  C   LIG    1      -37.033  71.280  26.265  0.00  0.00    +0.037 A 
ATOM     17  C   LIG    1      -37.985  71.356  27.298  0.00  0.00    +0.050 A 
ATOM     18  C   LIG    1      -37.625  71.052  28.601  0.00  0.00    +0.142 A 
ATOM     19  F   LIG    1      -38.524  71.140  29.588  0.00  0.00    -0.204 F 
ATOM     20  C   LIG    1      -36.325  70.670  28.863  0.00  0.00    +0.153 A 
ATOM     21  N   LIG    1      -35.368  70.589  27.907  0.00  0.00    -0.218 NA
BRANCH  15  23
ATOM     22  C   LIG    1      -34.061  69.565  25.678  0.00  0.00    +0.279 C 
ATOM     23  O   LIG    1      -34.787  70.795  25.644  0.00  0.00    -0.479 OA
ENDBRANCH  15  23
ENDBRANCH  10  16
ENDBRANCH   1  11
BRANCH   4  24
ATOM     24  C   LIG    1      -36.922  76.872  26.940  0.00  0.00    +0.253 C 
ATOM     25  N   LIG    1      -35.681  76.402  26.517  0.00  0.00    -0.280 N 
ATOM     26  H   LIG    1      -35.672  75.962  25.605  0.00  0.00    +0.155 HD
ATOM     27  O   LIG    1      -37.177  77.260  28.069  0.00  0.00    -0.270 OA
BRANCH  25  28
ATOM     28  C   LIG    1      -34.571  76.293  27.328  0.00  0.00    +0.050 A 
ATOM     29  C   LIG    1      -33.714  77.458  27.435  0.00  0.00    +0.030 A 
ATOM     30  C   LIG    1      -32.543  77.386  28.092  0.00  0.00    +0.072 A 
ATOM     31  C   LIG    1      -32.148  76.123  28.769  0.00  0.00    +0.249 A 
ATOM     32  O   LIG    1      -31.071  76.017  29.342  0.00  0.00    -0.268 OA
ATOM     33  N   LIG    1      -33.068  75.109  28.712  0.00  0.00    -0.327 N 
ATOM     34  H   LIG    1      -32.816  74.244  29.174  0.00  0.00    +0.168 HD
ATOM     35  C   LIG    1      -34.238  75.181  27.997  0.00  0.00    +0.109 A 
ENDBRANCH  25  28
ENDBRANCH   4  24
TORSDOF 5
ENDMDL
MODEL 3
REMARK VINA RESULT:      -6.4      5.804     11.067
REMARK  Name = pdb/CHEMBL3676032.pdb
REMARK                            x       y       z     vdW  Elec       q    Type
REMARK                         _______ _______ _______ _____ _____    ______ ____
ROOT
ATOM      1  C   LIG    1      -19.211  78.703  34.394  0.00  0.00    +0.126 A 
ATOM      2  N   LIG    1      -20.027  78.356  33.422  0.00  0.00    -0.212 NA
ATOM      3  C   LIG    1      -19.468  77.821  32.278  0.00  0.00    +0.170 A 
ATOM      4  C   LIG    1      -20.022  77.292  31.120  0.00  0.00    +0.101 A 
ATOM      5  C   LIG    1      -18.912  76.953  30.321  0.00  0.00    +0.150 A 
ATOM      6  N   LIG    1      -17.743  77.230  30.901  0.00  0.00    -0.173 NA
ATOM      7  N   LIG    1      -18.083  77.716  32.116  0.00  0.00    -0.221 N 
ATOM      8  C   LIG    1      -17.228  78.069  33.139  0.00  0.00    +0.118 A 
ATOM      9  C   LIG    1      -17.718  78.527  34.294  0.00  0.00    +0.063 A 
ENDROOT
BRANCH   1  11
ATOM     10  C   LIG    1      -20.689  80.396  35.505  0.00  0.00    +0.110 C 
ATOM     11  N   LIG    1      -19.702  79.297  35.545  0.00  0.00    -0.308 N 
ATOM     12  C   LIG    1      -18.937  79.310  36.793  0.00  0.00    +0.107 C 
ATOM     13  C   LIG    1      -19.629  80.343  37.676  0.00  0.00    +0.021 C 
ATOM     14  C   LIG    1      -20.258  81.299  36.673  0.00  0.00    +0.029 C 
BRANCH  10  16
ATOM     15  C   LIG    1      -23.213  80.754  35.563  0.00  0.00    +0.220 A 
ATOM     16  C   LIG    1      -22.116  79.884  35.617  0.00  0.00    +0.037 A 
ATOM     17  C   LIG    1      -22.410  78.514  35.738  0.00  0.00    +0.050 A 
ATOM     18  C   LIG    1      -23.727  78.087  35.806  0.00  0.00    +0.142 A 
ATOM     19  F   LIG    1      -24.008  76.783  35.904  0.00  0.00    -0.204 F 
ATOM     20  C   LIG    1      -24.736  79.026  35.761  0.00  0.00    +0.153 A 
ATOM     21  N   LIG    1      -24.508  80.356  35.636  0.00  0.00    -0.218 NA
BRANCH  15  23
ATOM     22  C   LIG    1      -23.562  82.875  36.505  0.00  0.00    +0.279 C 
ATOM     23  O   LIG    1      -22.956  82.106  35.465  0.00  0.00    -0.479 OA
ENDBRANCH  15  23
ENDBRANCH  10  16
ENDBRANCH   1  11
BRANCH   4  24
ATOM     24  C   LIG    1      -21.404  77.059  30.790  0.00  0.00    +0.253 C 
ATOM     25  N   LIG    1      -22.324  77.556  31.710  0.00  0.00    -0.280 N 
ATOM     26  H   LIG    1      -21.926  77.929  32.563  0.00  0.00    +0.155 HD
ATOM     27  O   LIG    1      -21.687  76.408  29.797  0.00  0.00    -0.270 OA
BRANCH  25  28
ATOM     28  C   LIG    1      -23.687  77.360  31.632  0.00  0.00    +0.050 A 
ATOM     29  C   LIG    1      -24.268  76.382  32.534  0.00  0.00    +0.030 A 
ATOM     30  C   LIG    1      -25.561  76.035  32.422  0.00  0.00    +0.072 A 
ATOM     31  C   LIG    1      -26.424  76.698  31.410  0.00  0.00    +0.249 A 
ATOM     32  O   LIG    1      -27.595  76.374  31.261  0.00  0.00    -0.268 OA
ATOM     33  N   LIG    1      -25.822  77.687  30.677  0.00  0.00    -0.327 N 
ATOM     34  H   LIG    1      -26.399  78.154  29.989  0.00  0.00    +0.168 HD
ATOM     35  C   LIG    1      -24.488  77.999  30.770  0.00  0.00    +0.109 A 
ENDBRANCH  25  28
ENDBRANCH   4  24
TORSDOF 5
ENDMDL
MODEL 4
REMARK VINA RESULT:      -6.4      6.475     10.928
REMARK  Name = pdb/CHEMBL3676032.pdb
REMARK                            x       y       z     vdW  Elec       q    Type
REMARK                         _______ _______ _______ _____ _____    ______ ____
ROOT
ATOM      1  C   LIG    1      -34.136  72.023  28.648  0.00  0.00    +0.126 A 
ATOM      2  N   LIG    1      -34.817  71.972  27.524  0.00  0.00    -0.212 NA
ATOM      3  C   LIG    1      -34.799  70.786  26.817  0.00  0.00    +0.170 A 
ATOM      4  C   LIG    1      -35.448  70.369  25.662  0.00  0.00    +0.101 A 
ATOM      5  C   LIG    1      -34.972  69.061  25.443  0.00  0.00    +0.150 A 
ATOM      6  N   LIG    1      -34.097  68.658  26.367  0.00  0.00    -0.173 NA
ATOM      7  N   LIG    1      -34.028  69.695  27.232  0.00  0.00    -0.221 N 
ATOM      8  C   LIG    1      -33.323  69.743  28.416  0.00  0.00    +0.118 A 
ATOM      9  C   LIG    1      -33.362  70.842  29.175  0.00  0.00    +0.063 A 
ENDROOT
BRANCH   1  11
ATOM     10  C   LIG    1      -33.573  74.461  28.788  0.00  0.00    +0.110 C 
ATOM     11  N   LIG    1      -34.068  73.199  29.376  0.00  0.00    -0.308 N 
ATOM     12  C   LIG    1      -33.931  73.198  30.833  0.00  0.00    +0.107 C 
ATOM     13  C   LIG    1      -33.527  74.622  31.199  0.00  0.00    +0.021 C 
ATOM     14  C   LIG    1      -32.809  75.115  29.952  0.00  0.00    +0.029 C 
BRANCH  10  16
ATOM     15  C   LIG    1      -34.467  76.322  27.292  0.00  0.00    +0.220 A 
ATOM     16  C   LIG    1      -34.704  75.314  28.237  0.00  0.00    +0.037 A 
ATOM     17  C   LIG    1      -36.043  75.111  28.613  0.00  0.00    +0.050 A 
ATOM     18  C   LIG    1      -37.048  75.891  28.063  0.00  0.00    +0.142 A 
ATOM     19  F   LIG    1      -38.325  75.687  28.406  0.00  0.00    -0.204 F 
ATOM     20  C   LIG    1      -36.709  76.870  27.151  0.00  0.00    +0.153 A 
ATOM     21  N   LIG    1      -35.436  77.101  26.749  0.00  0.00    -0.218 NA
BRANCH  15  23
ATOM     22  C   LIG    1      -32.725  77.891  27.194  0.00  0.00    +0.279 C 
ATOM     23  O   LIG    1      -33.161  76.559  26.919  0.00  0.00    -0.479 OA
ENDBRANCH  15  23
ENDBRANCH  10  16
ENDBRANCH   1  11
BRANCH   4  24
ATOM     24  C   LIG    1      -36.439  71.051  24.873  0.00  0.00    +0.253 C 
ATOM     25  N   LIG    1      -37.091  72.100  25.518  0.00  0.00    -0.280 N 
ATOM     26  H   LIG    1      -36.879  72.201  26.502  0.00  0.00    +0.155 HD
ATOM     27  O   LIG    1      -36.696  70.652  23.748  0.00  0.00    -0.270 OA
BRANCH  25  28
ATOM     28  C   LIG    1      -38.133  72.820  24.975  0.00  0.00    +0.050 A 
ATOM     29  C   LIG    1      -38.021  74.267  24.996  0.00  0.00    +0.030 A 
ATOM     30  C   LIG    1      -39.054  75.038  24.615  0.00  0.00    +0.072 A 
ATOM     31  C   LIG    1      -40.302  74.410  24.108  0.00  0.00    +0.249 A 
ATOM     32  O   LIG    1      -41.271  75.087  23.790  0.00  0.00    -0.268 OA
ATOM     33  N   LIG    1      -40.281  73.043  24.016  0.00  0.00    -0.327 N 
ATOM     34  H   LIG    1      -41.121  72.601  23.665  0.00  0.00    +0.168 HD
ATOM     35  C   LIG    1      -39.236  72.266  24.453  0.00  0.00    +0.109 A 
ENDBRANCH  25  28
ENDBRANCH   4  24
TORSDOF 5
ENDMDL
MODEL 5
REMARK VINA RESULT:      -6.3      5.260     10.340
REMARK  Name = pdb/CHEMBL3676032.pdb
REMARK                            x       y       z     vdW  Elec       q    Type
REMARK                         _______ _______ _______ _____ _____    ______ ____
ROOT
ATOM      1  C   LIG    1      -20.772  78.165  33.348  0.00  0.00    +0.126 A 
ATOM      2  N   LIG    1      -21.906  77.906  32.734  0.00  0.00    -0.212 NA
ATOM      3  C   LIG    1      -21.840  77.451  31.432  0.00  0.00    +0.170 A 
ATOM      4  C   LIG    1      -22.810  77.022  30.535  0.00  0.00    +0.101 A 
ATOM      5  C   LIG    1      -22.095  76.725  29.358  0.00  0.00    +0.150 A 
ATOM      6  N   LIG    1      -20.782  76.937  29.473  0.00  0.00    -0.173 NA
ATOM      7  N   LIG    1      -20.622  77.336  30.755  0.00  0.00    -0.221 N 
ATOM      8  C   LIG    1      -19.431  77.595  31.401  0.00  0.00    +0.118 A 
ATOM      9  C   LIG    1      -19.434  77.972  32.683  0.00  0.00    +0.063 A 
ENDROOT
BRANCH   1  11
ATOM     10  C   LIG    1      -21.451  79.944  34.979  0.00  0.00    +0.110 C 
ATOM     11  N   LIG    1      -20.771  78.678  34.635  0.00  0.00    -0.308 N 
ATOM     12  C   LIG    1      -19.705  78.367  35.588  0.00  0.00    +0.107 C 
ATOM     13  C   LIG    1      -19.865  79.383  36.714  0.00  0.00    +0.021 C 
ATOM     14  C   LIG    1      -20.514  80.573  36.024  0.00  0.00    +0.029 C 
BRANCH  10  16
ATOM     15  C   LIG    1      -23.744  80.778  35.717  0.00  0.00    +0.220 A 
ATOM     16  C   LIG    1      -22.866  79.711  35.481  0.00  0.00    +0.037 A 
ATOM     17  C   LIG    1      -23.380  78.420  35.695  0.00  0.00    +0.050 A 
ATOM     18  C   LIG    1      -24.687  78.251  36.124  0.00  0.00    +0.142 A 
ATOM     19  F   LIG    1      -25.182  77.023  36.311  0.00  0.00    -0.204 F 
ATOM     20  C   LIG    1      -25.466  79.369  36.343  0.00  0.00    +0.153 A 
ATOM     21  N   LIG    1      -25.024  80.634  36.145  0.00  0.00    -0.218 NA
BRANCH  15  23
ATOM     22  C   LIG    1      -23.419  82.890  36.686  0.00  0.00    +0.279 C 
ATOM     23  O   LIG    1      -23.262  82.058  35.536  0.00  0.00    -0.479 OA
ENDBRANCH  15  23
ENDBRANCH  10  16
ENDBRANCH   1  11
BRANCH   4  24
ATOM     24  C   LIG    1      -24.223  76.838  30.735  0.00  0.00    +0.253 C 
ATOM     25  N   LIG    1      -24.588  76.376  31.998  0.00  0.00    -0.280 N 
ATOM     26  H   LIG    1      -23.819  76.114  32.602  0.00  0.00    +0.155 HD
ATOM     27  O   LIG    1      -24.994  77.024  29.807  0.00  0.00    -0.270 OA
BRANCH  25  28
ATOM     28  C   LIG    1      -25.875  76.046  32.364  0.00  0.00    +0.050 A 
ATOM     29  C   LIG    1      -26.599  77.008  33.175  0.00  0.00    +0.030 A 
ATOM     30  C   LIG    1      -27.803  76.700  33.687  0.00  0.00    +0.072 A 
ATOM     31  C   LIG    1      -28.430  75.389  33.374  0.00  0.00    +0.249 A 
ATOM     32  O   LIG    1      -29.508  75.067  33.858  0.00  0.00    -0.268 OA
ATOM     33  N   LIG    1      -27.728  74.589  32.512  0.00  0.00    -0.327 N 
ATOM     34  H   LIG    1      -28.146  73.696  32.283  0.00  0.00    +0.168 HD
ATOM     35  C   LIG    1      -26.479  74.896  32.033  0.00  0.00    +0.109 A 
ENDBRANCH  25  28
ENDBRANCH   4  24
TORSDOF 5
ENDMDL
MODEL 6
REMARK VINA RESULT:      -6.3      7.097     11.643
REMARK  Name = pdb/CHEMBL3676032.pdb
REMARK                            x       y       z     vdW  Elec       q    Type
REMARK                         _______ _______ _______ _____ _____    ______ ____
ROOT
ATOM      1  C   LIG    1      -20.765  77.384  31.378  0.00  0.00    +0.126 A 
ATOM      2  N   LIG    1      -21.799  77.760  32.101  0.00  0.00    -0.212 NA
ATOM      3  C   LIG    1      -23.053  77.630  31.540  0.00  0.00    +0.170 A 
ATOM      4  C   LIG    1      -24.332  77.852  32.033  0.00  0.00    +0.101 A 
ATOM      5  C   LIG    1      -25.184  77.569  30.947  0.00  0.00    +0.150 A 
ATOM      6  N   LIG    1      -24.527  77.195  29.847  0.00  0.00    -0.173 NA
ATOM      7  N   LIG    1      -23.228  77.187  30.224  0.00  0.00    -0.221 N 
ATOM      8  C   LIG    1      -22.147  76.782  29.470  0.00  0.00    +0.118 A 
ATOM      9  C   LIG    1      -20.917  76.821  29.989  0.00  0.00    +0.063 A 
ENDROOT
BRANCH   1  11
ATOM     10  C   LIG    1      -19.109  78.630  32.789  0.00  0.00    +0.110 C 
ATOM     11  N   LIG    1      -19.476  77.541  31.861  0.00  0.00    -0.308 N 
ATOM     12  C   LIG    1      -18.311  77.054  31.121  0.00  0.00    +0.107 C 
ATOM     13  C   LIG    1      -17.110  77.727  31.776  0.00  0.00    +0.021 C 
ATOM     14  C   LIG    1      -17.692  79.017  32.335  0.00  0.00    +0.029 C 
BRANCH  10  16
ATOM     15  C   LIG    1      -20.016  78.856  35.161  0.00  0.00    +0.220 A 
ATOM     16  C   LIG    1      -19.193  78.192  34.242  0.00  0.00    +0.037 A 
ATOM     17  C   LIG    1      -18.485  77.078  34.727  0.00  0.00    +0.050 A 
ATOM     18  C   LIG    1      -18.613  76.693  36.053  0.00  0.00    +0.142 A 
ATOM     19  F   LIG    1      -17.953  75.624  36.512  0.00  0.00    -0.204 F 
ATOM     20  C   LIG    1      -19.438  77.425  36.883  0.00  0.00    +0.153 A 
ATOM     21  N   LIG    1      -20.148  78.500  36.464  0.00  0.00    -0.218 NA
BRANCH  15  23
ATOM     22  C   LIG    1      -20.732  81.032  35.669  0.00  0.00    +0.279 C 
ATOM     23  O   LIG    1      -20.708  79.965  34.720  0.00  0.00    -0.479 OA
ENDBRANCH  15  23
ENDBRANCH  10  16
ENDBRANCH   1  11
BRANCH   4  24
ATOM     24  C   LIG    1      -24.749  78.219  33.360  0.00  0.00    +0.253 C 
ATOM     25  N   LIG    1      -23.765  78.812  34.148  0.00  0.00    -0.280 N 
ATOM     26  H   LIG    1      -22.836  78.822  33.745  0.00  0.00    +0.155 HD
ATOM     27  O   LIG    1      -25.877  77.945  33.737  0.00  0.00    -0.270 OA
BRANCH  25  28
ATOM     28  C   LIG    1      -23.928  79.153  35.474  0.00  0.00    +0.050 A 
ATOM     29  C   LIG    1      -24.375  80.504  35.759  0.00  0.00    +0.030 A 
ATOM     30  C   LIG    1      -24.423  80.954  37.025  0.00  0.00    +0.072 A 
ATOM     31  C   LIG    1      -24.076  80.046  38.150  0.00  0.00    +0.249 A 
ATOM     32  O   LIG    1      -24.075  80.441  39.309  0.00  0.00    -0.268 OA
ATOM     33  N   LIG    1      -23.775  78.757  37.797  0.00  0.00    -0.327 N 
ATOM     34  H   LIG    1      -23.544  78.125  38.553  0.00  0.00    +0.168 HD
ATOM     35  C   LIG    1      -23.684  78.324  36.497  0.00  0.00    +0.109 A 
ENDBRANCH  25  28
ENDBRANCH   4  24
TORSDOF 5
ENDMDL
MODEL 7
REMARK VINA RESULT:      -6.3      6.423     11.325
REMARK  Name = pdb/CHEMBL3676032.pdb
REMARK                            x       y       z     vdW  Elec       q    Type
REMARK                         _______ _______ _______ _____ _____    ______ ____
ROOT
ATOM      1  C   LIG    1      -34.438  80.056  28.195  0.00  0.00    +0.126 A 
ATOM      2  N   LIG    1      -35.102  80.853  27.387  0.00  0.00    -0.212 NA
ATOM      3  C   LIG    1      -35.791  81.908  27.951  0.00  0.00    +0.170 A 
ATOM      4  C   LIG    1      -36.516  82.958  27.403  0.00  0.00    +0.101 A 
ATOM      5  C   LIG    1      -37.003  83.670  28.517  0.00  0.00    +0.150 A 
ATOM      6  N   LIG    1      -36.631  83.139  29.684  0.00  0.00    -0.173 NA
ATOM      7  N   LIG    1      -35.852  82.090  29.336  0.00  0.00    -0.221 N 
ATOM      8  C   LIG    1      -35.147  81.262  30.185  0.00  0.00    +0.118 A 
ATOM      9  C   LIG    1      -34.407  80.267  29.687  0.00  0.00    +0.063 A 
ENDROOT
BRANCH   1  11
ATOM     10  C   LIG    1      -33.602  77.711  28.491  0.00  0.00    +0.110 C 
ATOM     11  N   LIG    1      -33.771  78.947  27.700  0.00  0.00    -0.308 N 
ATOM     12  C   LIG    1      -32.745  79.064  26.664  0.00  0.00    +0.107 C 
ATOM     13  C   LIG    1      -32.020  77.722  26.665  0.00  0.00    +0.021 C 
ATOM     14  C   LIG    1      -32.197  77.228  28.093  0.00  0.00    +0.029 C 
BRANCH  10  16
ATOM     15  C   LIG    1      -35.056  75.724  29.153  0.00  0.00    +0.220 A 
ATOM     16  C   LIG    1      -34.703  76.701  28.212  0.00  0.00    +0.037 A 
ATOM     17  C   LIG    1      -35.448  76.720  27.020  0.00  0.00    +0.050 A 
ATOM     18  C   LIG    1      -36.464  75.799  26.818  0.00  0.00    +0.142 A 
ATOM     19  F   LIG    1      -37.185  75.826  25.691  0.00  0.00    -0.204 F 
ATOM     20  C   LIG    1      -36.724  74.866  27.800  0.00  0.00    +0.153 A 
ATOM     21  N   LIG    1      -36.042  74.810  28.970  0.00  0.00    -0.218 NA
BRANCH  15  23
ATOM     22  C   LIG    1      -34.605  74.504  31.106  0.00  0.00    +0.279 C 
ATOM     23  O   LIG    1      -34.330  75.668  30.324  0.00  0.00    -0.479 OA
ENDBRANCH  15  23
ENDBRANCH  10  16
ENDBRANCH   1  11
BRANCH   4  24
ATOM     24  C   LIG    1      -36.700  83.321  26.023  0.00  0.00    +0.253 C 
ATOM     25  N   LIG    1      -38.023  83.341  25.586  0.00  0.00    -0.280 N 
ATOM     26  H   LIG    1      -38.703  82.995  26.251  0.00  0.00    +0.155 HD
ATOM     27  O   LIG    1      -35.725  83.519  25.315  0.00  0.00    -0.270 OA
BRANCH  25  28
ATOM     28  C   LIG    1      -38.410  83.571  24.283  0.00  0.00    +0.050 A 
ATOM     29  C   LIG    1      -38.200  84.907  23.756  0.00  0.00    +0.030 A 
ATOM     30  C   LIG    1      -38.677  85.246  22.547  0.00  0.00    +0.072 A 
ATOM     31  C   LIG    1      -39.372  84.232  21.711  0.00  0.00    +0.249 A 
ATOM     32  O   LIG    1      -39.849  84.524  20.622  0.00  0.00    -0.268 OA
ATOM     33  N   LIG    1      -39.427  82.969  22.238  0.00  0.00    -0.327 N 
ATOM     34  H   LIG    1      -39.890  82.265  21.678  0.00  0.00    +0.168 HD
ATOM     35  C   LIG    1      -38.977  82.648  23.495  0.00  0.00    +0.109 A 
ENDBRANCH  25  28
ENDBRANCH   4  24
TORSDOF 5
ENDMDL
MODEL 8
REMARK VINA RESULT:      -6.2      7.541     11.309
REMARK  Name = pdb/CHEMBL3676032.pdb
REMARK                            x       y       z     vdW  Elec       q    Type
REMARK                         _______ _______ _______ _____ _____    ______ ____
ROOT
ATOM      1  C   LIG    1      -38.381  72.886  25.043  0.00  0.00    +0.126 A 
ATOM      2  N   LIG    1      -37.704  73.878  25.580  0.00  0.00    -0.212 NA
ATOM      3  C   LIG    1      -38.170  75.160  25.368  0.00  0.00    +0.170 A 
ATOM      4  C   LIG    1      -37.756  76.401  25.836  0.00  0.00    +0.101 A 
ATOM      5  C   LIG    1      -38.627  77.320  25.218  0.00  0.00    +0.150 A 
ATOM      6  N   LIG    1      -39.528  76.737  24.424  0.00  0.00    -0.173 NA
ATOM      7  N   LIG    1      -39.278  75.415  24.554  0.00  0.00    -0.221 N 
ATOM      8  C   LIG    1      -39.996  74.376  24.000  0.00  0.00    +0.118 A 
ATOM      9  C   LIG    1      -39.630  73.112  24.230  0.00  0.00    +0.063 A 
ENDROOT
BRANCH   1  11
ATOM     10  C   LIG    1      -38.853  70.425  25.087  0.00  0.00    +0.110 C 
ATOM     11  N   LIG    1      -37.936  71.581  25.170  0.00  0.00    -0.308 N 
ATOM     12  C   LIG    1      -36.723  71.249  25.918  0.00  0.00    +0.107 C 
ATOM     13  C   LIG    1      -36.784  69.740  26.131  0.00  0.00    +0.021 C 
ATOM     14  C   LIG    1      -38.276  69.444  26.122  0.00  0.00    +0.029 C 
BRANCH  10  16
ATOM     15  C   LIG    1      -40.152  69.741  23.003  0.00  0.00    +0.220 A 
ATOM     16  C   LIG    1      -38.930  69.860  23.679  0.00  0.00    +0.037 A 
ATOM     17  C   LIG    1      -37.782  69.467  22.968  0.00  0.00    +0.050 A 
ATOM     18  C   LIG    1      -37.893  68.985  21.673  0.00  0.00    +0.142 A 
ATOM     19  F   LIG    1      -36.800  68.628  20.990  0.00  0.00    -0.204 F 
ATOM     20  C   LIG    1      -39.146  68.892  21.102  0.00  0.00    +0.153 A 
ATOM     21  N   LIG    1      -40.282  69.264  21.739  0.00  0.00    -0.218 NA
BRANCH  15  23
ATOM     22  C   LIG    1      -42.294  69.075  23.692  0.00  0.00    +0.279 C 
ATOM     23  O   LIG    1      -41.299  70.099  23.681  0.00  0.00    -0.479 OA
ENDBRANCH  15  23
ENDBRANCH  10  16
ENDBRANCH   1  11
BRANCH   4  24
ATOM     24  C   LIG    1      -36.724  76.722  26.786  0.00  0.00    +0.253 C 
ATOM     25  N   LIG    1      -35.503  76.086  26.574  0.00  0.00    -0.280 N 
ATOM     26  H   LIG    1      -35.502  75.384  25.844  0.00  0.00    +0.155 HD
ATOM     27  O   LIG    1      -36.979  77.454  27.730  0.00  0.00    -0.270 OA
BRANCH  25  28
ATOM     28  C   LIG    1      -34.417  76.182  27.418  0.00  0.00    +0.050 A 
ATOM     29  C   LIG    1      -33.523  77.307  27.218  0.00  0.00    +0.030 A 
ATOM     30  C   LIG    1      -32.371  77.393  27.906  0.00  0.00    +0.072 A 
ATOM     31  C   LIG    1      -32.035  76.365  28.925  0.00  0.00    +0.249 A 
ATOM     32  O   LIG    1      -30.976  76.398  29.538  0.00  0.00    -0.268 OA
ATOM     33  N   LIG    1      -32.988  75.401  29.128  0.00  0.00    -0.327 N 
ATOM     34  H   LIG    1      -32.777  74.697  29.824  0.00  0.00    +0.168 HD
ATOM     35  C   LIG    1      -34.138  75.299  28.385  0.00  0.00    +0.109 A 
ENDBRANCH  25  28
ENDBRANCH   4  24
TORSDOF 5
ENDMDL
MODEL 9
REMARK VINA RESULT:      -6.2      6.239      9.658
REMARK  Name = pdb/CHEMBL3676032.pdb
REMARK                            x       y       z     vdW  Elec       q    Type
REMARK                         _______ _______ _______ _____ _____    ______ ____
ROOT
ATOM      1  C   LIG    1      -23.004  77.139  31.329  0.00  0.00    +0.126 A 
ATOM      2  N   LIG    1      -22.001  77.557  32.071  0.00  0.00    -0.212 NA
ATOM      3  C   LIG    1      -20.728  77.443  31.551  0.00  0.00    +0.170 A 
ATOM      4  C   LIG    1      -19.482  77.841  32.017  0.00  0.00    +0.101 A 
ATOM      5  C   LIG    1      -18.577  77.395  31.033  0.00  0.00    +0.150 A 
ATOM      6  N   LIG    1      -19.173  76.767  30.018  0.00  0.00    -0.173 NA
ATOM      7  N   LIG    1      -20.491  76.838  30.312  0.00  0.00    -0.221 N 
ATOM      8  C   LIG    1      -21.542  76.410  29.527  0.00  0.00    +0.118 A 
ATOM      9  C   LIG    1      -22.799  76.560  29.952  0.00  0.00    +0.063 A 
ENDROOT
BRANCH   1  11
ATOM     10  C   LIG    1      -24.713  76.419  33.015  0.00  0.00    +0.110 C 
ATOM     11  N   LIG    1      -24.301  77.174  31.814  0.00  0.00    -0.308 N 
ATOM     12  C   LIG    1      -25.442  77.460  30.945  0.00  0.00    +0.107 C 
ATOM     13  C   LIG    1      -26.671  77.049  31.748  0.00  0.00    +0.021 C 
ATOM     14  C   LIG    1      -26.141  75.962  32.671  0.00  0.00    +0.029 C 
BRANCH  10  16
ATOM     15  C   LIG    1      -24.492  76.674  35.542  0.00  0.00    +0.220 A 
ATOM     16  C   LIG    1      -24.623  77.261  34.276  0.00  0.00    +0.037 A 
ATOM     17  C   LIG    1      -24.624  78.667  34.236  0.00  0.00    +0.050 A 
ATOM     18  C   LIG    1      -24.509  79.398  35.408  0.00  0.00    +0.142 A 
ATOM     19  F   LIG    1      -24.493  80.735  35.370  0.00  0.00    -0.204 F 
ATOM     20  C   LIG    1      -24.401  78.724  36.607  0.00  0.00    +0.153 A 
ATOM     21  N   LIG    1      -24.386  77.372  36.701  0.00  0.00    -0.218 NA
BRANCH  15  23
ATOM     22  C   LIG    1      -23.288  74.742  36.112  0.00  0.00    +0.279 C 
ATOM     23  O   LIG    1      -24.508  75.296  35.616  0.00  0.00    -0.479 OA
ENDBRANCH  15  23
ENDBRANCH  10  16
ENDBRANCH   1  11
BRANCH   4  24
ATOM     24  C   LIG    1      -19.145  78.599  33.193  0.00  0.00    +0.253 C 
ATOM     25  N   LIG    1      -20.199  78.821  34.077  0.00  0.00    -0.280 N 
ATOM     26  H   LIG    1      -21.109  78.524  33.749  0.00  0.00    +0.155 HD
ATOM     27  O   LIG    1      -18.017  79.047  33.321  0.00  0.00    -0.270 OA
BRANCH  25  28
ATOM     28  C   LIG    1      -20.112  79.599  35.212  0.00  0.00    +0.050 A 
ATOM     29  C   LIG    1      -20.981  80.758  35.288  0.00  0.00    +0.030 A 
ATOM     30  C   LIG    1      -20.856  81.640  36.294  0.00  0.00    +0.072 A 
ATOM     31  C   LIG    1      -19.865  81.399  37.375  0.00  0.00    +0.249 A 
ATOM     32  O   LIG    1      -19.704  82.204  38.284  0.00  0.00    -0.268 OA
ATOM     33  N   LIG    1      -19.166  80.223  37.284  0.00  0.00    -0.327 N 
ATOM     34  H   LIG    1      -18.492  80.041  38.017  0.00  0.00    +0.168 HD
ATOM     35  C   LIG    1      -19.270  79.356  36.225  0.00  0.00    +0.109 A 
ENDBRANCH  25  28
ENDBRANCH   4  24
TORSDOF 5
ENDMDL
