MODEL 1
REMARK VINA RESULT:      -6.7      0.000      0.000
REMARK  Name = pdb/CHEMBL3966108.pdb
REMARK                            x       y       z     vdW  Elec       q    Type
REMARK                         _______ _______ _______ _____ _____    ______ ____
ROOT
ATOM      1  C   LIG    1      -22.096  82.567  15.691  0.00  0.00    +0.131 C 
ATOM      2  N   LIG    1      -20.872  82.113  16.011  0.00  0.00    -0.141 NA
ATOM      3  N   LIG    1      -20.905  80.791  15.725  0.00  0.00    -0.201 N 
ATOM      4  C   LIG    1      -22.212  80.342  15.516  0.00  0.00    +0.185 C 
ATOM      5  C   LIG    1      -22.958  81.490  15.369  0.00  0.00    +0.056 C 
ENDROOT
BRANCH   3   6
ATOM      6  C   LIG    1      -19.707  80.029  15.668  0.00  0.00    +0.052 A 
ATOM      7  C   LIG    1      -18.787  80.251  14.634  0.00  0.00    +0.025 A 
ATOM      8  C   LIG    1      -17.608  79.503  14.580  0.00  0.00    +0.002 A 
ATOM      9  C   LIG    1      -17.363  78.509  15.528  0.00  0.00    +0.000 A 
ATOM     10  C   LIG    1      -18.292  78.262  16.535  0.00  0.00    +0.002 A 
ATOM     11  C   LIG    1      -19.463  79.017  16.608  0.00  0.00    +0.025 A 
ENDBRANCH   3   6
BRANCH   4  12
ATOM     12  N   LIG    1      -22.673  79.012  15.520  0.00  0.00    -0.282 N 
ATOM     13  H   LIG    1      -23.235  78.721  16.313  0.00  0.00    +0.152 HD
ATOM     14  C   LIG    1      -22.473  78.097  14.421  0.00  0.00    +0.247 C 
ATOM     15  O   LIG    1      -21.865  78.441  13.425  0.00  0.00    -0.270 OA
BRANCH  14  16
ATOM     16  C   LIG    1      -23.064  76.737  14.489  0.00  0.00    +0.056 A 
ATOM     17  C   LIG    1      -24.235  76.360  13.839  0.00  0.00    +0.054 A 
ATOM     18 CL   LIG    1      -25.198  77.441  12.911  0.00  0.00    -0.083 Cl
ATOM     19  C   LIG    1      -24.691  75.046  13.952  0.00  0.00    +0.041 A 
ATOM     20  C   LIG    1      -24.004  74.102  14.729  0.00  0.00    +0.052 A 
ATOM     21 CL   LIG    1      -24.569  72.474  14.562  0.00  0.00    -0.083 Cl
ATOM     22  C   LIG    1      -22.885  74.468  15.502  0.00  0.00    +0.022 A 
ATOM     23  C   LIG    1      -22.417  75.797  15.324  0.00  0.00    +0.026 A 
BRANCH  22  24
ATOM     24  C   LIG    1      -22.174  73.573  16.456  0.00  0.00    +0.107 A 
ATOM     25  C   LIG    1      -22.461  73.478  17.821  0.00  0.00    +0.149 A 
ATOM     26  F   LIG    1      -23.358  74.280  18.413  0.00  0.00    -0.203 F 
ATOM     27  C   LIG    1      -21.768  72.578  18.624  0.00  0.00    +0.042 A 
ATOM     28  C   LIG    1      -20.733  71.839  18.073  0.00  0.00    +0.023 A 
ATOM     29  C   LIG    1      -20.439  72.037  16.735  0.00  0.00    +0.111 A 
ATOM     30  N   LIG    1      -21.138  72.865  15.917  0.00  0.00    -0.252 NA
ENDBRANCH  22  24
ENDBRANCH  14  16
ENDBRANCH   4  12
BRANCH   1  32
ATOM     31  N   LIG    1      -22.343  84.728  14.694  0.00  0.00    -0.241 NA
ATOM     32  C   LIG    1      -22.477  83.981  15.726  0.00  0.00    +0.233 C 
BRANCH  31  34
ATOM     33  C   LIG    1      -21.565  87.037  15.121  0.00  0.00    +0.167 C 
ATOM     34  C   LIG    1      -22.726  86.136  14.698  0.00  0.00    +0.165 C 
ATOM     35  C   LIG    1      -23.026  86.585  13.265  0.00  0.00    +0.189 C 
ATOM     36  O   LIG    1      -22.277  87.784  13.026  0.00  0.00    -0.375 OA
ATOM     37  C   LIG    1      -21.089  87.668  13.822  0.00  0.00    +0.193 C 
BRANCH  33  38
ATOM     38  O   LIG    1      -22.070  88.035  16.018  0.00  0.00    -0.387 OA
ATOM     39  H   LIG    1      -22.996  87.794  16.219  0.00  0.00    +0.210 HD
ENDBRANCH  33  38
ENDBRANCH  31  34
BRANCH  32  40
ATOM     40  O   LIG    1      -22.942  84.391  16.927  0.00  0.00    -0.491 OA
ATOM     41  H   LIG    1      -22.674  83.805  17.649  0.00  0.00    +0.294 HD
ENDBRANCH  32  40
ENDBRANCH   1  32
TORSDOF 8
ENDMDL
MODEL 2
REMARK VINA RESULT:      -6.7      2.398      3.973
REMARK  Name = pdb/CHEMBL3966108.pdb
REMARK                            x       y       z     vdW  Elec       q    Type
REMARK                         _______ _______ _______ _____ _____    ______ ____
ROOT
ATOM      1  C   LIG    1      -22.768  82.900  15.440  0.00  0.00    +0.131 C 
ATOM      2  N   LIG    1      -23.658  82.337  14.605  0.00  0.00    -0.141 NA
ATOM      3  N   LIG    1      -23.634  81.019  14.909  0.00  0.00    -0.201 N 
ATOM      4  C   LIG    1      -22.534  80.693  15.706  0.00  0.00    +0.185 C 
ATOM      5  C   LIG    1      -22.053  81.905  16.150  0.00  0.00    +0.056 C 
ENDROOT
BRANCH   3   6
ATOM      6  C   LIG    1      -24.646  80.144  14.428  0.00  0.00    +0.052 A 
ATOM      7  C   LIG    1      -25.032  80.197  13.082  0.00  0.00    +0.025 A 
ATOM      8  C   LIG    1      -26.024  79.334  12.608  0.00  0.00    +0.002 A 
ATOM      9  C   LIG    1      -26.659  78.449  13.479  0.00  0.00    +0.000 A 
ATOM     10  C   LIG    1      -26.302  78.419  14.825  0.00  0.00    +0.002 A 
ATOM     11  C   LIG    1      -25.298  79.264  15.302  0.00  0.00    +0.025 A 
ENDBRANCH   3   6
BRANCH   4  12
ATOM     12  N   LIG    1      -21.999  79.415  15.948  0.00  0.00    -0.282 N 
ATOM     13  H   LIG    1      -22.173  79.006  16.861  0.00  0.00    +0.152 HD
ATOM     14  C   LIG    1      -21.318  78.632  14.943  0.00  0.00    +0.247 C 
ATOM     15  O   LIG    1      -21.158  79.066  13.818  0.00  0.00    -0.270 OA
BRANCH  14  16
ATOM     16  C   LIG    1      -20.856  77.262  15.276  0.00  0.00    +0.056 A 
ATOM     17  C   LIG    1      -19.525  76.915  15.483  0.00  0.00    +0.054 A 
ATOM     18 CL   LIG    1      -18.217  78.020  15.321  0.00  0.00    -0.083 Cl
ATOM     19  C   LIG    1      -19.202  75.597  15.814  0.00  0.00    +0.041 A 
ATOM     20  C   LIG    1      -20.192  74.611  15.919  0.00  0.00    +0.052 A 
ATOM     21 CL   LIG    1      -19.648  73.102  16.573  0.00  0.00    -0.083 Cl
ATOM     22  C   LIG    1      -21.536  74.887  15.599  0.00  0.00    +0.022 A 
ATOM     23  C   LIG    1      -21.838  76.245  15.317  0.00  0.00    +0.026 A 
BRANCH  22  24
ATOM     24  C   LIG    1      -22.630  73.878  15.552  0.00  0.00    +0.107 A 
ATOM     25  C   LIG    1      -23.358  73.444  16.664  0.00  0.00    +0.149 A 
ATOM     26  F   LIG    1      -23.055  73.840  17.908  0.00  0.00    -0.203 F 
ATOM     27  C   LIG    1      -24.393  72.526  16.512  0.00  0.00    +0.042 A 
ATOM     28  C   LIG    1      -24.636  71.984  15.259  0.00  0.00    +0.023 A 
ATOM     29  C   LIG    1      -23.827  72.390  14.211  0.00  0.00    +0.111 A 
ATOM     30  N   LIG    1      -22.850  73.327  14.323  0.00  0.00    -0.252 NA
ENDBRANCH  22  24
ENDBRANCH  14  16
ENDBRANCH   4  12
BRANCH   1  32
ATOM     31  N   LIG    1      -22.076  85.018  14.568  0.00  0.00    -0.241 NA
ATOM     32  C   LIG    1      -22.550  84.345  15.549  0.00  0.00    +0.233 C 
BRANCH  31  34
ATOM     33  C   LIG    1      -20.444  86.842  14.218  0.00  0.00    +0.167 C 
ATOM     34  C   LIG    1      -21.861  86.459  14.645  0.00  0.00    +0.165 C 
ATOM     35  C   LIG    1      -22.751  87.161  13.615  0.00  0.00    +0.189 C 
ATOM     36  O   LIG    1      -21.913  88.049  12.860  0.00  0.00    -0.375 OA
ATOM     37  C   LIG    1      -20.619  87.430  12.827  0.00  0.00    +0.193 C 
BRANCH  33  38
ATOM     38  O   LIG    1      -19.948  87.832  15.131  0.00  0.00    -0.387 OA
ATOM     39  H   LIG    1      -18.972  87.779  15.103  0.00  0.00    +0.210 HD
ENDBRANCH  33  38
ENDBRANCH  31  34
BRANCH  32  40
ATOM     40  O   LIG    1      -22.869  84.855  16.759  0.00  0.00    -0.491 OA
ATOM     41  H   LIG    1      -23.277  85.731  16.697  0.00  0.00    +0.294 HD
ENDBRANCH  32  40
ENDBRANCH   1  32
TORSDOF 8
ENDMDL
MODEL 3
REMARK VINA RESULT:      -6.4     19.318     21.716
REMARK  Name = pdb/CHEMBL3966108.pdb
REMARK                            x       y       z     vdW  Elec       q    Type
REMARK                         _______ _______ _______ _____ _____    ______ ____
ROOT
ATOM      1  C   LIG    1      -37.061  75.756  26.057  0.00  0.00    +0.131 C 
ATOM      2  N   LIG    1      -37.602  74.526  26.027  0.00  0.00    -0.141 NA
ATOM      3  N   LIG    1      -38.546  74.584  25.059  0.00  0.00    -0.201 N 
ATOM      4  C   LIG    1      -38.821  75.902  24.686  0.00  0.00    +0.185 C 
ATOM      5  C   LIG    1      -37.791  76.641  25.226  0.00  0.00    +0.056 C 
ENDROOT
BRANCH   3   6
ATOM      6  C   LIG    1      -39.136  73.397  24.546  0.00  0.00    +0.052 A 
ATOM      7  C   LIG    1      -38.429  72.188  24.599  0.00  0.00    +0.025 A 
ATOM      8  C   LIG    1      -39.011  71.020  24.097  0.00  0.00    +0.002 A 
ATOM      9  C   LIG    1      -40.274  71.062  23.507  0.00  0.00    +0.000 A 
ATOM     10  C   LIG    1      -40.962  72.269  23.420  0.00  0.00    +0.002 A 
ATOM     11  C   LIG    1      -40.398  73.437  23.937  0.00  0.00    +0.025 A 
ENDBRANCH   3   6
BRANCH   4  12
ATOM     12  N   LIG    1      -39.936  76.377  23.972  0.00  0.00    -0.282 N 
ATOM     13  H   LIG    1      -39.867  76.387  22.960  0.00  0.00    +0.152 HD
ATOM     14  C   LIG    1      -41.186  76.741  24.598  0.00  0.00    +0.247 C 
ATOM     15  O   LIG    1      -41.324  76.670  25.804  0.00  0.00    -0.270 OA
BRANCH  14  16
ATOM     16  C   LIG    1      -42.331  77.159  23.750  0.00  0.00    +0.056 A 
ATOM     17  C   LIG    1      -42.844  78.452  23.711  0.00  0.00    +0.054 A 
ATOM     18 CL   LIG    1      -42.258  79.737  24.691  0.00  0.00    -0.083 Cl
ATOM     19  C   LIG    1      -43.911  78.742  22.858  0.00  0.00    +0.041 A 
ATOM     20  C   LIG    1      -44.492  77.749  22.057  0.00  0.00    +0.052 A 
ATOM     21 CL   LIG    1      -45.632  78.332  20.891  0.00  0.00    -0.083 Cl
ATOM     22  C   LIG    1      -44.087  76.403  22.153  0.00  0.00    +0.022 A 
ATOM     23  C   LIG    1      -42.968  76.151  22.989  0.00  0.00    +0.026 A 
BRANCH  22  24
ATOM     24  C   LIG    1      -44.732  75.263  21.445  0.00  0.00    +0.107 A 
ATOM     25  C   LIG    1      -44.626  75.019  20.072  0.00  0.00    +0.149 A 
ATOM     26  F   LIG    1      -44.001  75.871  19.248  0.00  0.00    -0.203 F 
ATOM     27  C   LIG    1      -45.231  73.901  19.508  0.00  0.00    +0.042 A 
ATOM     28  C   LIG    1      -46.009  73.078  20.309  0.00  0.00    +0.023 A 
ATOM     29  C   LIG    1      -46.145  73.417  21.644  0.00  0.00    +0.111 A 
ATOM     30  N   LIG    1      -45.518  74.470  22.229  0.00  0.00    -0.252 NA
ENDBRANCH  22  24
ENDBRANCH  14  16
ENDBRANCH   4  12
BRANCH   1  32
ATOM     31  N   LIG    1      -35.490  77.330  26.938  0.00  0.00    -0.241 NA
ATOM     32  C   LIG    1      -35.906  76.120  26.881  0.00  0.00    +0.233 C 
BRANCH  31  34
ATOM     33  C   LIG    1      -33.023  77.462  27.048  0.00  0.00    +0.167 C 
ATOM     34  C   LIG    1      -34.350  77.722  27.761  0.00  0.00    +0.165 C 
ATOM     35  C   LIG    1      -34.363  79.241  27.956  0.00  0.00    +0.189 C 
ATOM     36  O   LIG    1      -33.057  79.727  27.617  0.00  0.00    -0.375 OA
ATOM     37  C   LIG    1      -32.561  78.841  26.603  0.00  0.00    +0.193 C 
BRANCH  33  38
ATOM     38  O   LIG    1      -32.104  76.897  27.993  0.00  0.00    -0.387 OA
ATOM     39  H   LIG    1      -32.551  76.906  28.863  0.00  0.00    +0.210 HD
ENDBRANCH  33  38
ENDBRANCH  31  34
BRANCH  32  40
ATOM     40  O   LIG    1      -35.343  75.073  27.524  0.00  0.00    -0.491 OA
ATOM     41  H   LIG    1      -34.635  74.659  27.011  0.00  0.00    +0.294 HD
ENDBRANCH  32  40
ENDBRANCH   1  32
TORSDOF 8
ENDMDL
MODEL 4
REMARK VINA RESULT:      -6.3     17.358     20.363
REMARK  Name = pdb/CHEMBL3966108.pdb
REMARK                            x       y       z     vdW  Elec       q    Type
REMARK                         _______ _______ _______ _____ _____    ______ ____
ROOT
ATOM      1  C   LIG    1      -31.738  74.148  29.754  0.00  0.00    +0.131 C 
ATOM      2  N   LIG    1      -31.531  75.399  29.310  0.00  0.00    -0.141 NA
ATOM      3  N   LIG    1      -32.669  75.728  28.655  0.00  0.00    -0.201 N 
ATOM      4  C   LIG    1      -33.469  74.608  28.417  0.00  0.00    +0.185 C 
ATOM      5  C   LIG    1      -32.942  73.624  29.223  0.00  0.00    +0.056 C 
ENDROOT
BRANCH   3   6
ATOM      6  C   LIG    1      -32.934  77.076  28.289  0.00  0.00    +0.052 A 
ATOM      7  C   LIG    1      -33.897  77.812  28.992  0.00  0.00    +0.025 A 
ATOM      8  C   LIG    1      -34.156  79.139  28.633  0.00  0.00    +0.002 A 
ATOM      9  C   LIG    1      -33.488  79.718  27.555  0.00  0.00    +0.000 A 
ATOM     10  C   LIG    1      -32.556  78.976  26.832  0.00  0.00    +0.002 A 
ATOM     11  C   LIG    1      -32.277  77.657  27.196  0.00  0.00    +0.025 A 
ENDBRANCH   3   6
BRANCH   4  12
ATOM     12  N   LIG    1      -34.536  74.493  27.507  0.00  0.00    -0.282 N 
ATOM     13  H   LIG    1      -34.298  74.300  26.539  0.00  0.00    +0.152 HD
ATOM     14  C   LIG    1      -35.925  74.532  27.899  0.00  0.00    +0.247 C 
ATOM     15  O   LIG    1      -36.240  74.689  29.064  0.00  0.00    -0.270 OA
BRANCH  14  16
ATOM     16  C   LIG    1      -36.978  74.326  26.873  0.00  0.00    +0.056 A 
ATOM     17  C   LIG    1      -37.265  73.099  26.283  0.00  0.00    +0.054 A 
ATOM     18 CL   LIG    1      -36.394  71.655  26.619  0.00  0.00    -0.083 Cl
ATOM     19  C   LIG    1      -38.294  73.013  25.343  0.00  0.00    +0.041 A 
ATOM     20  C   LIG    1      -39.028  74.145  24.964  0.00  0.00    +0.052 A 
ATOM     21 CL   LIG    1      -40.415  73.814  23.980  0.00  0.00    -0.083 Cl
ATOM     22  C   LIG    1      -38.694  75.427  25.442  0.00  0.00    +0.022 A 
ATOM     23  C   LIG    1      -37.679  75.473  26.433  0.00  0.00    +0.026 A 
BRANCH  22  24
ATOM     24  C   LIG    1      -39.327  76.699  24.995  0.00  0.00    +0.107 A 
ATOM     25  C   LIG    1      -38.820  77.529  23.991  0.00  0.00    +0.149 A 
ATOM     26  F   LIG    1      -37.640  77.289  23.404  0.00  0.00    -0.203 F 
ATOM     27  C   LIG    1      -39.509  78.677  23.614  0.00  0.00    +0.042 A 
ATOM     28  C   LIG    1      -40.658  79.032  24.304  0.00  0.00    +0.023 A 
ATOM     29  C   LIG    1      -41.066  78.216  25.345  0.00  0.00    +0.111 A 
ATOM     30  N   LIG    1      -40.444  77.060  25.693  0.00  0.00    -0.252 NA
ENDBRANCH  22  24
ENDBRANCH  14  16
ENDBRANCH   4  12
BRANCH   1  32
ATOM     31  N   LIG    1      -30.403  72.249  30.332  0.00  0.00    -0.241 NA
ATOM     32  C   LIG    1      -30.807  73.427  30.627  0.00  0.00    +0.233 C 
BRANCH  31  34
ATOM     33  C   LIG    1      -30.194  70.599  32.163  0.00  0.00    +0.167 C 
ATOM     34  C   LIG    1      -29.467  71.514  31.177  0.00  0.00    +0.165 C 
ATOM     35  C   LIG    1      -28.658  70.541  30.313  0.00  0.00    +0.189 C 
ATOM     36  O   LIG    1      -28.736  69.251  30.935  0.00  0.00    -0.375 OA
ATOM     37  C   LIG    1      -30.015  69.206  31.583  0.00  0.00    +0.193 C 
BRANCH  33  38
ATOM     38  O   LIG    1      -29.550  70.706  33.440  0.00  0.00    -0.387 OA
ATOM     39  H   LIG    1      -29.974  71.452  33.910  0.00  0.00    +0.210 HD
ENDBRANCH  33  38
ENDBRANCH  31  34
BRANCH  32  40
ATOM     40  O   LIG    1      -30.462  74.112  31.740  0.00  0.00    -0.491 OA
ATOM     41  H   LIG    1      -31.117  74.024  32.448  0.00  0.00    +0.294 HD
ENDBRANCH  32  40
ENDBRANCH   1  32
TORSDOF 8
ENDMDL
MODEL 5
REMARK VINA RESULT:      -6.3      4.426      6.398
REMARK  Name = pdb/CHEMBL3966108.pdb
REMARK                            x       y       z     vdW  Elec       q    Type
REMARK                         _______ _______ _______ _____ _____    ______ ____
ROOT
ATOM      1  C   LIG    1      -22.748  82.575  14.624  0.00  0.00    +0.131 C 
ATOM      2  N   LIG    1      -22.005  81.537  15.043  0.00  0.00    -0.141 NA
ATOM      3  N   LIG    1      -22.456  80.477  14.333  0.00  0.00    -0.201 N 
ATOM      4  C   LIG    1      -23.668  80.760  13.698  0.00  0.00    +0.185 C 
ATOM      5  C   LIG    1      -23.792  82.130  13.776  0.00  0.00    +0.056 C 
ENDROOT
BRANCH   3   6
ATOM      6  C   LIG    1      -21.723  79.260  14.299  0.00  0.00    +0.052 A 
ATOM      7  C   LIG    1      -20.649  79.118  13.410  0.00  0.00    +0.025 A 
ATOM      8  C   LIG    1      -19.926  77.921  13.379  0.00  0.00    +0.002 A 
ATOM      9  C   LIG    1      -20.297  76.855  14.199  0.00  0.00    +0.000 A 
ATOM     10  C   LIG    1      -21.387  76.982  15.056  0.00  0.00    +0.002 A 
ATOM     11  C   LIG    1      -22.101  78.180  15.109  0.00  0.00    +0.025 A 
ENDBRANCH   3   6
BRANCH   4  12
ATOM     12  N   LIG    1      -24.587  79.843  13.155  0.00  0.00    -0.282 N 
ATOM     13  H   LIG    1      -24.408  79.512  12.213  0.00  0.00    +0.152 HD
ATOM     14  C   LIG    1      -25.690  79.285  13.902  0.00  0.00    +0.247 C 
ATOM     15  O   LIG    1      -25.887  79.608  15.058  0.00  0.00    -0.270 OA
BRANCH  14  16
ATOM     16  C   LIG    1      -26.561  78.266  13.264  0.00  0.00    +0.056 A 
ATOM     17  C   LIG    1      -26.292  76.901  13.259  0.00  0.00    +0.054 A 
ATOM     18 CL   LIG    1      -24.874  76.208  13.943  0.00  0.00    -0.083 Cl
ATOM     19  C   LIG    1      -27.192  76.026  12.647  0.00  0.00    +0.041 A 
ATOM     20  C   LIG    1      -28.351  76.499  12.017  0.00  0.00    +0.052 A 
ATOM     21 CL   LIG    1      -29.467  75.268  11.530  0.00  0.00    -0.083 Cl
ATOM     22  C   LIG    1      -28.603  77.880  11.890  0.00  0.00    +0.022 A 
ATOM     23  C   LIG    1      -27.697  78.738  12.567  0.00  0.00    +0.026 A 
BRANCH  22  24
ATOM     24  C   LIG    1      -29.732  78.477  11.126  0.00  0.00    +0.107 A 
ATOM     25  C   LIG    1      -29.803  78.538   9.731  0.00  0.00    +0.149 A 
ATOM     26  F   LIG    1      -28.786  78.142   8.953  0.00  0.00    -0.203 F 
ATOM     27  C   LIG    1      -30.922  79.079   9.107  0.00  0.00    +0.042 A 
ATOM     28  C   LIG    1      -31.928  79.632   9.885  0.00  0.00    +0.023 A 
ATOM     29  C   LIG    1      -31.764  79.617  11.259  0.00  0.00    +0.111 A 
ATOM     30  N   LIG    1      -30.709  79.044  11.894  0.00  0.00    -0.252 NA
ENDBRANCH  22  24
ENDBRANCH  14  16
ENDBRANCH   4  12
BRANCH   1  32
ATOM     31  N   LIG    1      -22.171  84.857  14.194  0.00  0.00    -0.241 NA
ATOM     32  C   LIG    1      -22.523  83.962  15.039  0.00  0.00    +0.233 C 
BRANCH  31  34
ATOM     33  C   LIG    1      -20.523  86.699  14.277  0.00  0.00    +0.167 C 
ATOM     34  C   LIG    1      -21.951  86.247  14.579  0.00  0.00    +0.165 C 
ATOM     35  C   LIG    1      -22.811  87.159  13.699  0.00  0.00    +0.189 C 
ATOM     36  O   LIG    1      -21.951  88.178  13.169  0.00  0.00    -0.375 OA
ATOM     37  C   LIG    1      -20.659  87.568  13.037  0.00  0.00    +0.193 C 
BRANCH  33  38
ATOM     38  O   LIG    1      -20.046  87.469  15.389  0.00  0.00    -0.387 OA
ATOM     39  H   LIG    1      -19.485  86.875  15.925  0.00  0.00    +0.210 HD
ENDBRANCH  33  38
ENDBRANCH  31  34
BRANCH  32  40
ATOM     40  O   LIG    1      -22.699  84.170  16.364  0.00  0.00    -0.491 OA
ATOM     41  H   LIG    1      -23.048  83.390  16.819  0.00  0.00    +0.294 HD
ENDBRANCH  32  40
ENDBRANCH   1  32
TORSDOF 8
ENDMDL
MODEL 6
REMARK VINA RESULT:      -6.3     18.824     21.815
REMARK  Name = pdb/CHEMBL3966108.pdb
REMARK                            x       y       z     vdW  Elec       q    Type
REMARK                         _______ _______ _______ _____ _____    ______ ____
ROOT
ATOM      1  C   LIG    1      -40.410  73.249  23.954  0.00  0.00    +0.131 C 
ATOM      2  N   LIG    1      -40.877  74.479  24.233  0.00  0.00    -0.141 NA
ATOM      3  N   LIG    1      -39.784  75.193  24.587  0.00  0.00    -0.201 N 
ATOM      4  C   LIG    1      -38.683  74.367  24.829  0.00  0.00    +0.185 C 
ATOM      5  C   LIG    1      -39.042  73.145  24.305  0.00  0.00    +0.056 C 
ENDROOT
BRANCH   3   6
ATOM      6  C   LIG    1      -39.840  76.610  24.681  0.00  0.00    +0.052 A 
ATOM      7  C   LIG    1      -39.725  77.391  23.522  0.00  0.00    +0.025 A 
ATOM      8  C   LIG    1      -39.784  78.785  23.614  0.00  0.00    +0.002 A 
ATOM      9  C   LIG    1      -39.916  79.401  24.858  0.00  0.00    +0.000 A 
ATOM     10  C   LIG    1      -39.994  78.629  26.014  0.00  0.00    +0.002 A 
ATOM     11  C   LIG    1      -39.956  77.236  25.930  0.00  0.00    +0.025 A 
ENDBRANCH   3   6
BRANCH   4  12
ATOM     12  N   LIG    1      -37.498  74.695  25.512  0.00  0.00    -0.282 N 
ATOM     13  H   LIG    1      -36.722  75.035  24.954  0.00  0.00    +0.152 HD
ATOM     14  C   LIG    1      -37.375  74.669  26.951  0.00  0.00    +0.247 C 
ATOM     15  O   LIG    1      -38.312  74.335  27.651  0.00  0.00    -0.270 OA
BRANCH  14  16
ATOM     16  C   LIG    1      -36.104  75.106  27.582  0.00  0.00    +0.056 A 
ATOM     17  C   LIG    1      -35.113  74.236  28.026  0.00  0.00    +0.054 A 
ATOM     18 CL   LIG    1      -35.251  72.524  27.961  0.00  0.00    -0.083 Cl
ATOM     19  C   LIG    1      -33.944  74.756  28.585  0.00  0.00    +0.041 A 
ATOM     20  C   LIG    1      -33.759  76.138  28.730  0.00  0.00    +0.052 A 
ATOM     21 CL   LIG    1      -32.164  76.611  29.212  0.00  0.00    -0.083 Cl
ATOM     22  C   LIG    1      -34.784  77.050  28.408  0.00  0.00    +0.022 A 
ATOM     23  C   LIG    1      -35.937  76.494  27.794  0.00  0.00    +0.026 A 
BRANCH  22  24
ATOM     24  C   LIG    1      -34.730  78.518  28.650  0.00  0.00    +0.107 A 
ATOM     25  C   LIG    1      -34.816  79.118  29.910  0.00  0.00    +0.149 A 
ATOM     26  F   LIG    1      -35.059  78.406  31.019  0.00  0.00    -0.203 F 
ATOM     27  C   LIG    1      -34.712  80.500  30.039  0.00  0.00    +0.042 A 
ATOM     28  C   LIG    1      -34.608  81.279  28.897  0.00  0.00    +0.023 A 
ATOM     29  C   LIG    1      -34.613  80.633  27.672  0.00  0.00    +0.111 A 
ATOM     30  N   LIG    1      -34.654  79.284  27.523  0.00  0.00    -0.252 NA
ENDBRANCH  22  24
ENDBRANCH  14  16
ENDBRANCH   4  12
BRANCH   1  32
ATOM     31  N   LIG    1      -40.725  71.027  23.127  0.00  0.00    -0.241 NA
ATOM     32  C   LIG    1      -41.234  72.168  23.408  0.00  0.00    +0.233 C 
BRANCH  31  34
ATOM     33  C   LIG    1      -41.264  69.711  21.103  0.00  0.00    +0.167 C 
ATOM     34  C   LIG    1      -41.525  69.929  22.593  0.00  0.00    +0.165 C 
ATOM     35  C   LIG    1      -41.074  68.613  23.235  0.00  0.00    +0.189 C 
ATOM     36  O   LIG    1      -40.835  67.679  22.173  0.00  0.00    -0.375 OA
ATOM     37  C   LIG    1      -40.396  68.463  21.055  0.00  0.00    +0.193 C 
BRANCH  33  38
ATOM     38  O   LIG    1      -42.521  69.483  20.451  0.00  0.00    -0.387 OA
ATOM     39  H   LIG    1      -42.749  68.544  20.596  0.00  0.00    +0.210 HD
ENDBRANCH  33  38
ENDBRANCH  31  34
BRANCH  32  40
ATOM     40  O   LIG    1      -42.529  72.509  23.221  0.00  0.00    -0.491 OA
ATOM     41  H   LIG    1      -43.031  71.823  22.759  0.00  0.00    +0.294 HD
ENDBRANCH  32  40
ENDBRANCH   1  32
TORSDOF 8
ENDMDL
MODEL 7
REMARK VINA RESULT:      -6.3      4.176      6.778
REMARK  Name = pdb/CHEMBL3966108.pdb
REMARK                            x       y       z     vdW  Elec       q    Type
REMARK                         _______ _______ _______ _____ _____    ______ ____
ROOT
ATOM      1  C   LIG    1      -26.405  77.999  13.703  0.00  0.00    +0.131 C 
ATOM      2  N   LIG    1      -26.126  79.189  14.261  0.00  0.00    -0.141 NA
ATOM      3  N   LIG    1      -24.838  79.092  14.662  0.00  0.00    -0.201 N 
ATOM      4  C   LIG    1      -24.390  77.768  14.644  0.00  0.00    +0.185 C 
ATOM      5  C   LIG    1      -25.341  77.088  13.916  0.00  0.00    +0.056 C 
ENDROOT
BRANCH   3   6
ATOM      6  C   LIG    1      -24.105  80.249  15.044  0.00  0.00    +0.052 A 
ATOM      7  C   LIG    1      -24.171  81.407  14.256  0.00  0.00    +0.025 A 
ATOM      8  C   LIG    1      -23.453  82.546  14.633  0.00  0.00    +0.002 A 
ATOM      9  C   LIG    1      -22.640  82.520  15.767  0.00  0.00    +0.000 A 
ATOM     10  C   LIG    1      -22.545  81.359  16.530  0.00  0.00    +0.002 A 
ATOM     11  C   LIG    1      -23.275  80.224  16.173  0.00  0.00    +0.025 A 
ENDBRANCH   3   6
BRANCH   4  12
ATOM     12  N   LIG    1      -23.254  77.238  15.283  0.00  0.00    -0.282 N 
ATOM     13  H   LIG    1      -23.375  76.897  16.230  0.00  0.00    +0.152 HD
ATOM     14  C   LIG    1      -21.979  77.065  14.626  0.00  0.00    +0.247 C 
ATOM     15  O   LIG    1      -21.825  77.398  13.466  0.00  0.00    -0.270 OA
BRANCH  14  16
ATOM     16  C   LIG    1      -20.861  76.425  15.363  0.00  0.00    +0.056 A 
ATOM     17  C   LIG    1      -19.635  77.036  15.606  0.00  0.00    +0.054 A 
ATOM     18 CL   LIG    1      -19.221  78.602  15.030  0.00  0.00    -0.083 Cl
ATOM     19  C   LIG    1      -18.658  76.350  16.332  0.00  0.00    +0.041 A 
ATOM     20  C   LIG    1      -18.881  75.048  16.800  0.00  0.00    +0.052 A 
ATOM     21 CL   LIG    1      -17.668  74.448  17.881  0.00  0.00    -0.083 Cl
ATOM     22  C   LIG    1      -20.057  74.345  16.474  0.00  0.00    +0.022 A 
ATOM     23  C   LIG    1      -21.049  75.087  15.781  0.00  0.00    +0.026 A 
BRANCH  22  24
ATOM     24  C   LIG    1      -20.324  72.920  16.811  0.00  0.00    +0.107 A 
ATOM     25  C   LIG    1      -21.229  72.490  17.786  0.00  0.00    +0.149 A 
ATOM     26  F   LIG    1      -21.872  73.354  18.585  0.00  0.00    -0.203 F 
ATOM     27  C   LIG    1      -21.441  71.132  17.999  0.00  0.00    +0.042 A 
ATOM     28  C   LIG    1      -20.683  70.211  17.292  0.00  0.00    +0.023 A 
ATOM     29  C   LIG    1      -19.743  70.697  16.400  0.00  0.00    +0.111 A 
ATOM     30  N   LIG    1      -19.558  72.016  16.132  0.00  0.00    -0.252 NA
ENDBRANCH  22  24
ENDBRANCH  14  16
ENDBRANCH   4  12
BRANCH   1  32
ATOM     31  N   LIG    1      -27.891  78.116  11.832  0.00  0.00    -0.241 NA
ATOM     32  C   LIG    1      -27.663  77.692  13.018  0.00  0.00    +0.233 C 
BRANCH  31  34
ATOM     33  C   LIG    1      -30.201  78.874  11.382  0.00  0.00    +0.167 C 
ATOM     34  C   LIG    1      -29.130  77.815  11.122  0.00  0.00    +0.165 C 
ATOM     35  C   LIG    1      -28.887  77.910   9.613  0.00  0.00    +0.189 C 
ATOM     36  O   LIG    1      -29.910  78.754   9.067  0.00  0.00    -0.375 OA
ATOM     37  C   LIG    1      -30.234  79.694  10.102  0.00  0.00    +0.193 C 
BRANCH  33  38
ATOM     38  O   LIG    1      -31.454  78.209  11.593  0.00  0.00    -0.387 OA
ATOM     39  H   LIG    1      -31.707  77.803  10.740  0.00  0.00    +0.210 HD
ENDBRANCH  33  38
ENDBRANCH  31  34
BRANCH  32  40
ATOM     40  O   LIG    1      -28.525  76.964  13.762  0.00  0.00    -0.491 OA
ATOM     41  H   LIG    1      -29.444  77.066  13.473  0.00  0.00    +0.294 HD
ENDBRANCH  32  40
ENDBRANCH   1  32
TORSDOF 8
ENDMDL
MODEL 8
REMARK VINA RESULT:      -6.2     17.783     19.124
REMARK  Name = pdb/CHEMBL3966108.pdb
REMARK                            x       y       z     vdW  Elec       q    Type
REMARK                         _______ _______ _______ _____ _____    ______ ____
ROOT
ATOM      1  C   LIG    1      -37.457  79.878  27.594  0.00  0.00    +0.131 C 
ATOM      2  N   LIG    1      -36.472  79.177  28.183  0.00  0.00    -0.141 NA
ATOM      3  N   LIG    1      -36.530  77.951  27.614  0.00  0.00    -0.201 N 
ATOM      4  C   LIG    1      -37.717  77.769  26.899  0.00  0.00    +0.185 C 
ATOM      5  C   LIG    1      -38.250  79.033  26.779  0.00  0.00    +0.056 C 
ENDROOT
BRANCH   3   6
ATOM      6  C   LIG    1      -35.467  77.022  27.779  0.00  0.00    +0.052 A 
ATOM      7  C   LIG    1      -34.155  77.400  27.465  0.00  0.00    +0.025 A 
ATOM      8  C   LIG    1      -33.109  76.487  27.630  0.00  0.00    +0.002 A 
ATOM      9  C   LIG    1      -33.373  75.189  28.067  0.00  0.00    +0.000 A 
ATOM     10  C   LIG    1      -34.681  74.800  28.345  0.00  0.00    +0.002 A 
ATOM     11  C   LIG    1      -35.729  75.711  28.202  0.00  0.00    +0.025 A 
ENDBRANCH   3   6
BRANCH   4  12
ATOM     12  N   LIG    1      -38.276  76.556  26.458  0.00  0.00    -0.282 N 
ATOM     13  H   LIG    1      -39.003  76.145  27.034  0.00  0.00    +0.152 HD
ATOM     14  C   LIG    1      -37.941  75.937  25.196  0.00  0.00    +0.247 C 
ATOM     15  O   LIG    1      -37.125  76.445  24.450  0.00  0.00    -0.270 OA
BRANCH  14  16
ATOM     16  C   LIG    1      -38.641  74.695  24.785  0.00  0.00    +0.056 A 
ATOM     17  C   LIG    1      -39.911  74.665  24.217  0.00  0.00    +0.054 A 
ATOM     18 CL   LIG    1      -40.874  76.067  23.966  0.00  0.00    -0.083 Cl
ATOM     19  C   LIG    1      -40.468  73.440  23.845  0.00  0.00    +0.041 A 
ATOM     20  C   LIG    1      -39.782  72.235  24.056  0.00  0.00    +0.052 A 
ATOM     21 CL   LIG    1      -40.509  70.847  23.319  0.00  0.00    -0.083 Cl
ATOM     22  C   LIG    1      -38.550  72.206  24.738  0.00  0.00    +0.022 A 
ATOM     23  C   LIG    1      -37.988  73.470  25.055  0.00  0.00    +0.026 A 
BRANCH  22  24
ATOM     24  C   LIG    1      -37.815  70.970  25.125  0.00  0.00    +0.107 A 
ATOM     25  C   LIG    1      -37.234  70.076  24.221  0.00  0.00    +0.149 A 
ATOM     26  F   LIG    1      -37.381  70.214  22.895  0.00  0.00    -0.203 F 
ATOM     27  C   LIG    1      -36.529  68.969  24.682  0.00  0.00    +0.042 A 
ATOM     28  C   LIG    1      -36.483  68.717  26.044  0.00  0.00    +0.023 A 
ATOM     29  C   LIG    1      -37.149  69.591  26.886  0.00  0.00    +0.111 A 
ATOM     30  N   LIG    1      -37.794  70.710  26.465  0.00  0.00    -0.252 NA
ENDBRANCH  22  24
ENDBRANCH  14  16
ENDBRANCH   4  12
BRANCH   1  32
ATOM     31  N   LIG    1      -37.085  82.193  27.117  0.00  0.00    -0.241 NA
ATOM     32  C   LIG    1      -37.688  81.307  27.818  0.00  0.00    +0.233 C 
BRANCH  31  34
ATOM     33  C   LIG    1      -35.995  84.407  27.277  0.00  0.00    +0.167 C 
ATOM     34  C   LIG    1      -37.306  83.622  27.311  0.00  0.00    +0.165 C 
ATOM     35  C   LIG    1      -38.092  84.180  26.121  0.00  0.00    +0.189 C 
ATOM     36  O   LIG    1      -37.385  85.334  25.645  0.00  0.00    -0.375 OA
ATOM     37  C   LIG    1      -35.999  85.082  25.914  0.00  0.00    +0.193 C 
BRANCH  33  38
ATOM     38  O   LIG    1      -36.023  85.382  28.329  0.00  0.00    -0.387 OA
ATOM     39  H   LIG    1      -35.206  85.258  28.851  0.00  0.00    +0.210 HD
ENDBRANCH  33  38
ENDBRANCH  31  34
BRANCH  32  40
ATOM     40  O   LIG    1      -38.555  81.568  28.822  0.00  0.00    -0.491 OA
ATOM     41  H   LIG    1      -38.705  80.800  29.392  0.00  0.00    +0.294 HD
ENDBRANCH  32  40
ENDBRANCH   1  32
TORSDOF 8
ENDMDL
MODEL 9
REMARK VINA RESULT:      -6.2     18.191     20.314
REMARK  Name = pdb/CHEMBL3966108.pdb
REMARK                            x       y       z     vdW  Elec       q    Type
REMARK                         _______ _______ _______ _____ _____    ______ ____
ROOT
ATOM      1  C   LIG    1      -37.508  76.647  26.540  0.00  0.00    +0.131 C 
ATOM      2  N   LIG    1      -38.579  77.311  26.070  0.00  0.00    -0.141 NA
ATOM      3  N   LIG    1      -39.341  76.365  25.475  0.00  0.00    -0.201 N 
ATOM      4  C   LIG    1      -38.635  75.173  25.293  0.00  0.00    +0.185 C 
ATOM      5  C   LIG    1      -37.514  75.306  26.082  0.00  0.00    +0.056 C 
ENDROOT
BRANCH   3   6
ATOM      6  C   LIG    1      -40.686  76.640  25.108  0.00  0.00    +0.052 A 
ATOM      7  C   LIG    1      -41.709  76.505  26.056  0.00  0.00    +0.025 A 
ATOM      8  C   LIG    1      -43.032  76.778  25.696  0.00  0.00    +0.002 A 
ATOM      9  C   LIG    1      -43.342  77.145  24.387  0.00  0.00    +0.000 A 
ATOM     10  C   LIG    1      -42.331  77.245  23.433  0.00  0.00    +0.002 A 
ATOM     11  C   LIG    1      -41.005  76.993  23.789  0.00  0.00    +0.025 A 
ENDBRANCH   3   6
BRANCH   4  12
ATOM     12  N   LIG    1      -38.966  74.101  24.444  0.00  0.00    -0.282 N 
ATOM     13  H   LIG    1      -38.475  74.046  23.557  0.00  0.00    +0.152 HD
ATOM     14  C   LIG    1      -39.875  73.042  24.814  0.00  0.00    +0.247 C 
ATOM     15  O   LIG    1      -40.424  73.042  25.900  0.00  0.00    -0.270 OA
BRANCH  14  16
ATOM     16  C   LIG    1      -40.101  71.914  23.876  0.00  0.00    +0.056 A 
ATOM     17  C   LIG    1      -41.255  71.747  23.117  0.00  0.00    +0.054 A 
ATOM     18 CL   LIG    1      -42.612  72.800  23.207  0.00  0.00    -0.083 Cl
ATOM     19  C   LIG    1      -41.354  70.660  22.247  0.00  0.00    +0.041 A 
ATOM     20  C   LIG    1      -40.322  69.718  22.141  0.00  0.00    +0.052 A 
ATOM     21 CL   LIG    1      -40.506  68.581  20.847  0.00  0.00    -0.083 Cl
ATOM     22  C   LIG    1      -39.189  69.777  22.977  0.00  0.00    +0.022 A 
ATOM     23  C   LIG    1      -39.095  70.921  23.812  0.00  0.00    +0.026 A 
BRANCH  22  24
ATOM     24  C   LIG    1      -38.110  68.752  23.030  0.00  0.00    +0.107 A 
ATOM     25  C   LIG    1      -37.121  68.590  22.056  0.00  0.00    +0.149 A 
ATOM     26  F   LIG    1      -37.125  69.298  20.918  0.00  0.00    -0.203 F 
ATOM     27  C   LIG    1      -36.127  67.630  22.216  0.00  0.00    +0.042 A 
ATOM     28  C   LIG    1      -36.179  66.780  23.311  0.00  0.00    +0.023 A 
ATOM     29  C   LIG    1      -37.230  66.934  24.199  0.00  0.00    +0.111 A 
ATOM     30  N   LIG    1      -38.178  67.901  24.095  0.00  0.00    -0.252 NA
ENDBRANCH  22  24
ENDBRANCH  14  16
ENDBRANCH   4  12
BRANCH   1  32
ATOM     31  N   LIG    1      -35.232  77.187  27.039  0.00  0.00    -0.241 NA
ATOM     32  C   LIG    1      -36.467  77.258  27.369  0.00  0.00    +0.233 C 
BRANCH  31  34
ATOM     33  C   LIG    1      -32.788  77.362  27.372  0.00  0.00    +0.167 C 
ATOM     34  C   LIG    1      -34.176  77.798  27.840  0.00  0.00    +0.165 C 
ATOM     35  C   LIG    1      -34.176  79.312  27.610  0.00  0.00    +0.189 C 
ATOM     36  O   LIG    1      -32.830  79.696  27.293  0.00  0.00    -0.375 OA
ATOM     37  C   LIG    1      -32.251  78.570  26.619  0.00  0.00    +0.193 C 
BRANCH  33  38
ATOM     38  O   LIG    1      -31.986  77.084  28.528  0.00  0.00    -0.387 OA
ATOM     39  H   LIG    1      -31.925  77.917  29.037  0.00  0.00    +0.210 HD
ENDBRANCH  33  38
ENDBRANCH  31  34
BRANCH  32  40
ATOM     40  O   LIG    1      -36.940  77.858  28.485  0.00  0.00    -0.491 OA
ATOM     41  H   LIG    1      -37.809  77.521  28.747  0.00  0.00    +0.294 HD
ENDBRANCH  32  40
ENDBRANCH   1  32
TORSDOF 8
ENDMDL
