MODEL 1
REMARK VINA RESULT:      -6.4      0.000      0.000
REMARK  Name = pdb/CHEMBL3298164.pdb
REMARK                            x       y       z     vdW  Elec       q    Type
REMARK                         _______ _______ _______ _____ _____    ______ ____
ROOT
ATOM      1  C   LIG    1      -23.333  88.995  10.992  0.00  0.00    +0.080 A 
ATOM      2  C   LIG    1      -22.654  88.315  12.044  0.00  0.00    +0.027 A 
ATOM      3  C   LIG    1      -22.427  88.558  13.430  0.00  0.00    +0.045 A 
ATOM      4  C   LIG    1      -21.743  87.491  13.993  0.00  0.00    +0.128 A 
ATOM      5  N   LIG    1      -21.498  86.597  12.964  0.00  0.00    -0.331 N 
ATOM      6  C   LIG    1      -22.048  87.080  11.780  0.00  0.00    +0.053 A 
ATOM      7  C   LIG    1      -22.080  86.525  10.497  0.00  0.00    +0.046 A 
ATOM      8  C   LIG    1      -22.763  87.251   9.538  0.00  0.00    +0.113 A 
ATOM      9  N   LIG    1      -23.377  88.427   9.756  0.00  0.00    -0.254 NA
ENDROOT
BRANCH   1  12
ATOM     10  C   LIG    1      -26.018  91.547  11.899  0.00  0.00    +0.121 A 
ATOM     11  C   LIG    1      -25.309  90.347  11.751  0.00  0.00    +0.055 A 
ATOM     12  C   LIG    1      -24.053  90.275  11.143  0.00  0.00    +0.004 A 
ATOM     13  C   LIG    1      -23.490  91.490  10.722  0.00  0.00    +0.010 A 
ATOM     14  C   LIG    1      -24.169  92.706  10.874  0.00  0.00    +0.004 A 
ATOM     15  C   LIG    1      -25.445  92.732  11.444  0.00  0.00    +0.045 A 
BRANCH  10  16
ATOM     16  O   LIG    1      -27.273  91.620  12.460  0.00  0.00    -0.492 OA
BRANCH  16  18
ATOM     17  C   LIG    1      -27.852  92.899  14.448  0.00  0.00    +0.048 C 
ATOM     18  C   LIG    1      -27.606  92.922  12.956  0.00  0.00    +0.225 C 
ENDBRANCH  16  18
ENDBRANCH  10  16
ENDBRANCH   1  12
BRANCH   4  19
ATOM     19  C   LIG    1      -21.338  87.346  15.376  0.00  0.00    +0.353 C 
ATOM     20  O   LIG    1      -22.055  87.033  16.300  0.00  0.00    -0.243 OA
BRANCH  19  21
ATOM     21  O   LIG    1      -20.016  87.629  15.525  0.00  0.00    -0.476 OA
ATOM     22  H   LIG    1      -19.434  86.912  15.219  0.00  0.00    +0.295 HD
ENDBRANCH  19  21
ENDBRANCH   4  19
BRANCH   5  23
ATOM     23  C   LIG    1      -20.949  85.251  13.120  0.00  0.00    +0.163 C 
BRANCH  23  24
ATOM     24  C   LIG    1      -21.954  84.135  13.431  0.00  0.00    +0.250 C 
BRANCH  24  25
ATOM     25  O   LIG    1      -22.092  83.884  14.833  0.00  0.00    -0.490 OA
BRANCH  25  26
ATOM     26  C   LIG    1      -22.601  82.672  15.215  0.00  0.00    +0.121 A 
ATOM     27  C   LIG    1      -23.684  82.212  14.459  0.00  0.00    +0.047 A 
ATOM     28  C   LIG    1      -24.232  80.949  14.701  0.00  0.00    +0.023 A 
ATOM     29  C   LIG    1      -23.707  80.151  15.713  0.00  0.00    +0.041 A 
ATOM     30 CL   LIG    1      -24.355  78.586  16.008  0.00  0.00    -0.084 Cl
ATOM     31  C   LIG    1      -22.646  80.608  16.486  0.00  0.00    +0.023 A 
ATOM     32  C   LIG    1      -22.103  81.869  16.243  0.00  0.00    +0.047 A 
ENDBRANCH  25  26
ENDBRANCH  24  25
ENDBRANCH  23  24
ENDBRANCH   5  23
TORSDOF 9
ENDMDL
MODEL 2
REMARK VINA RESULT:      -6.2     20.134     22.656
REMARK  Name = pdb/CHEMBL3298164.pdb
REMARK                            x       y       z     vdW  Elec       q    Type
REMARK                         _______ _______ _______ _____ _____    ______ ____
ROOT
ATOM      1  C   LIG    1      -22.561  78.305  35.035  0.00  0.00    +0.080 A 
ATOM      2  C   LIG    1      -23.215  78.007  33.805  0.00  0.00    +0.027 A 
ATOM      3  C   LIG    1      -23.705  78.768  32.704  0.00  0.00    +0.045 A 
ATOM      4  C   LIG    1      -24.197  77.921  31.722  0.00  0.00    +0.128 A 
ATOM      5  N   LIG    1      -24.062  76.633  32.214  0.00  0.00    -0.331 N 
ATOM      6  C   LIG    1      -23.466  76.669  33.471  0.00  0.00    +0.053 A 
ATOM      7  C   LIG    1      -23.106  75.634  34.339  0.00  0.00    +0.046 A 
ATOM      8  C   LIG    1      -22.473  76.013  35.509  0.00  0.00    +0.113 A 
ATOM      9  N   LIG    1      -22.194  77.282  35.855  0.00  0.00    -0.254 NA
ENDROOT
BRANCH   1  12
ATOM     10  C   LIG    1      -22.824  81.974  36.041  0.00  0.00    +0.121 A 
ATOM     11  C   LIG    1      -23.147  80.675  35.623  0.00  0.00    +0.055 A 
ATOM     12  C   LIG    1      -22.195  79.661  35.487  0.00  0.00    +0.004 A 
ATOM     13  C   LIG    1      -20.877  79.986  35.847  0.00  0.00    +0.010 A 
ATOM     14  C   LIG    1      -20.532  81.271  36.286  0.00  0.00    +0.004 A 
ATOM     15  C   LIG    1      -21.503  82.273  36.363  0.00  0.00    +0.045 A 
BRANCH  10  16
ATOM     16  O   LIG    1      -23.749  82.988  36.137  0.00  0.00    -0.492 OA
BRANCH  16  18
ATOM     17  C   LIG    1      -26.015  83.562  36.818  0.00  0.00    +0.048 C 
ATOM     18  C   LIG    1      -24.778  82.739  37.102  0.00  0.00    +0.225 C 
ENDBRANCH  16  18
ENDBRANCH  10  16
ENDBRANCH   1  12
BRANCH   4  19
ATOM     19  C   LIG    1      -24.765  78.302  30.446  0.00  0.00    +0.353 C 
ATOM     20  O   LIG    1      -25.929  78.556  30.231  0.00  0.00    -0.243 OA
BRANCH  19  21
ATOM     21  O   LIG    1      -23.810  78.325  29.478  0.00  0.00    -0.476 OA
ATOM     22  H   LIG    1      -23.777  77.506  28.954  0.00  0.00    +0.295 HD
ENDBRANCH  19  21
ENDBRANCH   4  19
BRANCH   5  23
ATOM     23  C   LIG    1      -24.296  75.405  31.456  0.00  0.00    +0.163 C 
BRANCH  23  24
ATOM     24  C   LIG    1      -23.077  74.786  30.763  0.00  0.00    +0.250 C 
BRANCH  24  25
ATOM     25  O   LIG    1      -22.253  75.759  30.111  0.00  0.00    -0.490 OA
BRANCH  25  26
ATOM     26  C   LIG    1      -21.061  76.082  30.702  0.00  0.00    +0.121 A 
ATOM     27  C   LIG    1      -20.742  77.444  30.699  0.00  0.00    +0.047 A 
ATOM     28  C   LIG    1      -19.592  77.904  31.348  0.00  0.00    +0.023 A 
ATOM     29  C   LIG    1      -18.751  76.997  31.987  0.00  0.00    +0.041 A 
ATOM     30 CL   LIG    1      -17.345  77.550  32.810  0.00  0.00    -0.084 Cl
ATOM     31  C   LIG    1      -19.047  75.640  31.976  0.00  0.00    +0.023 A 
ATOM     32  C   LIG    1      -20.194  75.184  31.326  0.00  0.00    +0.047 A 
ENDBRANCH  25  26
ENDBRANCH  24  25
ENDBRANCH  23  24
ENDBRANCH   5  23
TORSDOF 9
ENDMDL
MODEL 3
REMARK VINA RESULT:      -6.1      3.173      8.397
REMARK  Name = pdb/CHEMBL3298164.pdb
REMARK                            x       y       z     vdW  Elec       q    Type
REMARK                         _______ _______ _______ _____ _____    ______ ____
ROOT
ATOM      1  C   LIG    1      -21.853  83.048  13.475  0.00  0.00    +0.080 A 
ATOM      2  C   LIG    1      -21.791  84.436  13.791  0.00  0.00    +0.027 A 
ATOM      3  C   LIG    1      -22.212  85.249  14.882  0.00  0.00    +0.045 A 
ATOM      4  C   LIG    1      -21.813  86.562  14.679  0.00  0.00    +0.128 A 
ATOM      5  N   LIG    1      -21.182  86.591  13.447  0.00  0.00    -0.331 N 
ATOM      6  C   LIG    1      -21.157  85.312  12.899  0.00  0.00    +0.053 A 
ATOM      7  C   LIG    1      -20.611  84.844  11.700  0.00  0.00    +0.046 A 
ATOM      8  C   LIG    1      -20.713  83.483  11.476  0.00  0.00    +0.113 A 
ATOM      9  N   LIG    1      -21.293  82.607  12.315  0.00  0.00    -0.254 NA
ENDROOT
BRANCH   1  12
ATOM     10  C   LIG    1      -24.359  80.612  15.000  0.00  0.00    +0.121 A 
ATOM     11  C   LIG    1      -23.768  81.587  14.184  0.00  0.00    +0.055 A 
ATOM     12  C   LIG    1      -22.447  82.012  14.343  0.00  0.00    +0.004 A 
ATOM     13  C   LIG    1      -21.697  81.371  15.342  0.00  0.00    +0.010 A 
ATOM     14  C   LIG    1      -22.259  80.381  16.159  0.00  0.00    +0.004 A 
ATOM     15  C   LIG    1      -23.598  80.016  16.002  0.00  0.00    +0.045 A 
BRANCH  10  16
ATOM     16  O   LIG    1      -25.672  80.217  14.876  0.00  0.00    -0.492 OA
BRANCH  16  18
ATOM     17  C   LIG    1      -25.810  78.117  13.653  0.00  0.00    +0.048 C 
ATOM     18  C   LIG    1      -25.862  78.802  15.000  0.00  0.00    +0.225 C 
ENDBRANCH  16  18
ENDBRANCH  10  16
ENDBRANCH   1  12
BRANCH   4  19
ATOM     19  C   LIG    1      -22.033  87.687  15.562  0.00  0.00    +0.353 C 
ATOM     20  O   LIG    1      -22.754  88.636  15.344  0.00  0.00    -0.243 OA
BRANCH  19  21
ATOM     21  O   LIG    1      -21.298  87.562  16.700  0.00  0.00    -0.476 OA
ATOM     22  H   LIG    1      -21.144  88.410  17.151  0.00  0.00    +0.295 HD
ENDBRANCH  19  21
ENDBRANCH   4  19
BRANCH   5  23
ATOM     23  C   LIG    1      -20.452  87.731  12.893  0.00  0.00    +0.163 C 
BRANCH  23  24
ATOM     24  C   LIG    1      -21.163  88.529  11.794  0.00  0.00    +0.250 C 
BRANCH  24  25
ATOM     25  O   LIG    1      -22.323  89.220  12.269  0.00  0.00    -0.490 OA
BRANCH  25  26
ATOM     26  C   LIG    1      -23.536  88.863  11.744  0.00  0.00    +0.121 A 
ATOM     27  C   LIG    1      -24.418  89.921  11.502  0.00  0.00    +0.047 A 
ATOM     28  C   LIG    1      -25.653  89.688  10.889  0.00  0.00    +0.023 A 
ATOM     29  C   LIG    1      -26.014  88.391  10.533  0.00  0.00    +0.041 A 
ATOM     30 CL   LIG    1      -27.518  88.092   9.757  0.00  0.00    -0.084 Cl
ATOM     31  C   LIG    1      -25.154  87.330  10.790  0.00  0.00    +0.023 A 
ATOM     32  C   LIG    1      -23.924  87.566  11.403  0.00  0.00    +0.047 A 
ENDBRANCH  25  26
ENDBRANCH  24  25
ENDBRANCH  23  24
ENDBRANCH   5  23
TORSDOF 9
ENDMDL
MODEL 4
REMARK VINA RESULT:      -6.0      5.403      9.770
REMARK  Name = pdb/CHEMBL3298164.pdb
REMARK                            x       y       z     vdW  Elec       q    Type
REMARK                         _______ _______ _______ _____ _____    ______ ____
ROOT
ATOM      1  C   LIG    1      -21.833  80.124  15.528  0.00  0.00    +0.080 A 
ATOM      2  C   LIG    1      -22.775  79.140  15.113  0.00  0.00    +0.027 A 
ATOM      3  C   LIG    1      -24.173  79.125  14.837  0.00  0.00    +0.045 A 
ATOM      4  C   LIG    1      -24.555  77.870  14.385  0.00  0.00    +0.128 A 
ATOM      5  N   LIG    1      -23.418  77.081  14.417  0.00  0.00    -0.331 N 
ATOM      6  C   LIG    1      -22.331  77.837  14.850  0.00  0.00    +0.053 A 
ATOM      7  C   LIG    1      -20.987  77.490  15.017  0.00  0.00    +0.046 A 
ATOM      8  C   LIG    1      -20.142  78.507  15.420  0.00  0.00    +0.113 A 
ATOM      9  N   LIG    1      -20.524  79.774  15.659  0.00  0.00    -0.254 NA
ENDROOT
BRANCH   1  12
ATOM     10  C   LIG    1      -22.510  83.838  14.986  0.00  0.00    +0.121 A 
ATOM     11  C   LIG    1      -22.216  82.485  14.763  0.00  0.00    +0.055 A 
ATOM     12  C   LIG    1      -22.154  81.540  15.791  0.00  0.00    +0.004 A 
ATOM     13  C   LIG    1      -22.458  81.999  17.083  0.00  0.00    +0.010 A 
ATOM     14  C   LIG    1      -22.772  83.341  17.330  0.00  0.00    +0.004 A 
ATOM     15  C   LIG    1      -22.778  84.267  16.283  0.00  0.00    +0.045 A 
BRANCH  10  16
ATOM     16  O   LIG    1      -22.533  84.781  13.984  0.00  0.00    -0.492 OA
BRANCH  16  18
ATOM     17  C   LIG    1      -22.168  87.104  13.356  0.00  0.00    +0.048 C 
ATOM     18  C   LIG    1      -22.500  86.131  14.465  0.00  0.00    +0.225 C 
ENDBRANCH  16  18
ENDBRANCH  10  16
ENDBRANCH   1  12
BRANCH   4  19
ATOM     19  C   LIG    1      -25.882  77.453  13.986  0.00  0.00    +0.353 C 
ATOM     20  O   LIG    1      -26.192  76.994  12.908  0.00  0.00    -0.243 OA
BRANCH  19  21
ATOM     21  O   LIG    1      -26.778  77.659  14.989  0.00  0.00    -0.476 OA
ATOM     22  H   LIG    1      -26.355  77.827  15.850  0.00  0.00    +0.295 HD
ENDBRANCH  19  21
ENDBRANCH   4  19
BRANCH   5  23
ATOM     23  C   LIG    1      -23.305  75.729  13.872  0.00  0.00    +0.163 C 
BRANCH  23  24
ATOM     24  C   LIG    1      -23.606  74.576  14.837  0.00  0.00    +0.250 C 
BRANCH  24  25
ATOM     25  O   LIG    1      -23.434  74.939  16.210  0.00  0.00    -0.490 OA
BRANCH  25  26
ATOM     26  C   LIG    1      -22.623  74.148  16.980  0.00  0.00    +0.121 A 
ATOM     27  C   LIG    1      -21.268  74.165  16.635  0.00  0.00    +0.047 A 
ATOM     28  C   LIG    1      -20.332  73.464  17.402  0.00  0.00    +0.023 A 
ATOM     29  C   LIG    1      -20.756  72.731  18.507  0.00  0.00    +0.041 A 
ATOM     30 CL   LIG    1      -19.615  71.883  19.474  0.00  0.00    -0.084 Cl
ATOM     31  C   LIG    1      -22.103  72.688  18.844  0.00  0.00    +0.023 A 
ATOM     32  C   LIG    1      -23.034  73.388  18.076  0.00  0.00    +0.047 A 
ENDBRANCH  25  26
ENDBRANCH  24  25
ENDBRANCH  23  24
ENDBRANCH   5  23
TORSDOF 9
ENDMDL
MODEL 5
REMARK VINA RESULT:      -6.0     18.938     20.758
REMARK  Name = pdb/CHEMBL3298164.pdb
REMARK                            x       y       z     vdW  Elec       q    Type
REMARK                         _______ _______ _______ _____ _____    ______ ____
ROOT
ATOM      1  C   LIG    1      -36.367  81.762  28.306  0.00  0.00    +0.080 A 
ATOM      2  C   LIG    1      -35.578  80.607  28.031  0.00  0.00    +0.027 A 
ATOM      3  C   LIG    1      -34.253  80.370  27.565  0.00  0.00    +0.045 A 
ATOM      4  C   LIG    1      -33.988  79.008  27.558  0.00  0.00    +0.128 A 
ATOM      5  N   LIG    1      -35.151  78.382  27.975  0.00  0.00    -0.331 N 
ATOM      6  C   LIG    1      -36.121  79.337  28.269  0.00  0.00    +0.053 A 
ATOM      7  C   LIG    1      -37.427  79.192  28.745  0.00  0.00    +0.046 A 
ATOM      8  C   LIG    1      -38.119  80.365  28.986  0.00  0.00    +0.113 A 
ATOM      9  N   LIG    1      -37.628  81.601  28.793  0.00  0.00    -0.254 NA
ENDROOT
BRANCH   1  12
ATOM     10  C   LIG    1      -34.652  85.100  28.980  0.00  0.00    +0.121 A 
ATOM     11  C   LIG    1      -35.097  83.776  29.102  0.00  0.00    +0.055 A 
ATOM     12  C   LIG    1      -35.906  83.154  28.147  0.00  0.00    +0.004 A 
ATOM     13  C   LIG    1      -36.220  83.908  27.005  0.00  0.00    +0.010 A 
ATOM     14  C   LIG    1      -35.774  85.227  26.850  0.00  0.00    +0.004 A 
ATOM     15  C   LIG    1      -35.006  85.831  27.849  0.00  0.00    +0.045 A 
BRANCH  10  16
ATOM     16  O   LIG    1      -33.890  85.733  29.936  0.00  0.00    -0.492 OA
BRANCH  16  18
ATOM     17  C   LIG    1      -31.689  85.085  30.748  0.00  0.00    +0.048 C 
ATOM     18  C   LIG    1      -32.488  85.738  29.642  0.00  0.00    +0.225 C 
ENDBRANCH  16  18
ENDBRANCH  10  16
ENDBRANCH   1  12
BRANCH   4  19
ATOM     19  C   LIG    1      -32.753  78.362  27.168  0.00  0.00    +0.353 C 
ATOM     20  O   LIG    1      -32.444  78.033  26.044  0.00  0.00    -0.243 OA
BRANCH  19  21
ATOM     21  O   LIG    1      -31.958  78.144  28.249  0.00  0.00    -0.476 OA
ATOM     22  H   LIG    1      -31.871  78.925  28.824  0.00  0.00    +0.295 HD
ENDBRANCH  19  21
ENDBRANCH   4  19
BRANCH   5  23
ATOM     23  C   LIG    1      -35.288  76.959  28.279  0.00  0.00    +0.163 C 
BRANCH  23  24
ATOM     24  C   LIG    1      -35.949  76.090  27.203  0.00  0.00    +0.250 C 
BRANCH  24  25
ATOM     25  O   LIG    1      -36.394  76.846  26.072  0.00  0.00    -0.490 OA
BRANCH  25  26
ATOM     26  C   LIG    1      -37.499  76.396  25.401  0.00  0.00    +0.121 A 
ATOM     27  C   LIG    1      -37.723  75.017  25.474  0.00  0.00    +0.047 A 
ATOM     28  C   LIG    1      -38.866  74.453  24.899  0.00  0.00    +0.023 A 
ATOM     29  C   LIG    1      -39.779  75.267  24.236  0.00  0.00    +0.041 A 
ATOM     30 CL   LIG    1      -41.201  74.592  23.545  0.00  0.00    -0.084 Cl
ATOM     31  C   LIG    1      -39.554  76.635  24.137  0.00  0.00    +0.023 A 
ATOM     32  C   LIG    1      -38.412  77.194  24.710  0.00  0.00    +0.047 A 
ENDBRANCH  25  26
ENDBRANCH  24  25
ENDBRANCH  23  24
ENDBRANCH   5  23
TORSDOF 9
ENDMDL
MODEL 6
REMARK VINA RESULT:      -5.9     15.664     21.240
REMARK  Name = pdb/CHEMBL3298164.pdb
REMARK                            x       y       z     vdW  Elec       q    Type
REMARK                         _______ _______ _______ _____ _____    ______ ____
ROOT
ATOM      1  C   LIG    1      -30.199  66.916  18.935  0.00  0.00    +0.080 A 
ATOM      2  C   LIG    1      -30.302  68.272  18.510  0.00  0.00    +0.027 A 
ATOM      3  C   LIG    1      -31.365  69.134  18.115  0.00  0.00    +0.045 A 
ATOM      4  C   LIG    1      -30.877  70.409  17.870  0.00  0.00    +0.128 A 
ATOM      5  N   LIG    1      -29.507  70.347  18.066  0.00  0.00    -0.331 N 
ATOM      6  C   LIG    1      -29.145  69.061  18.458  0.00  0.00    +0.053 A 
ATOM      7  C   LIG    1      -27.897  68.527  18.791  0.00  0.00    +0.046 A 
ATOM      8  C   LIG    1      -27.889  67.205  19.195  0.00  0.00    +0.113 A 
ATOM      9  N   LIG    1      -28.978  66.421  19.281  0.00  0.00    -0.254 NA
ENDROOT
BRANCH   1  12
ATOM     10  C   LIG    1      -33.408  65.310  20.224  0.00  0.00    +0.121 A 
ATOM     11  C   LIG    1      -32.321  66.179  20.058  0.00  0.00    +0.055 A 
ATOM     12  C   LIG    1      -31.338  65.990  19.082  0.00  0.00    +0.004 A 
ATOM     13  C   LIG    1      -31.515  64.898  18.217  0.00  0.00    +0.010 A 
ATOM     14  C   LIG    1      -32.603  64.025  18.351  0.00  0.00    +0.004 A 
ATOM     15  C   LIG    1      -33.540  64.219  19.369  0.00  0.00    +0.045 A 
BRANCH  10  16
ATOM     16  O   LIG    1      -34.357  65.467  21.208  0.00  0.00    -0.492 OA
BRANCH  16  18
ATOM     17  C   LIG    1      -34.819  66.801  23.191  0.00  0.00    +0.048 C 
ATOM     18  C   LIG    1      -34.431  66.799  21.729  0.00  0.00    +0.225 C 
ENDBRANCH  16  18
ENDBRANCH  10  16
ENDBRANCH   1  12
BRANCH   4  19
ATOM     19  C   LIG    1      -31.638  71.572  17.464  0.00  0.00    +0.353 C 
ATOM     20  O   LIG    1      -32.086  71.781  16.359  0.00  0.00    -0.243 OA
BRANCH  19  21
ATOM     21  O   LIG    1      -31.783  72.441  18.500  0.00  0.00    -0.476 OA
ATOM     22  H   LIG    1      -32.706  72.533  18.796  0.00  0.00    +0.295 HD
ENDBRANCH  19  21
ENDBRANCH   4  19
BRANCH   5  23
ATOM     23  C   LIG    1      -28.598  71.492  18.082  0.00  0.00    +0.163 C 
BRANCH  23  24
ATOM     24  C   LIG    1      -28.012  71.918  16.731  0.00  0.00    +0.250 C 
BRANCH  24  25
ATOM     25  O   LIG    1      -26.909  71.104  16.320  0.00  0.00    -0.490 OA
BRANCH  25  26
ATOM     26  C   LIG    1      -25.647  71.543  16.622  0.00  0.00    +0.121 A 
ATOM     27  C   LIG    1      -25.173  72.593  15.827  0.00  0.00    +0.047 A 
ATOM     28  C   LIG    1      -23.933  73.181  16.095  0.00  0.00    +0.023 A 
ATOM     29  C   LIG    1      -23.158  72.707  17.150  0.00  0.00    +0.041 A 
ATOM     30 CL   LIG    1      -21.642  73.436  17.507  0.00  0.00    -0.084 Cl
ATOM     31  C   LIG    1      -23.609  71.650  17.931  0.00  0.00    +0.023 A 
ATOM     32  C   LIG    1      -24.846  71.064  17.659  0.00  0.00    +0.047 A 
ENDBRANCH  25  26
ENDBRANCH  24  25
ENDBRANCH  23  24
ENDBRANCH   5  23
TORSDOF 9
ENDMDL
MODEL 7
REMARK VINA RESULT:      -5.8     20.851     24.164
REMARK  Name = pdb/CHEMBL3298164.pdb
REMARK                            x       y       z     vdW  Elec       q    Type
REMARK                         _______ _______ _______ _____ _____    ______ ____
ROOT
ATOM      1  C   LIG    1      -35.479  72.497  28.530  0.00  0.00    +0.080 A 
ATOM      2  C   LIG    1      -35.020  73.844  28.443  0.00  0.00    +0.027 A 
ATOM      3  C   LIG    1      -33.873  74.492  27.902  0.00  0.00    +0.045 A 
ATOM      4  C   LIG    1      -33.994  75.867  28.042  0.00  0.00    +0.128 A 
ATOM      5  N   LIG    1      -35.189  76.088  28.706  0.00  0.00    -0.331 N 
ATOM      6  C   LIG    1      -35.823  74.873  28.952  0.00  0.00    +0.053 A 
ATOM      7  C   LIG    1      -37.049  74.592  29.563  0.00  0.00    +0.046 A 
ATOM      8  C   LIG    1      -37.417  73.259  29.601  0.00  0.00    +0.113 A 
ATOM      9  N   LIG    1      -36.687  72.245  29.105  0.00  0.00    -0.254 NA
ENDROOT
BRANCH   1  12
ATOM     10  C   LIG    1      -34.250  69.792  26.139  0.00  0.00    +0.121 A 
ATOM     11  C   LIG    1      -34.914  70.907  26.670  0.00  0.00    +0.055 A 
ATOM     12  C   LIG    1      -34.759  71.326  27.995  0.00  0.00    +0.004 A 
ATOM     13  C   LIG    1      -33.847  70.601  28.779  0.00  0.00    +0.010 A 
ATOM     14  C   LIG    1      -33.156  69.494  28.267  0.00  0.00    +0.004 A 
ATOM     15  C   LIG    1      -33.374  69.077  26.951  0.00  0.00    +0.045 A 
BRANCH  10  16
ATOM     16  O   LIG    1      -34.429  69.350  24.849  0.00  0.00    -0.492 OA
BRANCH  16  18
ATOM     17  C   LIG    1      -34.968  67.493  23.369  0.00  0.00    +0.048 C 
ATOM     18  C   LIG    1      -35.071  68.072  24.763  0.00  0.00    +0.225 C 
ENDBRANCH  16  18
ENDBRANCH  10  16
ENDBRANCH   1  12
BRANCH   4  19
ATOM     19  C   LIG    1      -33.050  76.875  27.607  0.00  0.00    +0.353 C 
ATOM     20  O   LIG    1      -31.991  77.136  28.133  0.00  0.00    -0.243 OA
BRANCH  19  21
ATOM     21  O   LIG    1      -33.513  77.530  26.509  0.00  0.00    -0.476 OA
ATOM     22  H   LIG    1      -33.341  77.053  25.677  0.00  0.00    +0.295 HD
ENDBRANCH  19  21
ENDBRANCH   4  19
BRANCH   5  23
ATOM     23  C   LIG    1      -35.811  77.393  28.925  0.00  0.00    +0.163 C 
BRANCH  23  24
ATOM     24  C   LIG    1      -36.846  77.839  27.886  0.00  0.00    +0.250 C 
BRANCH  24  25
ATOM     25  O   LIG    1      -36.558  77.358  26.569  0.00  0.00    -0.490 OA
BRANCH  25  26
ATOM     26  C   LIG    1      -37.490  76.556  25.966  0.00  0.00    +0.121 A 
ATOM     27  C   LIG    1      -38.574  77.227  25.392  0.00  0.00    +0.047 A 
ATOM     28  C   LIG    1      -39.546  76.521  24.675  0.00  0.00    +0.023 A 
ATOM     29  C   LIG    1      -39.440  75.139  24.547  0.00  0.00    +0.041 A 
ATOM     30 CL   LIG    1      -40.613  74.260  23.648  0.00  0.00    -0.084 Cl
ATOM     31  C   LIG    1      -38.379  74.460  25.133  0.00  0.00    +0.023 A 
ATOM     32  C   LIG    1      -37.413  75.167  25.849  0.00  0.00    +0.047 A 
ENDBRANCH  25  26
ENDBRANCH  24  25
ENDBRANCH  23  24
ENDBRANCH   5  23
TORSDOF 9
ENDMDL
MODEL 8
REMARK VINA RESULT:      -5.8     22.129     23.736
REMARK  Name = pdb/CHEMBL3298164.pdb
REMARK                            x       y       z     vdW  Elec       q    Type
REMARK                         _______ _______ _______ _____ _____    ______ ____
ROOT
ATOM      1  C   LIG    1      -40.536  74.973  23.931  0.00  0.00    +0.080 A 
ATOM      2  C   LIG    1      -39.724  73.834  24.200  0.00  0.00    +0.027 A 
ATOM      3  C   LIG    1      -38.458  73.612  24.816  0.00  0.00    +0.045 A 
ATOM      4  C   LIG    1      -38.187  72.252  24.869  0.00  0.00    +0.128 A 
ATOM      5  N   LIG    1      -39.253  71.618  24.252  0.00  0.00    -0.331 N 
ATOM      6  C   LIG    1      -40.192  72.562  23.846  0.00  0.00    +0.053 A 
ATOM      7  C   LIG    1      -41.429  72.403  23.213  0.00  0.00    +0.046 A 
ATOM      8  C   LIG    1      -42.152  73.562  22.993  0.00  0.00    +0.113 A 
ATOM      9  N   LIG    1      -41.748  74.797  23.337  0.00  0.00    -0.254 NA
ENDROOT
BRANCH   1  12
ATOM     10  C   LIG    1      -39.440  78.015  25.953  0.00  0.00    +0.121 A 
ATOM     11  C   LIG    1      -39.768  76.704  25.581  0.00  0.00    +0.055 A 
ATOM     12  C   LIG    1      -40.187  76.361  24.293  0.00  0.00    +0.004 A 
ATOM     13  C   LIG    1      -40.216  77.397  23.346  0.00  0.00    +0.010 A 
ATOM     14  C   LIG    1      -39.875  78.713  23.688  0.00  0.00    +0.004 A 
ATOM     15  C   LIG    1      -39.507  79.026  24.998  0.00  0.00    +0.045 A 
BRANCH  10  16
ATOM     16  O   LIG    1      -39.067  78.367  27.230  0.00  0.00    -0.492 OA
BRANCH  16  18
ATOM     17  C   LIG    1      -37.132  78.078  28.679  0.00  0.00    +0.048 C 
ATOM     18  C   LIG    1      -37.663  78.619  27.370  0.00  0.00    +0.225 C 
ENDBRANCH  16  18
ENDBRANCH  10  16
ENDBRANCH   1  12
BRANCH   4  19
ATOM     19  C   LIG    1      -37.014  71.618  25.432  0.00  0.00    +0.353 C 
ATOM     20  O   LIG    1      -36.818  71.393  26.606  0.00  0.00    -0.243 OA
BRANCH  19  21
ATOM     21  O   LIG    1      -36.118  71.307  24.458  0.00  0.00    -0.476 OA
ATOM     22  H   LIG    1      -36.143  71.922  23.704  0.00  0.00    +0.295 HD
ENDBRANCH  19  21
ENDBRANCH   4  19
BRANCH   5  23
ATOM     23  C   LIG    1      -39.481  70.174  24.222  0.00  0.00    +0.163 C 
BRANCH  23  24
ATOM     24  C   LIG    1      -39.082  69.446  22.933  0.00  0.00    +0.250 C 
BRANCH  24  25
ATOM     25  O   LIG    1      -37.680  69.169  22.860  0.00  0.00    -0.490 OA
BRANCH  25  26
ATOM     26  C   LIG    1      -37.225  68.475  21.771  0.00  0.00    +0.121 A 
ATOM     27  C   LIG    1      -37.785  68.851  20.546  0.00  0.00    +0.047 A 
ATOM     28  C   LIG    1      -37.337  68.273  19.354  0.00  0.00    +0.023 A 
ATOM     29  C   LIG    1      -36.337  67.305  19.389  0.00  0.00    +0.041 A 
ATOM     30 CL   LIG    1      -35.758  66.602  17.931  0.00  0.00    -0.084 Cl
ATOM     31  C   LIG    1      -35.790  66.908  20.603  0.00  0.00    +0.023 A 
ATOM     32  C   LIG    1      -36.241  67.485  21.790  0.00  0.00    +0.047 A 
ENDBRANCH  25  26
ENDBRANCH  24  25
ENDBRANCH  23  24
ENDBRANCH   5  23
TORSDOF 9
ENDMDL
MODEL 9
REMARK VINA RESULT:      -5.8     23.531     24.655
REMARK  Name = pdb/CHEMBL3298164.pdb
REMARK                            x       y       z     vdW  Elec       q    Type
REMARK                         _______ _______ _______ _____ _____    ______ ____
ROOT
ATOM      1  C   LIG    1      -39.518  71.210  24.148  0.00  0.00    +0.080 A 
ATOM      2  C   LIG    1      -38.233  70.825  24.628  0.00  0.00    +0.027 A 
ATOM      3  C   LIG    1      -37.074  71.513  25.090  0.00  0.00    +0.045 A 
ATOM      4  C   LIG    1      -36.117  70.602  25.513  0.00  0.00    +0.128 A 
ATOM      5  N   LIG    1      -36.646  69.344  25.280  0.00  0.00    -0.331 N 
ATOM      6  C   LIG    1      -37.928  69.463  24.748  0.00  0.00    +0.053 A 
ATOM      7  C   LIG    1      -38.856  68.485  24.380  0.00  0.00    +0.046 A 
ATOM      8  C   LIG    1      -40.079  68.947  23.928  0.00  0.00    +0.113 A 
ATOM      9  N   LIG    1      -40.419  70.243  23.819  0.00  0.00    -0.254 NA
ENDROOT
BRANCH   1  12
ATOM     10  C   LIG    1      -41.699  74.227  23.324  0.00  0.00    +0.121 A 
ATOM     11  C   LIG    1      -41.234  72.912  23.468  0.00  0.00    +0.055 A 
ATOM     12  C   LIG    1      -39.987  72.603  24.017  0.00  0.00    +0.004 A 
ATOM     13  C   LIG    1      -39.219  73.684  24.479  0.00  0.00    +0.010 A 
ATOM     14  C   LIG    1      -39.669  75.006  24.363  0.00  0.00    +0.004 A 
ATOM     15  C   LIG    1      -40.902  75.279  23.766  0.00  0.00    +0.045 A 
BRANCH  10  16
ATOM     16  O   LIG    1      -42.909  74.542  22.747  0.00  0.00    -0.492 OA
BRANCH  16  18
ATOM     17  C   LIG    1      -44.396  76.360  23.387  0.00  0.00    +0.048 C 
ATOM     18  C   LIG    1      -43.146  75.951  22.641  0.00  0.00    +0.225 C 
ENDBRANCH  16  18
ENDBRANCH  10  16
ENDBRANCH   1  12
BRANCH   4  19
ATOM     19  C   LIG    1      -34.812  70.900  26.063  0.00  0.00    +0.353 C 
ATOM     20  O   LIG    1      -34.571  71.180  27.217  0.00  0.00    -0.243 OA
BRANCH  19  21
ATOM     21  O   LIG    1      -33.855  70.845  25.099  0.00  0.00    -0.476 OA
ATOM     22  H   LIG    1      -33.070  71.382  25.307  0.00  0.00    +0.295 HD
ENDBRANCH  19  21
ENDBRANCH   4  19
BRANCH   5  23
ATOM     23  C   LIG    1      -36.060  68.080  25.722  0.00  0.00    +0.163 C 
BRANCH  23  24
ATOM     24  C   LIG    1      -35.003  67.458  24.802  0.00  0.00    +0.250 C 
BRANCH  24  25
ATOM     25  O   LIG    1      -34.819  68.192  23.587  0.00  0.00    -0.490 OA
BRANCH  25  26
ATOM     26  C   LIG    1      -35.095  67.552  22.409  0.00  0.00    +0.121 A 
ATOM     27  C   LIG    1      -36.334  67.856  21.837  0.00  0.00    +0.047 A 
ATOM     28  C   LIG    1      -36.689  67.329  20.592  0.00  0.00    +0.023 A 
ATOM     29  C   LIG    1      -35.810  66.482  19.924  0.00  0.00    +0.041 A 
ATOM     30 CL   LIG    1      -36.222  65.845  18.382  0.00  0.00    -0.084 Cl
ATOM     31  C   LIG    1      -34.586  66.154  20.494  0.00  0.00    +0.023 A 
ATOM     32  C   LIG    1      -34.235  66.681  21.738  0.00  0.00    +0.047 A 
ENDBRANCH  25  26
ENDBRANCH  24  25
ENDBRANCH  23  24
ENDBRANCH   5  23
TORSDOF 9
ENDMDL
