MODEL 1
REMARK VINA RESULT:      -6.3      0.000      0.000
REMARK  Name = modded_pdb/CHEMBL1983268_nitrogen_modded_with_ethanol_version_2.pdb
REMARK                            x       y       z     vdW  Elec       q    Type
REMARK                         _______ _______ _______ _____ _____    ______ ____
ROOT
ATOM      1  C   LIG    1      -23.303  81.524  36.842  0.00  0.00    +0.032 A 
ATOM      2  C   LIG    1      -23.221  80.129  37.048  0.00  0.00    +0.047 A 
ATOM      3  C   LIG    1      -22.229  79.247  36.485  0.00  0.00    +0.044 A 
ATOM      4  C   LIG    1      -21.078  79.887  35.951  0.00  0.00    +0.058 A 
ATOM      5  C   LIG    1      -21.084  81.290  35.861  0.00  0.00    +0.017 A 
ATOM      6  C   LIG    1      -22.162  82.079  36.275  0.00  0.00    +0.024 A 
ENDROOT
BRANCH   1  11
ATOM      7  C   LIG    1      -26.642  82.120  40.009  0.00  0.00    +0.105 C 
ATOM      8  N   LIG    1      -26.781  83.081  38.913  0.00  0.00    -0.302 NA
ATOM      9  C   LIG    1      -26.959  82.415  37.611  0.00  0.00    +0.103 C 
ATOM     10  C   LIG    1      -25.751  81.586  37.124  0.00  0.00    +0.120 C 
ATOM     11  N   LIG    1      -24.447  82.305  37.171  0.00  0.00    -0.327 N 
ATOM     12  C   LIG    1      -24.288  83.227  38.336  0.00  0.00    +0.120 C 
ATOM     13  C   LIG    1      -25.591  83.941  38.786  0.00  0.00    +0.103 C 
ENDBRANCH   1  11
BRANCH   4  14
ATOM     14  C   LIG    1      -19.853  79.251  35.344  0.00  0.00    +0.251 C 
ATOM     15  N   LIG    1      -19.659  79.493  33.981  0.00  0.00    -0.264 N 
ATOM     16  H   LIG    1      -20.311  80.076  33.487  0.00  0.00    +0.157 HD
ATOM     17  O   LIG    1      -19.146  78.509  36.058  0.00  0.00    -0.270 OA
BRANCH  15  18
ATOM     18  C   LIG    1      -18.721  78.872  33.174  0.00  0.00    +0.155 A 
ATOM     19  C   LIG    1      -19.003  78.128  31.956  0.00  0.00    +0.042 A 
ATOM     20  C   LIG    1      -20.136  77.788  31.165  0.00  0.00    +0.017 A 
ATOM     21  C   LIG    1      -19.990  76.902  30.065  0.00  0.00    -0.042 A 
ATOM     22  C   LIG    1      -18.711  76.405  29.759  0.00  0.00    +0.006 A 
ATOM     23  C   LIG    1      -17.584  76.745  30.500  0.00  0.00    +0.028 A 
ATOM     24  C   LIG    1      -17.770  77.603  31.580  0.00  0.00    +0.068 A 
ATOM     25  N   LIG    1      -16.875  78.077  32.493  0.00  0.00    -0.275 N 
ATOM     26  H   LIG    1      -15.883  77.884  32.539  0.00  0.00    +0.189 HD
ATOM     27  N   LIG    1      -17.414  78.844  33.440  0.00  0.00    -0.157 NA
BRANCH  21  28
ATOM     28  C   LIG    1      -21.187  76.498  29.209  0.00  0.00    +0.070 C 
BRANCH  28  29
ATOM     29  C   LIG    1      -22.516  76.558  29.945  0.00  0.00    -0.038 A 
ATOM     30  C   LIG    1      -23.356  77.682  29.837  0.00  0.00    +0.042 A 
ATOM     31  C   LIG    1      -24.641  77.651  30.380  0.00  0.00    +0.126 A 
ATOM     32  F   LIG    1      -25.447  78.709  30.221  0.00  0.00    -0.205 F 
ATOM     33  C   LIG    1      -25.112  76.531  31.049  0.00  0.00    +0.076 A 
ATOM     34  C   LIG    1      -24.278  75.429  31.170  0.00  0.00    +0.126 A 
ATOM     35  F   LIG    1      -24.723  74.332  31.797  0.00  0.00    -0.205 F 
ATOM     36  C   LIG    1      -22.994  75.429  30.626  0.00  0.00    +0.042 A 
ENDBRANCH  28  29
ENDBRANCH  21  28
ENDBRANCH  15  18
ENDBRANCH   4  14
BRANCH   3  37
ATOM     37  N   LIG    1      -22.533  77.880  36.485  0.00  0.00    -0.324 N 
BRANCH  37  38
ATOM     38  C   LIG    1      -23.299  77.228  35.348  0.00  0.00    +0.078 C 
ATOM     39  C   LIG    1      -23.032  77.874  33.973  0.00  0.00    +0.050 C 
ATOM     40  C   LIG    1      -23.979  79.003  33.596  0.00  0.00    +0.161 C 
ATOM     41  O   LIG    1      -25.344  78.635  33.762  0.00  0.00    -0.380 OA
ATOM     42  C   LIG    1      -25.660  78.193  35.075  0.00  0.00    +0.161 C 
ATOM     43  C   LIG    1      -24.810  77.003  35.490  0.00  0.00    +0.050 C 
ENDBRANCH  37  38
BRANCH  37  44
ATOM     44  C   LIG    1      -21.876  76.920  37.421  0.00  0.00    +0.133 C 
BRANCH  44  45
ATOM     45  C   LIG    1      -21.217  75.700  36.767  0.00  0.00    +0.174 C 
BRANCH  45  46
ATOM     46  O   LIG    1      -19.794  75.736  36.875  0.00  0.00    -0.393 OA
ATOM     47  H   LIG    1      -19.444  75.262  36.100  0.00  0.00    +0.209 HD
ENDBRANCH  45  46
ENDBRANCH  44  45
ENDBRANCH  37  44
ENDBRANCH   3  37
TORSDOF 10
ENDMDL
MODEL 2
REMARK VINA RESULT:      -6.0      3.980      7.642
REMARK  Name = modded_pdb/CHEMBL1983268_nitrogen_modded_with_ethanol_version_2.pdb
REMARK                            x       y       z     vdW  Elec       q    Type
REMARK                         _______ _______ _______ _____ _____    ______ ____
ROOT
ATOM      1  C   LIG    1      -21.828  78.672  33.985  0.00  0.00    +0.032 A 
ATOM      2  C   LIG    1      -21.731  77.626  33.040  0.00  0.00    +0.047 A 
ATOM      3  C   LIG    1      -22.830  77.035  32.317  0.00  0.00    +0.044 A 
ATOM      4  C   LIG    1      -24.039  77.781  32.331  0.00  0.00    +0.058 A 
ATOM      5  C   LIG    1      -24.112  78.907  33.167  0.00  0.00    +0.017 A 
ATOM      6  C   LIG    1      -23.052  79.329  33.977  0.00  0.00    +0.024 A 
ENDROOT
BRANCH   1  11
ATOM      7  C   LIG    1      -19.496  77.297  37.755  0.00  0.00    +0.105 C 
ATOM      8  N   LIG    1      -18.994  78.584  37.267  0.00  0.00    -0.302 NA
ATOM      9  C   LIG    1      -20.043  79.618  37.252  0.00  0.00    +0.103 C 
ATOM     10  C   LIG    1      -21.204  79.364  36.267  0.00  0.00    +0.120 C 
ATOM     11  N   LIG    1      -20.779  79.028  34.879  0.00  0.00    -0.327 N 
ATOM     12  C   LIG    1      -19.544  78.192  34.795  0.00  0.00    +0.120 C 
ATOM     13  C   LIG    1      -18.482  78.483  35.889  0.00  0.00    +0.103 C 
ENDBRANCH   1  11
BRANCH   4  14
ATOM     14  C   LIG    1      -25.340  77.462  31.638  0.00  0.00    +0.251 C 
ATOM     15  N   LIG    1      -26.436  77.243  32.478  0.00  0.00    -0.264 N 
ATOM     16  H   LIG    1      -26.316  77.323  33.472  0.00  0.00    +0.157 HD
ATOM     17  O   LIG    1      -25.345  77.346  30.393  0.00  0.00    -0.270 OA
BRANCH  15  18
ATOM     18  C   LIG    1      -27.672  76.759  32.086  0.00  0.00    +0.155 A 
ATOM     19  C   LIG    1      -28.090  75.366  32.114  0.00  0.00    +0.042 A 
ATOM     20  C   LIG    1      -27.551  74.109  32.507  0.00  0.00    +0.017 A 
ATOM     21  C   LIG    1      -28.274  72.916  32.245  0.00  0.00    -0.042 A 
ATOM     22  C   LIG    1      -29.534  73.008  31.629  0.00  0.00    +0.006 A 
ATOM     23  C   LIG    1      -30.095  74.226  31.261  0.00  0.00    +0.028 A 
ATOM     24  C   LIG    1      -29.349  75.372  31.520  0.00  0.00    +0.068 A 
ATOM     25  N   LIG    1      -29.619  76.680  31.246  0.00  0.00    -0.275 N 
ATOM     26  H   LIG    1      -30.444  77.057  30.796  0.00  0.00    +0.189 HD
ATOM     27  N   LIG    1      -28.644  77.523  31.586  0.00  0.00    -0.157 NA
BRANCH  21  28
ATOM     28  C   LIG    1      -27.716  71.549  32.632  0.00  0.00    +0.070 C 
BRANCH  28  29
ATOM     29  C   LIG    1      -26.583  71.073  31.736  0.00  0.00    -0.038 A 
ATOM     30  C   LIG    1      -26.845  70.434  30.511  0.00  0.00    +0.042 A 
ATOM     31  C   LIG    1      -25.802  70.156  29.627  0.00  0.00    +0.126 A 
ATOM     32  F   LIG    1      -26.076  69.596  28.442  0.00  0.00    -0.205 F 
ATOM     33  C   LIG    1      -24.490  70.484  29.940  0.00  0.00    +0.076 A 
ATOM     34  C   LIG    1      -24.230  71.099  31.155  0.00  0.00    +0.126 A 
ATOM     35  F   LIG    1      -22.971  71.439  31.465  0.00  0.00    -0.205 F 
ATOM     36  C   LIG    1      -25.255  71.398  32.051  0.00  0.00    +0.042 A 
ENDBRANCH  28  29
ENDBRANCH  21  28
ENDBRANCH  15  18
ENDBRANCH   4  14
BRANCH   3  37
ATOM     37  N   LIG    1      -22.594  75.784  31.733  0.00  0.00    -0.324 N 
BRANCH  37  38
ATOM     38  C   LIG    1      -22.784  74.490  32.503  0.00  0.00    +0.078 C 
ATOM     39  C   LIG    1      -23.956  74.534  33.506  0.00  0.00    +0.050 C 
ATOM     40  C   LIG    1      -23.588  74.992  34.908  0.00  0.00    +0.161 C 
ATOM     41  O   LIG    1      -22.464  74.288  35.426  0.00  0.00    -0.380 OA
ATOM     42  C   LIG    1      -21.311  74.371  34.600  0.00  0.00    +0.161 C 
ATOM     43  C   LIG    1      -21.578  73.844  33.199  0.00  0.00    +0.050 C 
ENDBRANCH  37  38
BRANCH  37  44
ATOM     44  C   LIG    1      -22.447  75.611  30.257  0.00  0.00    +0.133 C 
BRANCH  44  45
ATOM     45  C   LIG    1      -21.938  76.838  29.493  0.00  0.00    +0.174 C 
BRANCH  45  46
ATOM     46  O   LIG    1      -22.998  77.561  28.868  0.00  0.00    -0.393 OA
ATOM     47  H   LIG    1      -23.765  77.501  29.464  0.00  0.00    +0.209 HD
ENDBRANCH  45  46
ENDBRANCH  44  45
ENDBRANCH  37  44
ENDBRANCH   3  37
TORSDOF 10
ENDMDL
MODEL 3
REMARK VINA RESULT:      -5.9     13.183     17.086
REMARK  Name = modded_pdb/CHEMBL1983268_nitrogen_modded_with_ethanol_version_2.pdb
REMARK                            x       y       z     vdW  Elec       q    Type
REMARK                         _______ _______ _______ _____ _____    ______ ____
ROOT
ATOM      1  C   LIG    1      -32.458  73.420  29.385  0.00  0.00    +0.032 A 
ATOM      2  C   LIG    1      -32.735  74.785  29.148  0.00  0.00    +0.047 A 
ATOM      3  C   LIG    1      -33.906  75.307  28.488  0.00  0.00    +0.044 A 
ATOM      4  C   LIG    1      -34.991  74.399  28.362  0.00  0.00    +0.058 A 
ATOM      5  C   LIG    1      -34.775  73.057  28.721  0.00  0.00    +0.017 A 
ATOM      6  C   LIG    1      -33.550  72.581  29.200  0.00  0.00    +0.024 A 
ENDROOT
BRANCH   1  11
ATOM      7  C   LIG    1      -30.230  70.875  32.563  0.00  0.00    +0.105 C 
ATOM      8  N   LIG    1      -29.299  71.391  31.557  0.00  0.00    -0.302 NA
ATOM      9  C   LIG    1      -29.302  72.863  31.502  0.00  0.00    +0.103 C 
ATOM     10  C   LIG    1      -30.626  73.503  31.032  0.00  0.00    +0.120 C 
ATOM     11  N   LIG    1      -31.179  72.930  29.773  0.00  0.00    -0.327 N 
ATOM     12  C   LIG    1      -30.975  71.458  29.619  0.00  0.00    +0.120 C 
ATOM     13  C   LIG    1      -29.642  70.919  30.204  0.00  0.00    +0.103 C 
ENDBRANCH   1  11
BRANCH   4  14
ATOM     14  C   LIG    1      -36.356  74.650  27.773  0.00  0.00    +0.251 C 
ATOM     15  N   LIG    1      -36.369  75.166  26.473  0.00  0.00    -0.264 N 
ATOM     16  H   LIG    1      -35.498  75.324  25.999  0.00  0.00    +0.157 HD
ATOM     17  O   LIG    1      -37.363  74.455  28.487  0.00  0.00    -0.270 OA
BRANCH  15  18
ATOM     18  C   LIG    1      -37.481  75.646  25.804  0.00  0.00    +0.155 A 
ATOM     19  C   LIG    1      -38.565  74.839  25.265  0.00  0.00    +0.042 A 
ATOM     20  C   LIG    1      -38.933  73.466  25.211  0.00  0.00    +0.017 A 
ATOM     21  C   LIG    1      -40.062  73.066  24.448  0.00  0.00    -0.042 A 
ATOM     22  C   LIG    1      -40.817  74.050  23.786  0.00  0.00    +0.006 A 
ATOM     23  C   LIG    1      -40.494  75.401  23.847  0.00  0.00    +0.028 A 
ATOM     24  C   LIG    1      -39.371  75.753  24.591  0.00  0.00    +0.068 A 
ATOM     25  N   LIG    1      -38.800  76.972  24.802  0.00  0.00    -0.275 N 
ATOM     26  H   LIG    1      -39.110  77.867  24.444  0.00  0.00    +0.189 HD
ATOM     27  N   LIG    1      -37.685  76.936  25.530  0.00  0.00    -0.157 NA
BRANCH  21  28
ATOM     28  C   LIG    1      -40.473  71.600  24.349  0.00  0.00    +0.070 C 
BRANCH  28  29
ATOM     29  C   LIG    1      -39.298  70.639  24.242  0.00  0.00    -0.038 A 
ATOM     30  C   LIG    1      -38.725  70.329  22.995  0.00  0.00    +0.042 A 
ATOM     31  C   LIG    1      -37.548  69.582  22.931  0.00  0.00    +0.126 A 
ATOM     32  F   LIG    1      -36.987  69.341  21.739  0.00  0.00    -0.205 F 
ATOM     33  C   LIG    1      -36.929  69.117  24.082  0.00  0.00    +0.076 A 
ATOM     34  C   LIG    1      -37.503  69.409  25.311  0.00  0.00    +0.126 A 
ATOM     35  F   LIG    1      -36.908  68.983  26.433  0.00  0.00    -0.205 F 
ATOM     36  C   LIG    1      -38.672  70.163  25.403  0.00  0.00    +0.042 A 
ENDBRANCH  28  29
ENDBRANCH  21  28
ENDBRANCH  15  18
ENDBRANCH   4  14
BRANCH   3  37
ATOM     37  N   LIG    1      -33.821  76.621  28.009  0.00  0.00    -0.324 N 
BRANCH  37  38
ATOM     38  C   LIG    1      -34.018  77.821  28.918  0.00  0.00    +0.078 C 
ATOM     39  C   LIG    1      -34.692  77.476  30.261  0.00  0.00    +0.050 C 
ATOM     40  C   LIG    1      -36.210  77.571  30.265  0.00  0.00    +0.161 C 
ATOM     41  O   LIG    1      -36.670  78.810  29.735  0.00  0.00    -0.380 OA
ATOM     42  C   LIG    1      -36.198  79.078  28.422  0.00  0.00    +0.161 C 
ATOM     43  C   LIG    1      -34.680  79.088  28.357  0.00  0.00    +0.050 C 
ENDBRANCH  37  38
BRANCH  37  44
ATOM     44  C   LIG    1      -33.235  76.943  26.674  0.00  0.00    +0.133 C 
BRANCH  44  45
ATOM     45  C   LIG    1      -32.096  77.970  26.679  0.00  0.00    +0.174 C 
BRANCH  45  46
ATOM     46  O   LIG    1      -32.216  78.910  25.611  0.00  0.00    -0.393 OA
ATOM     47  H   LIG    1      -31.590  78.628  24.921  0.00  0.00    +0.209 HD
ENDBRANCH  45  46
ENDBRANCH  44  45
ENDBRANCH  37  44
ENDBRANCH   3  37
TORSDOF 10
ENDMDL
MODEL 4
REMARK VINA RESULT:      -5.7     16.761     20.597
REMARK  Name = modded_pdb/CHEMBL1983268_nitrogen_modded_with_ethanol_version_2.pdb
REMARK                            x       y       z     vdW  Elec       q    Type
REMARK                         _______ _______ _______ _____ _____    ______ ____
ROOT
ATOM      1  C   LIG    1      -42.880  74.098  22.595  0.00  0.00    +0.032 A 
ATOM      2  C   LIG    1      -41.913  74.905  23.233  0.00  0.00    +0.047 A 
ATOM      3  C   LIG    1      -40.884  74.442  24.132  0.00  0.00    +0.044 A 
ATOM      4  C   LIG    1      -40.642  73.042  24.110  0.00  0.00    +0.058 A 
ATOM      5  C   LIG    1      -41.517  72.231  23.368  0.00  0.00    +0.017 A 
ATOM      6  C   LIG    1      -42.606  72.737  22.650  0.00  0.00    +0.024 A 
ENDROOT
BRANCH   1  11
ATOM      7  C   LIG    1      -44.451  76.011  18.669  0.00  0.00    +0.105 C 
ATOM      8  N   LIG    1      -45.528  75.867  19.651  0.00  0.00    -0.302 NA
ATOM      9  C   LIG    1      -45.245  76.602  20.896  0.00  0.00    +0.103 C 
ATOM     10  C   LIG    1      -44.038  76.084  21.707  0.00  0.00    +0.120 C 
ATOM     11  N   LIG    1      -44.042  74.615  21.954  0.00  0.00    -0.327 N 
ATOM     12  C   LIG    1      -44.577  73.797  20.825  0.00  0.00    +0.120 C 
ATOM     13  C   LIG    1      -45.735  74.459  20.031  0.00  0.00    +0.103 C 
ENDBRANCH   1  11
BRANCH   4  14
ATOM     14  C   LIG    1      -39.611  72.261  24.886  0.00  0.00    +0.251 C 
ATOM     15  N   LIG    1      -38.334  72.213  24.318  0.00  0.00    -0.264 N 
ATOM     16  H   LIG    1      -38.161  72.701  23.457  0.00  0.00    +0.157 HD
ATOM     17  O   LIG    1      -39.968  71.660  25.922  0.00  0.00    -0.270 OA
BRANCH  15  18
ATOM     18  C   LIG    1      -37.288  71.413  24.745  0.00  0.00    +0.155 A 
ATOM     19  C   LIG    1      -36.521  71.595  25.967  0.00  0.00    +0.042 A 
ATOM     20  C   LIG    1      -36.506  72.475  27.084  0.00  0.00    +0.017 A 
ATOM     21  C   LIG    1      -35.467  72.379  28.047  0.00  0.00    -0.042 A 
ATOM     22  C   LIG    1      -34.488  71.384  27.891  0.00  0.00    +0.006 A 
ATOM     23  C   LIG    1      -34.496  70.492  26.824  0.00  0.00    +0.028 A 
ATOM     24  C   LIG    1      -35.521  70.628  25.892  0.00  0.00    +0.068 A 
ATOM     25  N   LIG    1      -35.767  69.935  24.744  0.00  0.00    -0.275 N 
ATOM     26  H   LIG    1      -35.228  69.168  24.362  0.00  0.00    +0.189 HD
ATOM     27  N   LIG    1      -36.818  70.374  24.054  0.00  0.00    -0.157 NA
BRANCH  21  28
ATOM     28  C   LIG    1      -35.407  73.323  29.245  0.00  0.00    +0.070 C 
BRANCH  28  29
ATOM     29  C   LIG    1      -35.102  74.766  28.875  0.00  0.00    -0.038 A 
ATOM     30  C   LIG    1      -35.679  75.835  29.584  0.00  0.00    +0.042 A 
ATOM     31  C   LIG    1      -35.260  77.144  29.343  0.00  0.00    +0.126 A 
ATOM     32  F   LIG    1      -35.782  78.144  30.064  0.00  0.00    -0.205 F 
ATOM     33  C   LIG    1      -34.287  77.423  28.395  0.00  0.00    +0.076 A 
ATOM     34  C   LIG    1      -33.730  76.371  27.684  0.00  0.00    +0.126 A 
ATOM     35  F   LIG    1      -32.775  76.620  26.778  0.00  0.00    -0.205 F 
ATOM     36  C   LIG    1      -34.121  75.053  27.914  0.00  0.00    +0.042 A 
ENDBRANCH  28  29
ENDBRANCH  21  28
ENDBRANCH  15  18
ENDBRANCH   4  14
BRANCH   3  37
ATOM     37  N   LIG    1      -40.285  75.409  24.949  0.00  0.00    -0.324 N 
BRANCH  37  38
ATOM     38  C   LIG    1      -39.107  76.241  24.476  0.00  0.00    +0.078 C 
ATOM     39  C   LIG    1      -37.736  75.645  24.856  0.00  0.00    +0.050 C 
ATOM     40  C   LIG    1      -37.177  76.113  26.190  0.00  0.00    +0.161 C 
ATOM     41  O   LIG    1      -37.199  77.531  26.314  0.00  0.00    -0.380 OA
ATOM     42  C   LIG    1      -38.490  78.098  26.135  0.00  0.00    +0.161 C 
ATOM     43  C   LIG    1      -39.080  77.746  24.779  0.00  0.00    +0.050 C 
ENDBRANCH  37  38
BRANCH  37  44
ATOM     44  C   LIG    1      -40.934  75.906  26.199  0.00  0.00    +0.133 C 
BRANCH  44  45
ATOM     45  C   LIG    1      -41.049  74.887  27.338  0.00  0.00    +0.174 C 
BRANCH  45  46
ATOM     46  O   LIG    1      -39.810  74.225  27.595  0.00  0.00    -0.393 OA
ATOM     47  H   LIG    1      -40.031  73.329  27.901  0.00  0.00    +0.209 HD
ENDBRANCH  45  46
ENDBRANCH  44  45
ENDBRANCH  37  44
ENDBRANCH   3  37
TORSDOF 10
ENDMDL
MODEL 5
REMARK VINA RESULT:      -5.7      4.319      9.637
REMARK  Name = modded_pdb/CHEMBL1983268_nitrogen_modded_with_ethanol_version_2.pdb
REMARK                            x       y       z     vdW  Elec       q    Type
REMARK                         _______ _______ _______ _____ _____    ______ ____
ROOT
ATOM      1  C   LIG    1      -25.511  72.709  31.303  0.00  0.00    +0.032 A 
ATOM      2  C   LIG    1      -24.373  73.526  31.482  0.00  0.00    +0.047 A 
ATOM      3  C   LIG    1      -24.380  74.903  31.911  0.00  0.00    +0.044 A 
ATOM      4  C   LIG    1      -25.595  75.353  32.496  0.00  0.00    +0.058 A 
ATOM      5  C   LIG    1      -26.708  74.497  32.447  0.00  0.00    +0.017 A 
ATOM      6  C   LIG    1      -26.674  73.229  31.858  0.00  0.00    +0.024 A 
ENDROOT
BRANCH   1  11
ATOM      7  C   LIG    1      -24.101  68.296  31.581  0.00  0.00    +0.105 C 
ATOM      8  N   LIG    1      -24.789  68.548  30.313  0.00  0.00    -0.302 NA
ATOM      9  C   LIG    1      -24.126  69.599  29.523  0.00  0.00    +0.103 C 
ATOM     10  C   LIG    1      -24.146  71.009  30.153  0.00  0.00    +0.120 C 
ATOM     11  N   LIG    1      -25.489  71.465  30.611  0.00  0.00    -0.327 N 
ATOM     12  C   LIG    1      -26.346  70.386  31.188  0.00  0.00    +0.120 C 
ATOM     13  C   LIG    1      -26.178  68.993  30.524  0.00  0.00    +0.103 C 
ENDBRANCH   1  11
BRANCH   4  14
ATOM     14  C   LIG    1      -25.903  76.707  33.082  0.00  0.00    +0.251 C 
ATOM     15  N   LIG    1      -25.529  76.889  34.417  0.00  0.00    -0.264 N 
ATOM     16  H   LIG    1      -25.070  76.140  34.905  0.00  0.00    +0.157 HD
ATOM     17  O   LIG    1      -26.521  77.538  32.382  0.00  0.00    -0.270 OA
BRANCH  15  18
ATOM     18  C   LIG    1      -25.873  77.967  35.214  0.00  0.00    +0.155 A 
ATOM     19  C   LIG    1      -25.071  79.163  35.421  0.00  0.00    +0.042 A 
ATOM     20  C   LIG    1      -23.831  79.694  34.971  0.00  0.00    +0.017 A 
ATOM     21  C   LIG    1      -23.330  80.897  35.535  0.00  0.00    -0.042 A 
ATOM     22  C   LIG    1      -24.096  81.560  36.509  0.00  0.00    +0.006 A 
ATOM     23  C   LIG    1      -25.325  81.077  36.945  0.00  0.00    +0.028 A 
ATOM     24  C   LIG    1      -25.775  79.886  36.381  0.00  0.00    +0.068 A 
ATOM     25  N   LIG    1      -26.904  79.164  36.630  0.00  0.00    -0.275 N 
ATOM     26  H   LIG    1      -27.641  79.383  37.289  0.00  0.00    +0.189 HD
ATOM     27  N   LIG    1      -26.991  78.028  35.939  0.00  0.00    -0.157 NA
BRANCH  21  28
ATOM     28  C   LIG    1      -21.993  81.484  35.092  0.00  0.00    +0.070 C 
BRANCH  28  29
ATOM     29  C   LIG    1      -20.819  81.061  35.962  0.00  0.00    -0.038 A 
ATOM     30  C   LIG    1      -20.546  81.710  37.180  0.00  0.00    +0.042 A 
ATOM     31  C   LIG    1      -19.574  81.203  38.043  0.00  0.00    +0.126 A 
ATOM     32  F   LIG    1      -19.365  81.803  39.222  0.00  0.00    -0.205 F 
ATOM     33  C   LIG    1      -18.846  80.068  37.717  0.00  0.00    +0.076 A 
ATOM     34  C   LIG    1      -19.103  79.438  36.508  0.00  0.00    +0.126 A 
ATOM     35  F   LIG    1      -18.422  78.330  36.186  0.00  0.00    -0.205 F 
ATOM     36  C   LIG    1      -20.078  79.916  35.634  0.00  0.00    +0.042 A 
ENDBRANCH  28  29
ENDBRANCH  21  28
ENDBRANCH  15  18
ENDBRANCH   4  14
BRANCH   3  37
ATOM     37  N   LIG    1      -23.218  75.643  31.660  0.00  0.00    -0.324 N 
BRANCH  37  38
ATOM     38  C   LIG    1      -22.021  75.600  32.592  0.00  0.00    +0.078 C 
ATOM     39  C   LIG    1      -21.892  76.848  33.490  0.00  0.00    +0.050 C 
ATOM     40  C   LIG    1      -21.052  77.975  32.911  0.00  0.00    +0.161 C 
ATOM     41  O   LIG    1      -19.788  77.517  32.443  0.00  0.00    -0.380 OA
ATOM     42  C   LIG    1      -19.880  76.475  31.481  0.00  0.00    +0.161 C 
ATOM     43  C   LIG    1      -20.634  75.271  32.022  0.00  0.00    +0.050 C 
ENDBRANCH  37  38
BRANCH  37  44
ATOM     44  C   LIG    1      -22.947  76.269  30.331  0.00  0.00    +0.133 C 
BRANCH  44  45
ATOM     45  C   LIG    1      -23.644  77.610  30.074  0.00  0.00    +0.174 C 
BRANCH  45  46
ATOM     46  O   LIG    1      -23.175  78.240  28.883  0.00  0.00    -0.393 OA
ATOM     47  H   LIG    1      -22.204  78.185  28.901  0.00  0.00    +0.209 HD
ENDBRANCH  45  46
ENDBRANCH  44  45
ENDBRANCH  37  44
ENDBRANCH   3  37
TORSDOF 10
ENDMDL
MODEL 6
REMARK VINA RESULT:      -5.7      4.147      9.311
REMARK  Name = modded_pdb/CHEMBL1983268_nitrogen_modded_with_ethanol_version_2.pdb
REMARK                            x       y       z     vdW  Elec       q    Type
REMARK                         _______ _______ _______ _____ _____    ______ ____
ROOT
ATOM      1  C   LIG    1      -24.404  72.736  31.588  0.00  0.00    +0.032 A 
ATOM      2  C   LIG    1      -23.649  73.918  31.414  0.00  0.00    +0.047 A 
ATOM      3  C   LIG    1      -23.726  75.099  32.237  0.00  0.00    +0.044 A 
ATOM      4  C   LIG    1      -24.374  74.928  33.490  0.00  0.00    +0.058 A 
ATOM      5  C   LIG    1      -25.020  73.705  33.738  0.00  0.00    +0.017 A 
ATOM      6  C   LIG    1      -25.049  72.654  32.816  0.00  0.00    +0.024 A 
ENDROOT
BRANCH   1  11
ATOM      7  C   LIG    1      -24.890  68.162  30.973  0.00  0.00    +0.105 C 
ATOM      8  N   LIG    1      -24.813  68.859  29.688  0.00  0.00    -0.302 NA
ATOM      9  C   LIG    1      -23.551  69.604  29.535  0.00  0.00    +0.103 C 
ATOM     10  C   LIG    1      -23.356  70.779  30.518  0.00  0.00    +0.120 C 
ATOM     11  N   LIG    1      -24.512  71.716  30.601  0.00  0.00    -0.327 N 
ATOM     12  C   LIG    1      -25.850  71.062  30.489  0.00  0.00    +0.120 C 
ATOM     13  C   LIG    1      -25.902  69.840  29.533  0.00  0.00    +0.103 C 
ENDBRANCH   1  11
BRANCH   4  14
ATOM     14  C   LIG    1      -24.572  75.945  34.585  0.00  0.00    +0.251 C 
ATOM     15  N   LIG    1      -25.582  76.886  34.364  0.00  0.00    -0.264 N 
ATOM     16  H   LIG    1      -26.126  76.833  33.521  0.00  0.00    +0.157 HD
ATOM     17  O   LIG    1      -23.795  75.931  35.565  0.00  0.00    -0.270 OA
BRANCH  15  18
ATOM     18  C   LIG    1      -25.820  78.014  35.131  0.00  0.00    +0.155 A 
ATOM     19  C   LIG    1      -24.927  79.152  35.271  0.00  0.00    +0.042 A 
ATOM     20  C   LIG    1      -23.665  79.574  34.767  0.00  0.00    +0.017 A 
ATOM     21  C   LIG    1      -23.059  80.754  35.273  0.00  0.00    -0.042 A 
ATOM     22  C   LIG    1      -23.744  81.506  36.243  0.00  0.00    +0.006 A 
ATOM     23  C   LIG    1      -24.991  81.130  36.732  0.00  0.00    +0.028 A 
ATOM     24  C   LIG    1      -25.544  79.959  36.224  0.00  0.00    +0.068 A 
ATOM     25  N   LIG    1      -26.716  79.332  36.530  0.00  0.00    -0.275 N 
ATOM     26  H   LIG    1      -27.414  79.627  37.202  0.00  0.00    +0.189 HD
ATOM     27  N   LIG    1      -26.908  78.183  35.884  0.00  0.00    -0.157 NA
BRANCH  21  28
ATOM     28  C   LIG    1      -21.696  81.224  34.771  0.00  0.00    +0.070 C 
BRANCH  28  29
ATOM     29  C   LIG    1      -20.570  80.238  35.044  0.00  0.00    -0.038 A 
ATOM     30  C   LIG    1      -20.034  79.444  34.014  0.00  0.00    +0.042 A 
ATOM     31  C   LIG    1      -18.894  78.673  34.245  0.00  0.00    +0.126 A 
ATOM     32  F   LIG    1      -18.367  77.964  33.238  0.00  0.00    -0.205 F 
ATOM     33  C   LIG    1      -18.277  78.656  35.487  0.00  0.00    +0.076 A 
ATOM     34  C   LIG    1      -18.815  79.427  36.507  0.00  0.00    +0.126 A 
ATOM     35  F   LIG    1      -18.221  79.437  37.708  0.00  0.00    -0.205 F 
ATOM     36  C   LIG    1      -19.946  80.216  36.300  0.00  0.00    +0.042 A 
ENDBRANCH  28  29
ENDBRANCH  21  28
ENDBRANCH  15  18
ENDBRANCH   4  14
BRANCH   3  37
ATOM     37  N   LIG    1      -23.202  76.278  31.690  0.00  0.00    -0.324 N 
BRANCH  37  38
ATOM     38  C   LIG    1      -21.832  76.804  32.078  0.00  0.00    +0.078 C 
ATOM     39  C   LIG    1      -21.108  77.545  30.936  0.00  0.00    +0.050 C 
ATOM     40  C   LIG    1      -20.221  76.673  30.061  0.00  0.00    +0.161 C 
ATOM     41  O   LIG    1      -19.332  75.871  30.830  0.00  0.00    -0.380 OA
ATOM     42  C   LIG    1      -19.988  75.046  31.782  0.00  0.00    +0.161 C 
ATOM     43  C   LIG    1      -20.828  75.859  32.753  0.00  0.00    +0.050 C 
ENDBRANCH  37  38
BRANCH  37  44
ATOM     44  C   LIG    1      -23.796  76.926  30.483  0.00  0.00    +0.133 C 
BRANCH  44  45
ATOM     45  C   LIG    1      -25.074  77.737  30.724  0.00  0.00    +0.174 C 
BRANCH  45  46
ATOM     46  O   LIG    1      -26.229  76.905  30.822  0.00  0.00    -0.393 OA
ATOM     47  H   LIG    1      -25.989  76.161  31.403  0.00  0.00    +0.209 HD
ENDBRANCH  45  46
ENDBRANCH  44  45
ENDBRANCH  37  44
ENDBRANCH   3  37
TORSDOF 10
ENDMDL
MODEL 7
REMARK VINA RESULT:      -5.7     16.232     19.870
REMARK  Name = modded_pdb/CHEMBL1983268_nitrogen_modded_with_ethanol_version_2.pdb
REMARK                            x       y       z     vdW  Elec       q    Type
REMARK                         _______ _______ _______ _____ _____    ______ ____
ROOT
ATOM      1  C   LIG    1      -35.915  75.874  27.413  0.00  0.00    +0.032 A 
ATOM      2  C   LIG    1      -36.216  74.522  27.691  0.00  0.00    +0.047 A 
ATOM      3  C   LIG    1      -37.457  73.853  27.388  0.00  0.00    +0.044 A 
ATOM      4  C   LIG    1      -38.300  74.523  26.462  0.00  0.00    +0.058 A 
ATOM      5  C   LIG    1      -37.946  75.825  26.067  0.00  0.00    +0.017 A 
ATOM      6  C   LIG    1      -36.805  76.483  26.538  0.00  0.00    +0.024 A 
ENDROOT
BRANCH   1  11
ATOM      7  C   LIG    1      -32.317  78.628  26.408  0.00  0.00    +0.105 C 
ATOM      8  N   LIG    1      -32.370  78.336  27.842  0.00  0.00    -0.302 NA
ATOM      9  C   LIG    1      -32.279  76.892  28.118  0.00  0.00    +0.103 C 
ATOM     10  C   LIG    1      -33.463  76.047  27.603  0.00  0.00    +0.120 C 
ATOM     11  N   LIG    1      -34.808  76.568  27.978  0.00  0.00    -0.327 N 
ATOM     12  C   LIG    1      -34.914  78.058  27.989  0.00  0.00    +0.120 C 
ATOM     13  C   LIG    1      -33.630  78.801  28.448  0.00  0.00    +0.103 C 
ENDBRANCH   1  11
BRANCH   4  14
ATOM     14  C   LIG    1      -39.627  74.068  25.908  0.00  0.00    +0.251 C 
ATOM     15  N   LIG    1      -39.722  74.036  24.514  0.00  0.00    -0.264 N 
ATOM     16  H   LIG    1      -38.923  74.291  23.961  0.00  0.00    +0.157 HD
ATOM     17  O   LIG    1      -40.558  73.822  26.705  0.00  0.00    -0.270 OA
BRANCH  15  18
ATOM     18  C   LIG    1      -40.882  73.834  23.786  0.00  0.00    +0.155 A 
ATOM     19  C   LIG    1      -41.296  72.582  23.172  0.00  0.00    +0.042 A 
ATOM     20  C   LIG    1      -40.820  71.245  23.077  0.00  0.00    +0.017 A 
ATOM     21  C   LIG    1      -41.492  70.313  22.242  0.00  0.00    -0.042 A 
ATOM     22  C   LIG    1      -42.643  70.728  21.550  0.00  0.00    +0.006 A 
ATOM     23  C   LIG    1      -43.144  72.022  21.649  0.00  0.00    +0.028 A 
ATOM     24  C   LIG    1      -42.449  72.911  22.464  0.00  0.00    +0.068 A 
ATOM     25  N   LIG    1      -42.677  74.229  22.726  0.00  0.00    -0.275 N 
ATOM     26  H   LIG    1      -43.424  74.808  22.363  0.00  0.00    +0.189 HD
ATOM     27  N   LIG    1      -41.768  74.795  23.519  0.00  0.00    -0.157 NA
BRANCH  21  28
ATOM     28  C   LIG    1      -40.996  68.877  22.098  0.00  0.00    +0.070 C 
BRANCH  28  29
ATOM     29  C   LIG    1      -39.480  68.751  22.067  0.00  0.00    -0.038 A 
ATOM     30  C   LIG    1      -38.751  68.462  23.235  0.00  0.00    +0.042 A 
ATOM     31  C   LIG    1      -37.386  68.184  23.159  0.00  0.00    +0.126 A 
ATOM     32  F   LIG    1      -36.719  67.859  24.273  0.00  0.00    -0.205 F 
ATOM     33  C   LIG    1      -36.716  68.203  21.944  0.00  0.00    +0.076 A 
ATOM     34  C   LIG    1      -37.432  68.504  20.795  0.00  0.00    +0.126 A 
ATOM     35  F   LIG    1      -36.804  68.508  19.611  0.00  0.00    -0.205 F 
ATOM     36  C   LIG    1      -38.799  68.773  20.841  0.00  0.00    +0.042 A 
ENDBRANCH  28  29
ENDBRANCH  21  28
ENDBRANCH  15  18
ENDBRANCH   4  14
BRANCH   3  37
ATOM     37  N   LIG    1      -37.706  72.656  28.072  0.00  0.00    -0.324 N 
BRANCH  37  38
ATOM     38  C   LIG    1      -37.504  71.301  27.419  0.00  0.00    +0.078 C 
ATOM     39  C   LIG    1      -36.058  70.775  27.521  0.00  0.00    +0.050 C 
ATOM     40  C   LIG    1      -35.149  71.160  26.364  0.00  0.00    +0.161 C 
ATOM     41  O   LIG    1      -35.737  70.872  25.100  0.00  0.00    -0.380 OA
ATOM     42  C   LIG    1      -37.005  71.486  24.910  0.00  0.00    +0.161 C 
ATOM     43  C   LIG    1      -38.000  71.077  25.984  0.00  0.00    +0.050 C 
ENDBRANCH  37  38
BRANCH  37  44
ATOM     44  C   LIG    1      -37.881  72.610  29.554  0.00  0.00    +0.133 C 
BRANCH  44  45
ATOM     45  C   LIG    1      -39.276  72.207  30.046  0.00  0.00    +0.174 C 
BRANCH  45  46
ATOM     46  O   LIG    1      -40.286  72.470  29.073  0.00  0.00    -0.393 OA
ATOM     47  H   LIG    1      -40.980  72.984  29.523  0.00  0.00    +0.209 HD
ENDBRANCH  45  46
ENDBRANCH  44  45
ENDBRANCH  37  44
ENDBRANCH   3  37
TORSDOF 10
ENDMDL
MODEL 8
REMARK VINA RESULT:      -5.6     19.680     22.953
REMARK  Name = modded_pdb/CHEMBL1983268_nitrogen_modded_with_ethanol_version_2.pdb
REMARK                            x       y       z     vdW  Elec       q    Type
REMARK                         _______ _______ _______ _____ _____    ______ ____
ROOT
ATOM      1  C   LIG    1      -24.709  88.316  11.120  0.00  0.00    +0.032 A 
ATOM      2  C   LIG    1      -23.505  88.374  11.856  0.00  0.00    +0.047 A 
ATOM      3  C   LIG    1      -22.875  87.270  12.536  0.00  0.00    +0.044 A 
ATOM      4  C   LIG    1      -23.339  85.980  12.162  0.00  0.00    +0.058 A 
ATOM      5  C   LIG    1      -24.460  85.900  11.318  0.00  0.00    +0.017 A 
ATOM      6  C   LIG    1      -25.131  87.025  10.828  0.00  0.00    +0.024 A 
ENDROOT
BRANCH   1  11
ATOM      7  C   LIG    1      -24.311  92.796   9.974  0.00  0.00    +0.105 C 
ATOM      8  N   LIG    1      -25.706  92.358   9.905  0.00  0.00    -0.302 NA
ATOM      9  C   LIG    1      -26.195  91.857  11.202  0.00  0.00    +0.103 C 
ATOM     10  C   LIG    1      -25.509  90.571  11.711  0.00  0.00    +0.120 C 
ATOM     11  N   LIG    1      -25.442  89.467  10.713  0.00  0.00    -0.327 N 
ATOM     12  C   LIG    1      -25.217  89.915   9.307  0.00  0.00    +0.120 C 
ATOM     13  C   LIG    1      -25.889  91.264   8.936  0.00  0.00    +0.103 C 
ENDBRANCH   1  11
BRANCH   4  14
ATOM     14  C   LIG    1      -22.855  84.636  12.646  0.00  0.00    +0.251 C 
ATOM     15  N   LIG    1      -23.044  84.379  14.007  0.00  0.00    -0.264 N 
ATOM     16  H   LIG    1      -23.497  85.070  14.580  0.00  0.00    +0.157 HD
ATOM     17  O   LIG    1      -22.266  83.884  11.840  0.00  0.00    -0.270 OA
BRANCH  15  18
ATOM     18  C   LIG    1      -22.521  83.307  14.709  0.00  0.00    +0.155 A 
ATOM     19  C   LIG    1      -23.159  82.011  14.885  0.00  0.00    +0.042 A 
ATOM     20  C   LIG    1      -24.355  81.359  14.479  0.00  0.00    +0.017 A 
ATOM     21  C   LIG    1      -24.670  80.073  14.992  0.00  0.00    -0.042 A 
ATOM     22  C   LIG    1      -23.765  79.453  15.871  0.00  0.00    +0.006 A 
ATOM     23  C   LIG    1      -22.575  80.058  16.261  0.00  0.00    +0.028 A 
ATOM     24  C   LIG    1      -22.310  81.325  15.750  0.00  0.00    +0.068 A 
ATOM     25  N   LIG    1      -21.259  82.165  15.976  0.00  0.00    -0.275 N 
ATOM     26  H   LIG    1      -20.458  82.000  16.572  0.00  0.00    +0.189 HD
ATOM     27  N   LIG    1      -21.356  83.341  15.357  0.00  0.00    -0.157 NA
BRANCH  21  28
ATOM     28  C   LIG    1      -25.956  79.354  14.595  0.00  0.00    +0.070 C 
BRANCH  28  29
ATOM     29  C   LIG    1      -25.729  78.126  13.725  0.00  0.00    -0.038 A 
ATOM     30  C   LIG    1      -26.525  76.976  13.870  0.00  0.00    +0.042 A 
ATOM     31  C   LIG    1      -26.416  75.927  12.956  0.00  0.00    +0.126 A 
ATOM     32  F   LIG    1      -27.220  74.863  13.078  0.00  0.00    -0.205 F 
ATOM     33  C   LIG    1      -25.515  75.985  11.902  0.00  0.00    +0.076 A 
ATOM     34  C   LIG    1      -24.718  77.112  11.769  0.00  0.00    +0.126 A 
ATOM     35  F   LIG    1      -23.856  77.192  10.746  0.00  0.00    -0.205 F 
ATOM     36  C   LIG    1      -24.816  78.179  12.661  0.00  0.00    +0.042 A 
ENDBRANCH  28  29
ENDBRANCH  21  28
ENDBRANCH  15  18
ENDBRANCH   4  14
BRANCH   3  37
ATOM     37  N   LIG    1      -21.923  87.594  13.511  0.00  0.00    -0.324 N 
BRANCH  37  38
ATOM     38  C   LIG    1      -20.444  87.692  13.188  0.00  0.00    +0.078 C 
ATOM     39  C   LIG    1      -20.147  87.811  11.679  0.00  0.00    +0.050 C 
ATOM     40  C   LIG    1      -19.935  86.489  10.957  0.00  0.00    +0.161 C 
ATOM     41  O   LIG    1      -18.994  85.658  11.626  0.00  0.00    -0.380 OA
ATOM     42  C   LIG    1      -19.331  85.390  12.980  0.00  0.00    +0.161 C 
ATOM     43  C   LIG    1      -19.473  86.667  13.792  0.00  0.00    +0.050 C 
ENDBRANCH  37  38
BRANCH  37  44
ATOM     44  C   LIG    1      -22.308  88.164  14.837  0.00  0.00    +0.133 C 
BRANCH  44  45
ATOM     45  C   LIG    1      -21.712  87.459  16.061  0.00  0.00    +0.174 C 
BRANCH  45  46
ATOM     46  O   LIG    1      -22.310  86.185  16.292  0.00  0.00    -0.393 OA
ATOM     47  H   LIG    1      -22.495  86.132  17.246  0.00  0.00    +0.209 HD
ENDBRANCH  45  46
ENDBRANCH  44  45
ENDBRANCH  37  44
ENDBRANCH   3  37
TORSDOF 10
ENDMDL
MODEL 9
REMARK VINA RESULT:      -5.5     15.240     19.470
REMARK  Name = modded_pdb/CHEMBL1983268_nitrogen_modded_with_ethanol_version_2.pdb
REMARK                            x       y       z     vdW  Elec       q    Type
REMARK                         _______ _______ _______ _____ _____    ______ ____
ROOT
ATOM      1  C   LIG    1      -39.659  71.976  24.255  0.00  0.00    +0.032 A 
ATOM      2  C   LIG    1      -40.355  73.189  24.061  0.00  0.00    +0.047 A 
ATOM      3  C   LIG    1      -39.929  74.490  24.514  0.00  0.00    +0.044 A 
ATOM      4  C   LIG    1      -38.563  74.585  24.897  0.00  0.00    +0.058 A 
ATOM      5  C   LIG    1      -37.813  73.399  24.967  0.00  0.00    +0.017 A 
ATOM      6  C   LIG    1      -38.344  72.139  24.673  0.00  0.00    +0.024 A 
ENDROOT
BRANCH   1  11
ATOM      7  C   LIG    1      -38.680  67.494  23.549  0.00  0.00    +0.105 C 
ATOM      8  N   LIG    1      -40.127  67.717  23.583  0.00  0.00    -0.302 NA
ATOM      9  C   LIG    1      -40.567  68.660  22.541  0.00  0.00    +0.103 C 
ATOM     10  C   LIG    1      -40.045  70.105  22.697  0.00  0.00    +0.120 C 
ATOM     11  N   LIG    1      -40.240  70.691  24.053  0.00  0.00    -0.327 N 
ATOM     12  C   LIG    1      -40.076  69.722  25.177  0.00  0.00    +0.120 C 
ATOM     13  C   LIG    1      -40.563  68.280  24.872  0.00  0.00    +0.103 C 
ENDBRANCH   1  11
BRANCH   4  14
ATOM     14  C   LIG    1      -37.807  75.803  25.363  0.00  0.00    +0.251 C 
ATOM     15  N   LIG    1      -38.013  76.171  26.696  0.00  0.00    -0.264 N 
ATOM     16  H   LIG    1      -38.621  75.615  27.270  0.00  0.00    +0.157 HD
ATOM     17  O   LIG    1      -37.116  76.434  24.534  0.00  0.00    -0.270 OA
BRANCH  15  18
ATOM     18  C   LIG    1      -37.579  77.344  27.288  0.00  0.00    +0.155 A 
ATOM     19  C   LIG    1      -36.200  77.676  27.611  0.00  0.00    +0.042 A 
ATOM     20  C   LIG    1      -34.912  77.090  27.470  0.00  0.00    +0.017 A 
ATOM     21  C   LIG    1      -33.781  77.718  28.055  0.00  0.00    -0.042 A 
ATOM     22  C   LIG    1      -33.957  78.935  28.736  0.00  0.00    +0.006 A 
ATOM     23  C   LIG    1      -35.202  79.543  28.863  0.00  0.00    +0.028 A 
ATOM     24  C   LIG    1      -36.288  78.889  28.290  0.00  0.00    +0.068 A 
ATOM     25  N   LIG    1      -37.611  79.219  28.281  0.00  0.00    -0.275 N 
ATOM     26  H   LIG    1      -38.045  80.032  28.701  0.00  0.00    +0.189 HD
ATOM     27  N   LIG    1      -38.395  78.324  27.680  0.00  0.00    -0.157 NA
BRANCH  21  28
ATOM     28  C   LIG    1      -32.388  77.105  27.944  0.00  0.00    +0.070 C 
BRANCH  28  29
ATOM     29  C   LIG    1      -32.145  75.953  28.907  0.00  0.00    -0.038 A 
ATOM     30  C   LIG    1      -32.830  74.732  28.766  0.00  0.00    +0.042 A 
ATOM     31  C   LIG    1      -32.474  73.634  29.550  0.00  0.00    +0.126 A 
ATOM     32  F   LIG    1      -33.101  72.465  29.366  0.00  0.00    -0.205 F 
ATOM     33  C   LIG    1      -31.459  73.723  30.491  0.00  0.00    +0.076 A 
ATOM     34  C   LIG    1      -30.795  74.931  30.642  0.00  0.00    +0.126 A 
ATOM     35  F   LIG    1      -29.799  75.029  31.533  0.00  0.00    -0.205 F 
ATOM     36  C   LIG    1      -31.122  76.040  29.862  0.00  0.00    +0.042 A 
ENDBRANCH  28  29
ENDBRANCH  21  28
ENDBRANCH  15  18
ENDBRANCH   4  14
BRANCH   3  37
ATOM     37  N   LIG    1      -40.911  75.487  24.570  0.00  0.00    -0.324 N 
BRANCH  37  38
ATOM     38  C   LIG    1      -41.149  76.447  23.418  0.00  0.00    +0.078 C 
ATOM     39  C   LIG    1      -40.090  77.563  23.316  0.00  0.00    +0.050 C 
ATOM     40  C   LIG    1      -40.418  78.836  24.081  0.00  0.00    +0.161 C 
ATOM     41  O   LIG    1      -41.728  79.311  23.796  0.00  0.00    -0.380 OA
ATOM     42  C   LIG    1      -42.748  78.353  24.044  0.00  0.00    +0.161 C 
ATOM     43  C   LIG    1      -42.536  77.079  23.241  0.00  0.00    +0.050 C 
ENDBRANCH  37  38
BRANCH  37  44
ATOM     44  C   LIG    1      -41.985  75.485  25.608  0.00  0.00    +0.133 C 
BRANCH  44  45
ATOM     45  C   LIG    1      -41.537  75.851  27.028  0.00  0.00    +0.174 C 
BRANCH  45  46
ATOM     46  O   LIG    1      -41.022  77.180  27.104  0.00  0.00    -0.393 OA
ATOM     47  H   LIG    1      -41.450  77.686  26.392  0.00  0.00    +0.209 HD
ENDBRANCH  45  46
ENDBRANCH  44  45
ENDBRANCH  37  44
ENDBRANCH   3  37
TORSDOF 10
ENDMDL
