MODEL 1
REMARK VINA RESULT:      -5.7      0.000      0.000
REMARK  Name = pdb/CHEMBL3659497.pdb
REMARK                            x       y       z     vdW  Elec       q    Type
REMARK                         _______ _______ _______ _____ _____    ______ ____
ROOT
ATOM      1  N   LIG    1      -39.952  78.457  24.142  0.00  0.00    -0.266 N 
ATOM      2  C   LIG    1      -39.173  77.402  24.590  0.00  0.00    +0.168 A 
ATOM      3  N   LIG    1      -37.946  77.437  25.161  0.00  0.00    -0.213 NA
ATOM      4  C   LIG    1      -37.409  76.224  25.418  0.00  0.00    +0.122 A 
ATOM      5  C   LIG    1      -38.064  75.022  25.123  0.00  0.00    +0.046 A 
ATOM      6  C   LIG    1      -39.342  75.022  24.555  0.00  0.00    +0.035 A 
ATOM      7  C   LIG    1      -39.917  76.265  24.291  0.00  0.00    +0.108 A 
ATOM      8  N   LIG    1      -41.137  76.580  23.762  0.00  0.00    -0.234 NA
ATOM      9  C   LIG    1      -41.135  77.894  23.700  0.00  0.00    +0.207 A 
ENDROOT
BRANCH   1  14
ATOM     10  C   LIG    1      -39.138  81.947  24.568  0.00  0.00    +0.213 A 
ATOM     11  N   LIG    1      -39.071  81.680  23.227  0.00  0.00    -0.245 N 
ATOM     12  H   LIG    1      -38.831  82.331  22.486  0.00  0.00    +0.192 HD
ATOM     13  N   LIG    1      -39.408  80.415  22.898  0.00  0.00    -0.153 NA
ATOM     14  C   LIG    1      -39.626  79.840  24.091  0.00  0.00    +0.165 A 
ATOM     15  C   LIG    1      -39.464  80.739  25.161  0.00  0.00    +0.115 A 
BRANCH  10  16
ATOM     16  O   LIG    1      -38.887  83.173  25.016  0.00  0.00    -0.474 OA
BRANCH  16  18
ATOM     17  C   LIG    1      -37.697  85.266  24.593  0.00  0.00    +0.051 C 
ATOM     18  C   LIG    1      -37.622  83.743  24.648  0.00  0.00    +0.169 C 
ATOM     19  C   LIG    1      -36.614  83.323  25.716  0.00  0.00    +0.051 C 
ENDBRANCH  16  18
ENDBRANCH  10  16
ENDBRANCH   1  14
BRANCH   4  20
ATOM     20  N   LIG    1      -36.176  76.117  26.080  0.00  0.00    -0.319 N 
ATOM     21  H   LIG    1      -35.451  76.634  25.581  0.00  0.00    +0.148 HD
BRANCH  20  22
ATOM     22  C   LIG    1      -36.134  76.436  27.518  0.00  0.00    +0.136 C 
ATOM     23  C   LIG    1      -35.187  75.446  28.197  0.00  0.00    +0.036 C 
BRANCH  22  24
ATOM     24  C   LIG    1      -35.677  77.879  27.774  0.00  0.00    +0.149 A 
ATOM     25  N   LIG    1      -34.368  78.191  27.584  0.00  0.00    -0.236 NA
ATOM     26  C   LIG    1      -34.026  79.487  27.788  0.00  0.00    +0.152 A 
ATOM     27  C   LIG    1      -34.921  80.457  28.165  0.00  0.00    +0.159 A 
ATOM     28  F   LIG    1      -34.555  81.730  28.347  0.00  0.00    -0.202 F 
ATOM     29  C   LIG    1      -36.218  80.044  28.341  0.00  0.00    +0.152 A 
ATOM     30  N   LIG    1      -36.623  78.769  28.162  0.00  0.00    -0.236 NA
ENDBRANCH  22  24
ENDBRANCH  20  22
ENDBRANCH   4  20
TORSDOF 6
ENDMDL
MODEL 2
REMARK VINA RESULT:      -5.7     13.403     17.456
REMARK  Name = pdb/CHEMBL3659497.pdb
REMARK                            x       y       z     vdW  Elec       q    Type
REMARK                         _______ _______ _______ _____ _____    ______ ____
ROOT
ATOM      1  N   LIG    1      -21.770  77.226  30.589  0.00  0.00    -0.266 N 
ATOM      2  C   LIG    1      -20.902  77.749  31.534  0.00  0.00    +0.168 A 
ATOM      3  N   LIG    1      -21.194  78.394  32.688  0.00  0.00    -0.213 NA
ATOM      4  C   LIG    1      -20.118  78.858  33.362  0.00  0.00    +0.122 A 
ATOM      5  C   LIG    1      -18.803  78.686  32.911  0.00  0.00    +0.046 A 
ATOM      6  C   LIG    1      -18.536  77.992  31.727  0.00  0.00    +0.035 A 
ATOM      7  C   LIG    1      -19.633  77.498  31.022  0.00  0.00    +0.108 A 
ATOM      8  N   LIG    1      -19.687  76.781  29.859  0.00  0.00    -0.234 NA
ATOM      9  C   LIG    1      -20.973  76.621  29.635  0.00  0.00    +0.207 A 
ENDROOT
BRANCH   1  14
ATOM     10  C   LIG    1      -25.363  77.010  30.842  0.00  0.00    +0.213 A 
ATOM     11  N   LIG    1      -25.081  78.098  30.061  0.00  0.00    -0.245 N 
ATOM     12  H   LIG    1      -25.749  78.735  29.636  0.00  0.00    +0.192 HD
ATOM     13  N   LIG    1      -23.765  78.282  29.825  0.00  0.00    -0.153 NA
ATOM     14  C   LIG    1      -23.189  77.309  30.548  0.00  0.00    +0.165 A 
ATOM     15  C   LIG    1      -24.130  76.496  31.206  0.00  0.00    +0.115 A 
BRANCH  10  16
ATOM     16  O   LIG    1      -26.627  76.685  31.100  0.00  0.00    -0.474 OA
BRANCH  16  18
ATOM     17  C   LIG    1      -28.049  76.834  33.083  0.00  0.00    +0.051 C 
ATOM     18  C   LIG    1      -26.891  76.120  32.392  0.00  0.00    +0.169 C 
ATOM     19  C   LIG    1      -27.258  74.653  32.173  0.00  0.00    +0.051 C 
ENDBRANCH  16  18
ENDBRANCH  10  16
ENDBRANCH   1  14
BRANCH   4  20
ATOM     20  N   LIG    1      -20.273  79.477  34.612  0.00  0.00    -0.319 N 
ATOM     21  H   LIG    1      -20.266  80.493  34.517  0.00  0.00    +0.148 HD
BRANCH  20  22
ATOM     22  C   LIG    1      -21.402  79.051  35.457  0.00  0.00    +0.136 C 
ATOM     23  C   LIG    1      -20.833  78.367  36.702  0.00  0.00    +0.036 C 
BRANCH  22  24
ATOM     24  C   LIG    1      -22.300  80.230  35.856  0.00  0.00    +0.149 A 
ATOM     25  N   LIG    1      -21.719  81.427  36.133  0.00  0.00    -0.236 NA
ATOM     26  C   LIG    1      -22.560  82.444  36.444  0.00  0.00    +0.152 A 
ATOM     27  C   LIG    1      -23.926  82.312  36.485  0.00  0.00    +0.159 A 
ATOM     28  F   LIG    1      -24.731  83.337  36.782  0.00  0.00    -0.202 F 
ATOM     29  C   LIG    1      -24.419  81.064  36.198  0.00  0.00    +0.152 A 
ATOM     30  N   LIG    1      -23.637  80.007  35.890  0.00  0.00    -0.236 NA
ENDBRANCH  22  24
ENDBRANCH  20  22
ENDBRANCH   4  20
TORSDOF 6
ENDMDL
MODEL 3
REMARK VINA RESULT:      -5.6      1.818      2.161
REMARK  Name = pdb/CHEMBL3659497.pdb
REMARK                            x       y       z     vdW  Elec       q    Type
REMARK                         _______ _______ _______ _____ _____    ______ ____
ROOT
ATOM      1  N   LIG    1      -40.014  78.460  24.078  0.00  0.00    -0.266 N 
ATOM      2  C   LIG    1      -39.263  77.387  24.532  0.00  0.00    +0.168 A 
ATOM      3  N   LIG    1      -38.045  77.395  25.123  0.00  0.00    -0.213 NA
ATOM      4  C   LIG    1      -37.535  76.170  25.380  0.00  0.00    +0.122 A 
ATOM      5  C   LIG    1      -38.208  74.983  25.065  0.00  0.00    +0.046 A 
ATOM      6  C   LIG    1      -39.476  75.011  24.476  0.00  0.00    +0.035 A 
ATOM      7  C   LIG    1      -40.022  76.266  24.212  0.00  0.00    +0.108 A 
ATOM      8  N   LIG    1      -41.228  76.609  23.665  0.00  0.00    -0.234 NA
ATOM      9  C   LIG    1      -41.200  77.923  23.613  0.00  0.00    +0.207 A 
ENDROOT
BRANCH   1  14
ATOM     10  C   LIG    1      -39.132  81.928  24.544  0.00  0.00    +0.213 A 
ATOM     11  N   LIG    1      -39.072  81.676  23.200  0.00  0.00    -0.245 N 
ATOM     12  H   LIG    1      -38.820  82.331  22.466  0.00  0.00    +0.192 HD
ATOM     13  N   LIG    1      -39.433  80.421  22.856  0.00  0.00    -0.153 NA
ATOM     14  C   LIG    1      -39.661  79.837  24.043  0.00  0.00    +0.165 A 
ATOM     15  C   LIG    1      -39.481  80.720  25.123  0.00  0.00    +0.115 A 
BRANCH  10  16
ATOM     16  O   LIG    1      -38.857  83.144  25.006  0.00  0.00    -0.474 OA
BRANCH  16  18
ATOM     17  C   LIG    1      -38.206  85.295  24.043  0.00  0.00    +0.051 C 
ATOM     18  C   LIG    1      -37.800  83.856  24.346  0.00  0.00    +0.169 C 
ATOM     19  C   LIG    1      -36.600  83.856  25.292  0.00  0.00    +0.051 C 
ENDBRANCH  16  18
ENDBRANCH  10  16
ENDBRANCH   1  14
BRANCH   4  20
ATOM     20  N   LIG    1      -36.315  76.035  26.062  0.00  0.00    -0.319 N 
ATOM     21  H   LIG    1      -35.528  76.154  25.423  0.00  0.00    +0.148 HD
BRANCH  20  22
ATOM     22  C   LIG    1      -36.112  76.841  27.278  0.00  0.00    +0.136 C 
ATOM     23  C   LIG    1      -37.103  76.357  28.339  0.00  0.00    +0.036 C 
BRANCH  22  24
ATOM     24  C   LIG    1      -34.673  76.740  27.802  0.00  0.00    +0.149 A 
ATOM     25  N   LIG    1      -34.420  75.923  28.859  0.00  0.00    -0.236 NA
ATOM     26  C   LIG    1      -33.127  75.842  29.257  0.00  0.00    +0.152 A 
ATOM     27  C   LIG    1      -32.103  76.529  28.652  0.00  0.00    +0.159 A 
ATOM     28  F   LIG    1      -30.835  76.419  29.061  0.00  0.00    -0.202 F 
ATOM     29  C   LIG    1      -32.458  77.334  27.600  0.00  0.00    +0.152 A 
ATOM     30  N   LIG    1      -33.727  77.466  27.158  0.00  0.00    -0.236 NA
ENDBRANCH  22  24
ENDBRANCH  20  22
ENDBRANCH   4  20
TORSDOF 6
ENDMDL
MODEL 4
REMARK VINA RESULT:      -5.5     13.999     17.209
REMARK  Name = pdb/CHEMBL3659497.pdb
REMARK                            x       y       z     vdW  Elec       q    Type
REMARK                         _______ _______ _______ _____ _____    ______ ____
ROOT
ATOM      1  N   LIG    1      -25.456  77.338  32.140  0.00  0.00    -0.266 N 
ATOM      2  C   LIG    1      -25.391  77.865  33.420  0.00  0.00    +0.168 A 
ATOM      3  N   LIG    1      -24.404  78.599  33.985  0.00  0.00    -0.213 NA
ATOM      4  C   LIG    1      -24.601  78.901  35.288  0.00  0.00    +0.122 A 
ATOM      5  C   LIG    1      -25.734  78.492  36.002  0.00  0.00    +0.046 A 
ATOM      6  C   LIG    1      -26.746  77.754  35.381  0.00  0.00    +0.035 A 
ATOM      7  C   LIG    1      -26.566  77.442  34.035  0.00  0.00    +0.108 A 
ATOM      8  N   LIG    1      -27.373  76.758  33.170  0.00  0.00    -0.234 NA
ATOM      9  C   LIG    1      -26.692  76.725  32.045  0.00  0.00    +0.207 A 
ENDROOT
BRANCH   1  14
ATOM     10  C   LIG    1      -22.750  76.935  29.788  0.00  0.00    +0.213 A 
ATOM     11  N   LIG    1      -23.492  78.005  29.366  0.00  0.00    -0.245 N 
ATOM     12  H   LIG    1      -23.326  78.578  28.544  0.00  0.00    +0.192 HD
ATOM     13  N   LIG    1      -24.520  78.320  30.182  0.00  0.00    -0.153 NA
ATOM     14  C   LIG    1      -24.466  77.362  31.120  0.00  0.00    +0.165 A 
ATOM     15  C   LIG    1      -23.395  76.472  30.922  0.00  0.00    +0.115 A 
BRANCH  10  16
ATOM     16  O   LIG    1      -21.673  76.560  29.103  0.00  0.00    -0.474 OA
BRANCH  16  18
ATOM     17  C   LIG    1      -20.429  78.079  30.560  0.00  0.00    +0.051 C 
ATOM     18  C   LIG    1      -20.402  76.802  29.725  0.00  0.00    +0.169 C 
ATOM     19  C   LIG    1      -20.112  75.607  30.632  0.00  0.00    +0.051 C 
ENDBRANCH  16  18
ENDBRANCH  10  16
ENDBRANCH   1  14
BRANCH   4  20
ATOM     20  N   LIG    1      -23.693  79.723  35.974  0.00  0.00    -0.319 N 
ATOM     21  H   LIG    1      -23.173  79.187  36.670  0.00  0.00    +0.148 HD
BRANCH  20  22
ATOM     22  C   LIG    1      -22.773  80.551  35.175  0.00  0.00    +0.136 C 
ATOM     23  C   LIG    1      -22.869  81.991  35.682  0.00  0.00    +0.036 C 
BRANCH  22  24
ATOM     24  C   LIG    1      -21.326  80.048  35.258  0.00  0.00    +0.149 A 
ATOM     25  N   LIG    1      -20.611  80.301  36.387  0.00  0.00    -0.236 NA
ATOM     26  C   LIG    1      -19.351  79.802  36.423  0.00  0.00    +0.152 A 
ATOM     27  C   LIG    1      -18.794  79.077  35.399  0.00  0.00    +0.159 A 
ATOM     28  F   LIG    1      -17.551  78.588  35.470  0.00  0.00    -0.202 F 
ATOM     29  C   LIG    1      -19.588  78.880  34.298  0.00  0.00    +0.152 A 
ATOM     30  N   LIG    1      -20.848  79.357  34.194  0.00  0.00    -0.236 NA
ENDBRANCH  22  24
ENDBRANCH  20  22
ENDBRANCH   4  20
TORSDOF 6
ENDMDL
MODEL 5
REMARK VINA RESULT:      -5.3     14.613     18.484
REMARK  Name = pdb/CHEMBL3659497.pdb
REMARK                            x       y       z     vdW  Elec       q    Type
REMARK                         _______ _______ _______ _____ _____    ______ ____
ROOT
ATOM      1  N   LIG    1      -22.006  77.511  30.960  0.00  0.00    -0.266 N 
ATOM      2  C   LIG    1      -21.198  77.917  32.010  0.00  0.00    +0.168 A 
ATOM      3  N   LIG    1      -21.560  78.418  33.214  0.00  0.00    -0.213 NA
ATOM      4  C   LIG    1      -20.528  78.799  33.999  0.00  0.00    +0.122 A 
ATOM      5  C   LIG    1      -19.189  78.686  33.607  0.00  0.00    +0.046 A 
ATOM      6  C   LIG    1      -18.849  78.142  32.365  0.00  0.00    +0.035 A 
ATOM      7  C   LIG    1      -19.899  77.734  31.544  0.00  0.00    +0.108 A 
ATOM      8  N   LIG    1      -19.881  77.162  30.303  0.00  0.00    -0.234 NA
ATOM      9  C   LIG    1      -21.151  77.027  29.988  0.00  0.00    +0.207 A 
ENDROOT
BRANCH   1  14
ATOM     10  C   LIG    1      -25.608  77.474  31.173  0.00  0.00    +0.213 A 
ATOM     11  N   LIG    1      -25.281  78.157  30.033  0.00  0.00    -0.245 N 
ATOM     12  H   LIG    1      -25.922  78.584  29.370  0.00  0.00    +0.192 HD
ATOM     13  N   LIG    1      -23.956  78.210  29.781  0.00  0.00    -0.153 NA
ATOM     14  C   LIG    1      -23.421  77.594  30.848  0.00  0.00    +0.165 A 
ATOM     15  C   LIG    1      -24.397  77.127  31.747  0.00  0.00    +0.115 A 
BRANCH  10  16
ATOM     16  O   LIG    1      -26.885  77.300  31.501  0.00  0.00    -0.474 OA
BRANCH  16  18
ATOM     17  C   LIG    1      -28.306  77.046  33.475  0.00  0.00    +0.051 C 
ATOM     18  C   LIG    1      -27.144  76.490  32.658  0.00  0.00    +0.169 C 
ATOM     19  C   LIG    1      -27.499  75.092  32.156  0.00  0.00    +0.051 C 
ENDBRANCH  16  18
ENDBRANCH  10  16
ENDBRANCH   1  14
BRANCH   4  20
ATOM     20  N   LIG    1      -20.760  79.262  35.304  0.00  0.00    -0.319 N 
ATOM     21  H   LIG    1      -20.225  78.718  35.982  0.00  0.00    +0.148 HD
BRANCH  20  22
ATOM     22  C   LIG    1      -20.598  80.704  35.563  0.00  0.00    +0.136 C 
ATOM     23  C   LIG    1      -21.987  81.346  35.553  0.00  0.00    +0.036 C 
BRANCH  22  24
ATOM     24  C   LIG    1      -19.891  80.973  36.898  0.00  0.00    +0.149 A 
ATOM     25  N   LIG    1      -20.220  82.093  37.595  0.00  0.00    -0.236 NA
ATOM     26  C   LIG    1      -19.593  82.263  38.785  0.00  0.00    +0.152 A 
ATOM     27  C   LIG    1      -18.674  81.377  39.291  0.00  0.00    +0.159 A 
ATOM     28  F   LIG    1      -18.081  81.567  40.475  0.00  0.00    -0.202 F 
ATOM     29  C   LIG    1      -18.402  80.282  38.512  0.00  0.00    +0.152 A 
ATOM     30  N   LIG    1      -18.984  80.057  37.314  0.00  0.00    -0.236 NA
ENDBRANCH  22  24
ENDBRANCH  20  22
ENDBRANCH   4  20
TORSDOF 6
ENDMDL
MODEL 6
REMARK VINA RESULT:      -5.2     17.880     19.508
REMARK  Name = pdb/CHEMBL3659497.pdb
REMARK                            x       y       z     vdW  Elec       q    Type
REMARK                         _______ _______ _______ _____ _____    ______ ____
ROOT
ATOM      1  N   LIG    1      -22.809  82.364  15.768  0.00  0.00    -0.266 N 
ATOM      2  C   LIG    1      -23.626  81.465  15.101  0.00  0.00    +0.168 A 
ATOM      3  N   LIG    1      -24.396  81.669  14.007  0.00  0.00    -0.213 NA
ATOM      4  C   LIG    1      -25.146  80.607  13.638  0.00  0.00    +0.122 A 
ATOM      5  C   LIG    1      -25.131  79.388  14.328  0.00  0.00    +0.046 A 
ATOM      6  C   LIG    1      -24.306  79.203  15.441  0.00  0.00    +0.035 A 
ATOM      7  C   LIG    1      -23.518  80.285  15.830  0.00  0.00    +0.108 A 
ATOM      8  N   LIG    1      -22.617  80.400  16.852  0.00  0.00    -0.234 NA
ATOM      9  C   LIG    1      -22.200  81.645  16.780  0.00  0.00    +0.207 A 
ENDROOT
BRANCH   1  14
ATOM     10  C   LIG    1      -22.304  85.745  14.611  0.00  0.00    +0.213 A 
ATOM     11  N   LIG    1      -22.602  85.817  15.945  0.00  0.00    -0.245 N 
ATOM     12  H   LIG    1      -22.678  86.659  16.509  0.00  0.00    +0.192 HD
ATOM     13  N   LIG    1      -22.766  84.618  16.541  0.00  0.00    -0.153 NA
ATOM     14  C   LIG    1      -22.635  83.754  15.522  0.00  0.00    +0.165 A 
ATOM     15  C   LIG    1      -22.358  84.396  14.302  0.00  0.00    +0.115 A 
BRANCH  10  16
ATOM     16  O   LIG    1      -22.060  86.855  13.922  0.00  0.00    -0.474 OA
BRANCH  16  18
ATOM     17  C   LIG    1      -19.622  86.830  14.095  0.00  0.00    +0.051 C 
ATOM     18  C   LIG    1      -20.910  87.616  14.318  0.00  0.00    +0.169 C 
ATOM     19  C   LIG    1      -20.889  88.879  13.458  0.00  0.00    +0.051 C 
ENDBRANCH  16  18
ENDBRANCH  10  16
ENDBRANCH   1  14
BRANCH   4  20
ATOM     20  N   LIG    1      -25.930  80.658  12.475  0.00  0.00    -0.319 N 
ATOM     21  H   LIG    1      -26.866  81.005  12.684  0.00  0.00    +0.148 HD
BRANCH  20  22
ATOM     22  C   LIG    1      -25.377  81.354  11.301  0.00  0.00    +0.136 C 
ATOM     23  C   LIG    1      -25.287  80.349  10.151  0.00  0.00    +0.036 C 
BRANCH  22  24
ATOM     24  C   LIG    1      -26.232  82.562  10.892  0.00  0.00    +0.149 A 
ATOM     25  N   LIG    1      -26.925  82.504   9.725  0.00  0.00    -0.236 NA
ATOM     26  C   LIG    1      -27.694  83.582   9.430  0.00  0.00    +0.152 A 
ATOM     27  C   LIG    1      -27.792  84.686  10.240  0.00  0.00    +0.159 A 
ATOM     28  F   LIG    1      -28.568  85.729   9.928  0.00  0.00    -0.202 F 
ATOM     29  C   LIG    1      -27.048  84.656  11.392  0.00  0.00    +0.152 A 
ATOM     30  N   LIG    1      -26.257  83.618  11.741  0.00  0.00    -0.236 NA
ENDBRANCH  22  24
ENDBRANCH  20  22
ENDBRANCH   4  20
TORSDOF 6
ENDMDL
MODEL 7
REMARK VINA RESULT:      -5.2      4.696      7.839
REMARK  Name = pdb/CHEMBL3659497.pdb
REMARK                            x       y       z     vdW  Elec       q    Type
REMARK                         _______ _______ _______ _____ _____    ______ ____
ROOT
ATOM      1  N   LIG    1      -38.636  72.159  24.555  0.00  0.00    -0.266 N 
ATOM      2  C   LIG    1      -38.805  73.534  24.539  0.00  0.00    +0.168 A 
ATOM      3  N   LIG    1      -37.948  74.499  24.946  0.00  0.00    -0.213 NA
ATOM      4  C   LIG    1      -38.439  75.756  24.876  0.00  0.00    +0.122 A 
ATOM      5  C   LIG    1      -39.730  76.046  24.417  0.00  0.00    +0.046 A 
ATOM      6  C   LIG    1      -40.581  75.026  23.980  0.00  0.00    +0.035 A 
ATOM      7  C   LIG    1      -40.089  73.723  24.036  0.00  0.00    +0.108 A 
ATOM      8  N   LIG    1      -40.672  72.541  23.672  0.00  0.00    -0.234 NA
ATOM      9  C   LIG    1      -39.775  71.629  23.979  0.00  0.00    +0.207 A 
ENDROOT
BRANCH   1  14
ATOM     10  C   LIG    1      -36.136  70.306  26.384  0.00  0.00    +0.213 A 
ATOM     11  N   LIG    1      -35.798  70.236  25.060  0.00  0.00    -0.245 N 
ATOM     12  H   LIG    1      -35.002  69.750  24.657  0.00  0.00    +0.192 HD
ATOM     13  N   LIG    1      -36.615  70.934  24.243  0.00  0.00    -0.153 NA
ATOM     14  C   LIG    1      -37.550  71.406  25.082  0.00  0.00    +0.165 A 
ATOM     15  C   LIG    1      -37.309  71.041  26.419  0.00  0.00    +0.115 A 
BRANCH  10  16
ATOM     16  O   LIG    1      -35.376  69.710  27.298  0.00  0.00    -0.474 OA
BRANCH  16  18
ATOM     17  C   LIG    1      -35.065  69.412  29.705  0.00  0.00    +0.051 C 
ATOM     18  C   LIG    1      -35.222  70.396  28.549  0.00  0.00    +0.169 C 
ATOM     19  C   LIG    1      -33.962  71.254  28.437  0.00  0.00    +0.051 C 
ENDBRANCH  16  18
ENDBRANCH  10  16
ENDBRANCH   1  14
BRANCH   4  20
ATOM     20  N   LIG    1      -37.627  76.857  25.194  0.00  0.00    -0.319 N 
ATOM     21  H   LIG    1      -37.939  77.692  24.697  0.00  0.00    +0.148 HD
BRANCH  20  22
ATOM     22  C   LIG    1      -37.405  77.161  26.618  0.00  0.00    +0.136 C 
ATOM     23  C   LIG    1      -38.655  76.740  27.394  0.00  0.00    +0.036 C 
BRANCH  22  24
ATOM     24  C   LIG    1      -36.164  76.449  27.172  0.00  0.00    +0.149 A 
ATOM     25  N   LIG    1      -36.336  75.334  27.929  0.00  0.00    -0.236 NA
ATOM     26  C   LIG    1      -35.205  74.723  28.362  0.00  0.00    +0.152 A 
ATOM     27  C   LIG    1      -33.942  75.175  28.072  0.00  0.00    +0.159 A 
ATOM     28  F   LIG    1      -32.845  74.544  28.504  0.00  0.00    -0.202 F 
ATOM     29  C   LIG    1      -33.869  76.313  27.309  0.00  0.00    +0.152 A 
ATOM     30  N   LIG    1      -34.955  76.974  26.854  0.00  0.00    -0.236 NA
ENDBRANCH  22  24
ENDBRANCH  20  22
ENDBRANCH   4  20
TORSDOF 6
ENDMDL
MODEL 8
REMARK VINA RESULT:      -5.2     13.608     17.873
REMARK  Name = pdb/CHEMBL3659497.pdb
REMARK                            x       y       z     vdW  Elec       q    Type
REMARK                         _______ _______ _______ _____ _____    ______ ____
ROOT
ATOM      1  N   LIG    1      -19.849  78.453  33.222  0.00  0.00    -0.266 N 
ATOM      2  C   LIG    1      -20.530  77.797  32.209  0.00  0.00    +0.168 A 
ATOM      3  N   LIG    1      -21.845  77.489  32.133  0.00  0.00    -0.213 NA
ATOM      4  C   LIG    1      -22.194  76.770  31.044  0.00  0.00    +0.122 A 
ATOM      5  C   LIG    1      -21.274  76.372  30.066  0.00  0.00    +0.046 A 
ATOM      6  C   LIG    1      -19.926  76.728  30.163  0.00  0.00    +0.035 A 
ATOM      7  C   LIG    1      -19.548  77.479  31.275  0.00  0.00    +0.108 A 
ATOM      8  N   LIG    1      -18.327  77.979  31.631  0.00  0.00    -0.234 NA
ATOM      9  C   LIG    1      -18.541  78.568  32.788  0.00  0.00    +0.207 A 
ENDROOT
BRANCH   1  14
ATOM     10  C   LIG    1      -21.150  80.077  36.170  0.00  0.00    +0.213 A 
ATOM     11  N   LIG    1      -21.032  78.745  36.464  0.00  0.00    -0.245 N 
ATOM     12  H   LIG    1      -21.271  78.289  37.340  0.00  0.00    +0.192 HD
ATOM     13  N   LIG    1      -20.501  78.004  35.469  0.00  0.00    -0.153 NA
ATOM     14  C   LIG    1      -20.343  78.897  34.479  0.00  0.00    +0.165 A 
ATOM     15  C   LIG    1      -20.738  80.194  34.854  0.00  0.00    +0.115 A 
BRANCH  10  16
ATOM     16  O   LIG    1      -21.606  80.924  37.088  0.00  0.00    -0.474 OA
BRANCH  16  18
ATOM     17  C   LIG    1      -23.332  82.543  36.474  0.00  0.00    +0.051 C 
ATOM     18  C   LIG    1      -21.842  82.272  36.655  0.00  0.00    +0.169 C 
ATOM     19  C   LIG    1      -21.286  83.195  37.738  0.00  0.00    +0.051 C 
ENDBRANCH  16  18
ENDBRANCH  10  16
ENDBRANCH   1  14
BRANCH   4  20
ATOM     20  N   LIG    1      -23.540  76.450  30.802  0.00  0.00    -0.319 N 
ATOM     21  H   LIG    1      -23.749  75.502  31.116  0.00  0.00    +0.148 HD
BRANCH  20  22
ATOM     22  C   LIG    1      -24.569  77.387  31.286  0.00  0.00    +0.136 C 
ATOM     23  C   LIG    1      -24.767  78.466  30.220  0.00  0.00    +0.036 C 
BRANCH  22  24
ATOM     24  C   LIG    1      -25.897  76.679  31.586  0.00  0.00    +0.149 A 
ATOM     25  N   LIG    1      -25.887  75.336  31.796  0.00  0.00    -0.236 NA
ATOM     26  C   LIG    1      -27.081  74.767  32.095  0.00  0.00    +0.152 A 
ATOM     27  C   LIG    1      -28.254  75.474  32.189  0.00  0.00    +0.159 A 
ATOM     28  F   LIG    1      -29.415  74.885  32.497  0.00  0.00    -0.202 F 
ATOM     29  C   LIG    1      -28.166  76.822  31.952  0.00  0.00    +0.152 A 
ATOM     30  N   LIG    1      -27.011  77.449  31.642  0.00  0.00    -0.236 NA
ENDBRANCH  22  24
ENDBRANCH  20  22
ENDBRANCH   4  20
TORSDOF 6
ENDMDL
MODEL 9
REMARK VINA RESULT:      -5.1      2.780      6.767
REMARK  Name = pdb/CHEMBL3659497.pdb
REMARK                            x       y       z     vdW  Elec       q    Type
REMARK                         _______ _______ _______ _____ _____    ______ ____
ROOT
ATOM      1  N   LIG    1      -36.473  77.524  28.305  0.00  0.00    -0.266 N 
ATOM      2  C   LIG    1      -35.977  78.803  28.506  0.00  0.00    +0.168 A 
ATOM      3  N   LIG    1      -35.932  79.841  27.639  0.00  0.00    -0.213 NA
ATOM      4  C   LIG    1      -35.309  80.943  28.112  0.00  0.00    +0.122 A 
ATOM      5  C   LIG    1      -34.754  81.014  29.395  0.00  0.00    +0.046 A 
ATOM      6  C   LIG    1      -34.839  79.931  30.275  0.00  0.00    +0.035 A 
ATOM      7  C   LIG    1      -35.487  78.788  29.809  0.00  0.00    +0.108 A 
ATOM      8  N   LIG    1      -35.735  77.596  30.431  0.00  0.00    -0.234 NA
ATOM      9  C   LIG    1      -36.337  76.870  29.515  0.00  0.00    +0.207 A 
ENDROOT
BRANCH   1  14
ATOM     10  C   LIG    1      -38.276  76.147  25.499  0.00  0.00    +0.213 A 
ATOM     11  N   LIG    1      -36.954  76.180  25.149  0.00  0.00    -0.245 N 
ATOM     12  H   LIG    1      -36.548  75.884  24.266  0.00  0.00    +0.192 HD
ATOM     13  N   LIG    1      -36.134  76.624  26.125  0.00  0.00    -0.153 NA
ATOM     14  C   LIG    1      -36.986  76.952  27.109  0.00  0.00    +0.165 A 
ATOM     15  C   LIG    1      -38.327  76.686  26.773  0.00  0.00    +0.115 A 
BRANCH  10  16
ATOM     16  O   LIG    1      -39.180  75.674  24.646  0.00  0.00    -0.474 OA
BRANCH  16  18
ATOM     17  C   LIG    1      -39.768  77.730  23.462  0.00  0.00    +0.051 C 
ATOM     18  C   LIG    1      -40.259  76.556  24.302  0.00  0.00    +0.169 C 
ATOM     19  C   LIG    1      -41.265  75.738  23.493  0.00  0.00    +0.051 C 
ENDBRANCH  16  18
ENDBRANCH  10  16
ENDBRANCH   1  14
BRANCH   4  20
ATOM     20  N   LIG    1      -35.261  82.118  27.344  0.00  0.00    -0.319 N 
ATOM     21  H   LIG    1      -35.003  81.910  26.379  0.00  0.00    +0.148 HD
BRANCH  20  22
ATOM     22  C   LIG    1      -36.431  83.013  27.379  0.00  0.00    +0.136 C 
ATOM     23  C   LIG    1      -35.924  84.453  27.484  0.00  0.00    +0.036 C 
BRANCH  22  24
ATOM     24  C   LIG    1      -37.321  82.846  26.140  0.00  0.00    +0.149 A 
ATOM     25  N   LIG    1      -38.362  81.974  26.198  0.00  0.00    -0.236 NA
ATOM     26  C   LIG    1      -39.138  81.893  25.089  0.00  0.00    +0.152 A 
ATOM     27  C   LIG    1      -38.917  82.633  23.954  0.00  0.00    +0.159 A 
ATOM     28  F   LIG    1      -39.708  82.540  22.880  0.00  0.00    -0.202 F 
ATOM     29  C   LIG    1      -37.838  83.480  23.987  0.00  0.00    +0.152 A 
ATOM     30  N   LIG    1      -37.021  83.602  25.055  0.00  0.00    -0.236 NA
ENDBRANCH  22  24
ENDBRANCH  20  22
ENDBRANCH   4  20
TORSDOF 6
ENDMDL
