MODEL 1
REMARK VINA RESULT:      -5.4      0.000      0.000
REMARK  Name = pdb/CHEMBL3676052.pdb
REMARK                            x       y       z     vdW  Elec       q    Type
REMARK                         _______ _______ _______ _____ _____    ______ ____
ROOT
ATOM      1  C   LIG    1      -25.879  77.256  33.059  0.00  0.00    +0.100 A 
ATOM      2  C   LIG    1      -25.309  78.065  34.038  0.00  0.00    +0.170 A 
ATOM      3  N   LIG    1      -24.085  78.680  34.145  0.00  0.00    -0.212 NA
ATOM      4  C   LIG    1      -23.829  79.375  35.239  0.00  0.00    +0.126 A 
ATOM      5  C   LIG    1      -24.842  79.513  36.350  0.00  0.00    +0.063 A 
ATOM      6  C   LIG    1      -26.014  78.896  36.196  0.00  0.00    +0.118 A 
ATOM      7  N   LIG    1      -26.270  78.167  35.050  0.00  0.00    -0.221 N 
ATOM      8  N   LIG    1      -27.401  77.485  34.764  0.00  0.00    -0.173 NA
ATOM      9  C   LIG    1      -27.155  76.937  33.581  0.00  0.00    +0.150 A 
ENDROOT
BRANCH   4  10
ATOM     10  N   LIG    1      -22.594  79.991  35.380  0.00  0.00    -0.308 N 
ATOM     11  C   LIG    1      -21.402  79.358  35.965  0.00  0.00    +0.107 C 
ATOM     12  C   LIG    1      -20.700  80.534  36.659  0.00  0.00    +0.029 C 
ATOM     13  C   LIG    1      -21.002  81.714  35.750  0.00  0.00    +0.021 C 
ATOM     14  C   LIG    1      -22.436  81.447  35.298  0.00  0.00    +0.107 C 
BRANCH  11  15
ATOM     15  C   LIG    1      -20.525  78.679  34.919  0.00  0.00    -0.003 A 
ATOM     16  C   LIG    1      -19.457  77.826  35.262  0.00  0.00    +0.043 A 
ATOM     17  C   LIG    1      -19.140  77.435  36.678  0.00  0.00    +0.066 C 
ATOM     18  N   LIG    1      -18.629  77.269  34.334  0.00  0.00    -0.257 NA
ATOM     19  C   LIG    1      -18.850  77.553  33.032  0.00  0.00    +0.149 A 
ATOM     20  C   LIG    1      -19.878  78.359  32.603  0.00  0.00    +0.142 A 
ATOM     21  F   LIG    1      -20.054  78.615  31.301  0.00  0.00    -0.204 F 
ATOM     22  C   LIG    1      -20.724  78.918  33.545  0.00  0.00    +0.047 A 
ENDBRANCH  11  15
ENDBRANCH   4  10
BRANCH   1  25
ATOM     23  N   LIG    1      -23.967  76.730  31.704  0.00  0.00    -0.309 N 
ATOM     24  H   LIG    1      -23.431  77.150  32.468  0.00  0.00    +0.149 HD
ATOM     25  C   LIG    1      -25.338  76.780  31.799  0.00  0.00    +0.249 C 
ATOM     26  O   LIG    1      -26.085  76.435  30.875  0.00  0.00    -0.270 OA
BRANCH  23  28
ATOM     27  C   LIG    1      -22.973  77.410  29.554  0.00  0.00    +0.027 C 
ATOM     28  C   LIG    1      -23.290  76.256  30.502  0.00  0.00    +0.067 C 
ATOM     29  C   LIG    1      -22.019  75.484  30.842  0.00  0.00    +0.027 C 
ENDBRANCH  23  28
ENDBRANCH   1  25
TORSDOF 4
ENDMDL
MODEL 2
REMARK VINA RESULT:      -5.4     17.581     20.816
REMARK  Name = pdb/CHEMBL3676052.pdb
REMARK                            x       y       z     vdW  Elec       q    Type
REMARK                         _______ _______ _______ _____ _____    ______ ____
ROOT
ATOM      1  C   LIG    1      -36.907  68.419  22.270  0.00  0.00    +0.100 A 
ATOM      2  C   LIG    1      -38.049  69.156  22.573  0.00  0.00    +0.170 A 
ATOM      3  N   LIG    1      -38.392  69.948  23.642  0.00  0.00    -0.212 NA
ATOM      4  C   LIG    1      -39.592  70.503  23.646  0.00  0.00    +0.126 A 
ATOM      5  C   LIG    1      -40.570  70.295  22.516  0.00  0.00    +0.063 A 
ATOM      6  C   LIG    1      -40.186  69.516  21.504  0.00  0.00    +0.118 A 
ATOM      7  N   LIG    1      -38.932  68.937  21.510  0.00  0.00    -0.221 N 
ATOM      8  N   LIG    1      -38.415  68.122  20.563  0.00  0.00    -0.173 NA
ATOM      9  C   LIG    1      -37.214  67.810  21.030  0.00  0.00    +0.150 A 
ENDROOT
BRANCH   4  10
ATOM     10  N   LIG    1      -39.970  71.293  24.722  0.00  0.00    -0.308 N 
ATOM     11  C   LIG    1      -39.290  72.532  25.135  0.00  0.00    +0.107 C 
ATOM     12  C   LIG    1      -39.450  72.513  26.661  0.00  0.00    +0.029 C 
ATOM     13  C   LIG    1      -40.810  71.867  26.868  0.00  0.00    +0.021 C 
ATOM     14  C   LIG    1      -40.855  70.796  25.780  0.00  0.00    +0.107 C 
BRANCH  11  15
ATOM     15  C   LIG    1      -39.894  73.774  24.491  0.00  0.00    -0.003 A 
ATOM     16  C   LIG    1      -39.265  75.034  24.538  0.00  0.00    +0.043 A 
ATOM     17  C   LIG    1      -37.907  75.253  25.143  0.00  0.00    +0.066 C 
ATOM     18  N   LIG    1      -39.831  76.162  24.022  0.00  0.00    -0.257 NA
ATOM     19  C   LIG    1      -41.047  76.056  23.443  0.00  0.00    +0.149 A 
ATOM     20  C   LIG    1      -41.726  74.866  23.335  0.00  0.00    +0.142 A 
ATOM     21  F   LIG    1      -42.932  74.812  22.755  0.00  0.00    -0.204 F 
ATOM     22  C   LIG    1      -41.148  73.719  23.851  0.00  0.00    +0.047 A 
ENDBRANCH  11  15
ENDBRANCH   4  10
BRANCH   1  25
ATOM     23  N   LIG    1      -35.696  68.647  24.331  0.00  0.00    -0.309 N 
ATOM     24  H   LIG    1      -36.522  69.162  24.647  0.00  0.00    +0.149 HD
ATOM     25  C   LIG    1      -35.677  68.239  23.019  0.00  0.00    +0.249 C 
ATOM     26  O   LIG    1      -34.677  67.737  22.490  0.00  0.00    -0.270 OA
BRANCH  23  28
ATOM     27  C   LIG    1      -34.285  69.790  25.997  0.00  0.00    +0.027 C 
ATOM     28  C   LIG    1      -34.536  68.509  25.204  0.00  0.00    +0.067 C 
ATOM     29  C   LIG    1      -34.681  67.321  26.148  0.00  0.00    +0.027 C 
ENDBRANCH  23  28
ENDBRANCH   1  25
TORSDOF 4
ENDMDL
MODEL 3
REMARK VINA RESULT:      -5.4     18.471     21.778
REMARK  Name = pdb/CHEMBL3676052.pdb
REMARK                            x       y       z     vdW  Elec       q    Type
REMARK                         _______ _______ _______ _____ _____    ______ ____
ROOT
ATOM      1  C   LIG    1      -18.401  85.220  13.014  0.00  0.00    +0.100 A 
ATOM      2  C   LIG    1      -18.800  83.936  13.375  0.00  0.00    +0.170 A 
ATOM      3  N   LIG    1      -19.856  83.460  14.114  0.00  0.00    -0.212 NA
ATOM      4  C   LIG    1      -19.946  82.155  14.306  0.00  0.00    +0.126 A 
ATOM      5  C   LIG    1      -18.932  81.195  13.732  0.00  0.00    +0.063 A 
ATOM      6  C   LIG    1      -17.926  81.710  13.024  0.00  0.00    +0.118 A 
ATOM      7  N   LIG    1      -17.839  83.076  12.833  0.00  0.00    -0.221 N 
ATOM      8  N   LIG    1      -16.876  83.735  12.151  0.00  0.00    -0.173 NA
ATOM      9  C   LIG    1      -17.213  85.012  12.274  0.00  0.00    +0.150 A 
ENDROOT
BRANCH   4  10
ATOM     10  N   LIG    1      -20.993  81.650  15.062  0.00  0.00    -0.308 N 
ATOM     11  C   LIG    1      -22.251  82.363  15.337  0.00  0.00    +0.107 C 
ATOM     12  C   LIG    1      -22.610  81.883  16.750  0.00  0.00    +0.029 C 
ATOM     13  C   LIG    1      -22.117  80.445  16.772  0.00  0.00    +0.021 C 
ATOM     14  C   LIG    1      -20.821  80.510  15.968  0.00  0.00    +0.107 C 
BRANCH  11  15
ATOM     15  C   LIG    1      -23.336  82.054  14.313  0.00  0.00    -0.003 A 
ATOM     16  C   LIG    1      -23.624  82.912  13.232  0.00  0.00    +0.043 A 
ATOM     17  C   LIG    1      -22.836  84.156  12.937  0.00  0.00    +0.066 C 
ATOM     18  N   LIG    1      -24.637  82.675  12.351  0.00  0.00    -0.257 NA
ATOM     19  C   LIG    1      -25.389  81.567  12.530  0.00  0.00    +0.149 A 
ATOM     20  C   LIG    1      -25.170  80.665  13.543  0.00  0.00    +0.142 A 
ATOM     21  F   LIG    1      -25.946  79.583  13.682  0.00  0.00    -0.204 F 
ATOM     22  C   LIG    1      -24.136  80.902  14.434  0.00  0.00    +0.047 A 
ENDBRANCH  11  15
ENDBRANCH   4  10
BRANCH   1  25
ATOM     23  N   LIG    1      -20.278  86.494  13.804  0.00  0.00    -0.309 N 
ATOM     24  H   LIG    1      -20.770  85.596  13.789  0.00  0.00    +0.149 HD
ATOM     25  C   LIG    1      -18.991  86.510  13.321  0.00  0.00    +0.249 C 
ATOM     26  O   LIG    1      -18.352  87.557  13.158  0.00  0.00    -0.270 OA
BRANCH  23  28
ATOM     27  C   LIG    1      -21.811  88.247  13.000  0.00  0.00    +0.027 C 
ATOM     28  C   LIG    1      -20.985  87.715  14.169  0.00  0.00    +0.067 C 
ATOM     29  C   LIG    1      -21.872  87.507  15.393  0.00  0.00    +0.027 C 
ENDBRANCH  23  28
ENDBRANCH   1  25
TORSDOF 4
ENDMDL
MODEL 4
REMARK VINA RESULT:      -5.4      2.339      5.020
REMARK  Name = pdb/CHEMBL3676052.pdb
REMARK                            x       y       z     vdW  Elec       q    Type
REMARK                         _______ _______ _______ _____ _____    ______ ____
ROOT
ATOM      1  C   LIG    1      -22.879  77.007  30.535  0.00  0.00    +0.100 A 
ATOM      2  C   LIG    1      -21.833  77.443  31.345  0.00  0.00    +0.170 A 
ATOM      3  N   LIG    1      -21.793  77.973  32.612  0.00  0.00    -0.212 NA
ATOM      4  C   LIG    1      -20.617  78.322  33.104  0.00  0.00    +0.126 A 
ATOM      5  C   LIG    1      -19.340  78.143  32.320  0.00  0.00    +0.063 A 
ATOM      6  C   LIG    1      -19.436  77.624  31.095  0.00  0.00    +0.118 A 
ATOM      7  N   LIG    1      -20.670  77.267  30.587  0.00  0.00    -0.221 N 
ATOM      8  N   LIG    1      -20.919  76.744  29.366  0.00  0.00    -0.173 NA
ATOM      9  C   LIG    1      -22.238  76.602  29.340  0.00  0.00    +0.150 A 
ENDROOT
BRANCH   4  10
ATOM     10  N   LIG    1      -20.550  78.876  34.374  0.00  0.00    -0.308 N 
ATOM     11  C   LIG    1      -21.627  79.652  35.010  0.00  0.00    +0.107 C 
ATOM     12  C   LIG    1      -20.853  80.678  35.851  0.00  0.00    +0.029 C 
ATOM     13  C   LIG    1      -19.620  79.912  36.298  0.00  0.00    +0.021 C 
ATOM     14  C   LIG    1      -19.276  79.062  35.077  0.00  0.00    +0.107 C 
BRANCH  11  15
ATOM     15  C   LIG    1      -22.560  78.784  35.845  0.00  0.00    -0.003 A 
ATOM     16  C   LIG    1      -23.829  79.226  36.271  0.00  0.00    +0.043 A 
ATOM     17  C   LIG    1      -24.415  80.550  35.868  0.00  0.00    +0.066 C 
ATOM     18  N   LIG    1      -24.641  78.481  37.073  0.00  0.00    -0.257 NA
ATOM     19  C   LIG    1      -24.201  77.267  37.472  0.00  0.00    +0.149 A 
ATOM     20  C   LIG    1      -22.987  76.747  37.092  0.00  0.00    +0.142 A 
ATOM     21  F   LIG    1      -22.592  75.540  37.516  0.00  0.00    -0.204 F 
ATOM     22  C   LIG    1      -22.166  77.500  36.270  0.00  0.00    +0.047 A 
ENDBRANCH  11  15
ENDBRANCH   4  10
BRANCH   1  25
ATOM     23  N   LIG    1      -24.704  76.785  32.079  0.00  0.00    -0.309 N 
ATOM     24  H   LIG    1      -23.976  76.543  32.756  0.00  0.00    +0.149 HD
ATOM     25  C   LIG    1      -24.310  76.982  30.777  0.00  0.00    +0.249 C 
ATOM     26  O   LIG    1      -25.115  77.138  29.851  0.00  0.00    -0.270 OA
BRANCH  23  28
ATOM     27  C   LIG    1      -26.683  75.343  32.361  0.00  0.00    +0.027 C 
ATOM     28  C   LIG    1      -26.110  76.755  32.468  0.00  0.00    +0.067 C 
ATOM     29  C   LIG    1      -26.316  77.306  33.875  0.00  0.00    +0.027 C 
ENDBRANCH  23  28
ENDBRANCH   1  25
TORSDOF 4
ENDMDL
MODEL 5
REMARK VINA RESULT:      -5.4      2.353      5.144
REMARK  Name = pdb/CHEMBL3676052.pdb
REMARK                            x       y       z     vdW  Elec       q    Type
REMARK                         _______ _______ _______ _____ _____    ______ ____
ROOT
ATOM      1  C   LIG    1      -24.099  77.898  32.100  0.00  0.00    +0.100 A 
ATOM      2  C   LIG    1      -22.880  77.535  31.532  0.00  0.00    +0.170 A 
ATOM      3  N   LIG    1      -21.583  77.615  31.977  0.00  0.00    -0.212 NA
ATOM      4  C   LIG    1      -20.620  77.201  31.172  0.00  0.00    +0.126 A 
ATOM      5  C   LIG    1      -20.914  76.643  29.800  0.00  0.00    +0.063 A 
ATOM      6  C   LIG    1      -22.191  76.589  29.418  0.00  0.00    +0.118 A 
ATOM      7  N   LIG    1      -23.190  77.028  30.265  0.00  0.00    -0.221 N 
ATOM      8  N   LIG    1      -24.516  77.043  30.009  0.00  0.00    -0.173 NA
ATOM      9  C   LIG    1      -25.049  77.573  31.102  0.00  0.00    +0.150 A 
ENDROOT
BRANCH   4  10
ATOM     10  N   LIG    1      -19.301  77.287  31.590  0.00  0.00    -0.308 N 
ATOM     11  C   LIG    1      -18.839  78.049  32.762  0.00  0.00    +0.107 C 
ATOM     12  C   LIG    1      -17.452  78.539  32.322  0.00  0.00    +0.029 C 
ATOM     13  C   LIG    1      -16.932  77.403  31.457  0.00  0.00    +0.021 C 
ATOM     14  C   LIG    1      -18.180  76.934  30.713  0.00  0.00    +0.107 C 
BRANCH  11  15
ATOM     15  C   LIG    1      -18.794  77.203  34.030  0.00  0.00    -0.003 A 
ATOM     16  C   LIG    1      -18.924  77.761  35.318  0.00  0.00    +0.043 A 
ATOM     17  C   LIG    1      -19.209  79.216  35.558  0.00  0.00    +0.066 C 
ATOM     18  N   LIG    1      -18.819  77.021  36.457  0.00  0.00    -0.257 NA
ATOM     19  C   LIG    1      -18.579  75.697  36.336  0.00  0.00    +0.149 A 
ATOM     20  C   LIG    1      -18.456  75.064  35.122  0.00  0.00    +0.142 A 
ATOM     21  F   LIG    1      -18.214  73.749  35.053  0.00  0.00    -0.204 F 
ATOM     22  C   LIG    1      -18.571  75.814  33.964  0.00  0.00    +0.047 A 
ENDBRANCH  11  15
ENDBRANCH   4  10
BRANCH   1  25
ATOM     23  N   LIG    1      -23.390  79.252  33.952  0.00  0.00    -0.309 N 
ATOM     24  H   LIG    1      -22.472  79.217  33.501  0.00  0.00    +0.149 HD
ATOM     25  C   LIG    1      -24.396  78.507  33.383  0.00  0.00    +0.249 C 
ATOM     26  O   LIG    1      -25.502  78.358  33.918  0.00  0.00    -0.270 OA
BRANCH  23  28
ATOM     27  C   LIG    1      -23.176  79.023  36.396  0.00  0.00    +0.027 C 
ATOM     28  C   LIG    1      -23.557  79.933  35.230  0.00  0.00    +0.067 C 
ATOM     29  C   LIG    1      -22.755  81.229  35.286  0.00  0.00    +0.027 C 
ENDBRANCH  23  28
ENDBRANCH   1  25
TORSDOF 4
ENDMDL
MODEL 6
REMARK VINA RESULT:      -5.3      2.777      6.964
REMARK  Name = pdb/CHEMBL3676052.pdb
REMARK                            x       y       z     vdW  Elec       q    Type
REMARK                         _______ _______ _______ _____ _____    ______ ____
ROOT
ATOM      1  C   LIG    1      -18.710  78.226  32.885  0.00  0.00    +0.100 A 
ATOM      2  C   LIG    1      -19.747  77.832  32.044  0.00  0.00    +0.170 A 
ATOM      3  N   LIG    1      -21.115  77.878  32.164  0.00  0.00    -0.212 NA
ATOM      4  C   LIG    1      -21.845  77.387  31.177  0.00  0.00    +0.126 A 
ATOM      5  C   LIG    1      -21.215  76.795  29.940  0.00  0.00    +0.063 A 
ATOM      6  C   LIG    1      -19.883  76.773  29.875  0.00  0.00    +0.118 A 
ATOM      7  N   LIG    1      -19.129  77.285  30.914  0.00  0.00    -0.221 N 
ATOM      8  N   LIG    1      -17.781  77.321  30.989  0.00  0.00    -0.173 NA
ATOM      9  C   LIG    1      -17.540  77.872  32.172  0.00  0.00    +0.150 A 
ENDROOT
BRANCH   4  10
ATOM     10  N   LIG    1      -23.227  77.407  31.281  0.00  0.00    -0.308 N 
ATOM     11  C   LIG    1      -24.013  76.563  32.196  0.00  0.00    +0.107 C 
ATOM     12  C   LIG    1      -25.297  76.301  31.396  0.00  0.00    +0.029 C 
ATOM     13  C   LIG    1      -25.501  77.591  30.619  0.00  0.00    +0.021 C 
ATOM     14  C   LIG    1      -24.078  77.998  30.243  0.00  0.00    +0.107 C 
BRANCH  11  15
ATOM     15  C   LIG    1      -24.278  77.241  33.536  0.00  0.00    -0.003 A 
ATOM     16  C   LIG    1      -24.815  76.551  34.641  0.00  0.00    +0.043 A 
ATOM     17  C   LIG    1      -25.091  75.074  34.633  0.00  0.00    +0.066 C 
ATOM     18  N   LIG    1      -25.116  77.165  35.820  0.00  0.00    -0.257 NA
ATOM     19  C   LIG    1      -24.884  78.493  35.923  0.00  0.00    +0.149 A 
ATOM     20  C   LIG    1      -24.346  79.242  34.905  0.00  0.00    +0.142 A 
ATOM     21  F   LIG    1      -24.138  80.557  35.053  0.00  0.00    -0.204 F 
ATOM     22  C   LIG    1      -24.033  78.617  33.710  0.00  0.00    +0.047 A 
ENDBRANCH  11  15
ENDBRANCH   4  10
BRANCH   1  25
ATOM     23  N   LIG    1      -19.929  79.419  34.575  0.00  0.00    -0.309 N 
ATOM     24  H   LIG    1      -20.649  79.512  33.854  0.00  0.00    +0.149 HD
ATOM     25  C   LIG    1      -18.746  78.824  34.207  0.00  0.00    +0.249 C 
ATOM     26  O   LIG    1      -17.757  78.785  34.950  0.00  0.00    -0.270 OA
BRANCH  23  28
ATOM     27  C   LIG    1      -20.880  81.357  35.764  0.00  0.00    +0.027 C 
ATOM     28  C   LIG    1      -20.110  80.043  35.881  0.00  0.00    +0.067 C 
ATOM     29  C   LIG    1      -20.808  79.105  36.860  0.00  0.00    +0.027 C 
ENDBRANCH  23  28
ENDBRANCH   1  25
TORSDOF 4
ENDMDL
MODEL 7
REMARK VINA RESULT:      -5.3     20.658     22.800
REMARK  Name = pdb/CHEMBL3676052.pdb
REMARK                            x       y       z     vdW  Elec       q    Type
REMARK                         _______ _______ _______ _____ _____    ______ ____
ROOT
ATOM      1  C   LIG    1      -32.068  93.932  23.853  0.00  0.00    +0.100 A 
ATOM      2  C   LIG    1      -32.332  93.656  22.514  0.00  0.00    +0.170 A 
ATOM      3  N   LIG    1      -33.394  93.062  21.876  0.00  0.00    -0.212 NA
ATOM      4  C   LIG    1      -33.331  92.918  20.564  0.00  0.00    +0.126 A 
ATOM      5  C   LIG    1      -32.140  93.391  19.766  0.00  0.00    +0.063 A 
ATOM      6  C   LIG    1      -31.136  93.959  20.436  0.00  0.00    +0.118 A 
ATOM      7  N   LIG    1      -31.210  94.102  21.808  0.00  0.00    -0.221 N 
ATOM      8  N   LIG    1      -30.270  94.645  22.614  0.00  0.00    -0.173 NA
ATOM      9  C   LIG    1      -30.785  94.529  23.831  0.00  0.00    +0.150 A 
ENDROOT
BRANCH   4  10
ATOM     10  N   LIG    1      -34.383  92.306  19.897  0.00  0.00    -0.308 N 
ATOM     11  C   LIG    1      -34.646  92.427  18.454  0.00  0.00    +0.107 C 
ATOM     12  C   LIG    1      -36.178  92.379  18.384  0.00  0.00    +0.029 C 
ATOM     13  C   LIG    1      -36.555  91.429  19.509  0.00  0.00    +0.021 C 
ATOM     14  C   LIG    1      -35.551  91.774  20.606  0.00  0.00    +0.107 C 
BRANCH  11  15
ATOM     15  C   LIG    1      -33.980  91.321  17.643  0.00  0.00    -0.003 A 
ATOM     16  C   LIG    1      -33.285  91.574  16.443  0.00  0.00    +0.043 A 
ATOM     17  C   LIG    1      -33.056  92.957  15.902  0.00  0.00    +0.066 C 
ATOM     18  N   LIG    1      -32.745  90.584  15.679  0.00  0.00    -0.257 NA
ATOM     19  C   LIG    1      -32.888  89.307  16.098  0.00  0.00    +0.149 A 
ATOM     20  C   LIG    1      -33.534  88.967  17.263  0.00  0.00    +0.142 A 
ATOM     21  F   LIG    1      -33.654  87.686  17.635  0.00  0.00    -0.204 F 
ATOM     22  C   LIG    1      -34.076  89.974  18.044  0.00  0.00    +0.047 A 
ENDBRANCH  11  15
ENDBRANCH   4  10
BRANCH   1  25
ATOM     23  N   LIG    1      -33.627  92.526  25.020  0.00  0.00    -0.309 N 
ATOM     24  H   LIG    1      -33.694  92.026  24.129  0.00  0.00    +0.149 HD
ATOM     25  C   LIG    1      -32.854  93.663  25.043  0.00  0.00    +0.249 C 
ATOM     26  O   LIG    1      -32.814  94.424  26.018  0.00  0.00    -0.270 OA
BRANCH  23  28
ATOM     27  C   LIG    1      -35.871  91.777  25.708  0.00  0.00    +0.027 C 
ATOM     28  C   LIG    1      -34.453  92.126  26.153  0.00  0.00    +0.067 C 
ATOM     29  C   LIG    1      -33.834  90.959  26.915  0.00  0.00    +0.027 C 
ENDBRANCH  23  28
ENDBRANCH   1  25
TORSDOF 4
ENDMDL
MODEL 8
REMARK VINA RESULT:      -5.3     13.974     17.967
REMARK  Name = pdb/CHEMBL3676052.pdb
REMARK                            x       y       z     vdW  Elec       q    Type
REMARK                         _______ _______ _______ _____ _____    ______ ____
ROOT
ATOM      1  C   LIG    1      -37.548  76.084  25.767  0.00  0.00    +0.100 A 
ATOM      2  C   LIG    1      -38.196  74.870  25.556  0.00  0.00    +0.170 A 
ATOM      3  N   LIG    1      -38.048  73.623  26.114  0.00  0.00    -0.212 NA
ATOM      4  C   LIG    1      -38.817  72.645  25.669  0.00  0.00    +0.126 A 
ATOM      5  C   LIG    1      -39.842  72.869  24.584  0.00  0.00    +0.063 A 
ATOM      6  C   LIG    1      -39.944  74.098  24.076  0.00  0.00    +0.118 A 
ATOM      7  N   LIG    1      -39.133  75.113  24.546  0.00  0.00    -0.221 N 
ATOM      8  N   LIG    1      -39.118  76.396  24.120  0.00  0.00    -0.173 NA
ATOM      9  C   LIG    1      -38.164  76.964  24.845  0.00  0.00    +0.150 A 
ENDROOT
BRANCH   4  10
ATOM     10  N   LIG    1      -38.675  71.373  26.203  0.00  0.00    -0.308 N 
ATOM     11  C   LIG    1      -38.217  70.193  25.453  0.00  0.00    +0.107 C 
ATOM     12  C   LIG    1      -39.011  69.050  26.102  0.00  0.00    +0.029 C 
ATOM     13  C   LIG    1      -39.116  69.473  27.558  0.00  0.00    +0.021 C 
ATOM     14  C   LIG    1      -39.308  70.985  27.468  0.00  0.00    +0.107 C 
BRANCH  11  15
ATOM     15  C   LIG    1      -36.709  69.991  25.543  0.00  0.00    -0.003 A 
ATOM     16  C   LIG    1      -36.005  69.138  24.669  0.00  0.00    +0.043 A 
ATOM     17  C   LIG    1      -36.654  68.423  23.519  0.00  0.00    +0.066 C 
ATOM     18  N   LIG    1      -34.668  68.902  24.785  0.00  0.00    -0.257 NA
ATOM     19  C   LIG    1      -33.997  69.518  25.783  0.00  0.00    +0.149 A 
ATOM     20  C   LIG    1      -34.597  70.380  26.670  0.00  0.00    +0.142 A 
ATOM     21  F   LIG    1      -33.890  70.964  27.647  0.00  0.00    -0.204 F 
ATOM     22  C   LIG    1      -35.953  70.626  26.548  0.00  0.00    +0.047 A 
ENDBRANCH  11  15
ENDBRANCH   4  10
BRANCH   1  25
ATOM     23  N   LIG    1      -35.551  75.436  26.932  0.00  0.00    -0.309 N 
ATOM     24  H   LIG    1      -35.768  74.498  26.583  0.00  0.00    +0.149 HD
ATOM     25  C   LIG    1      -36.465  76.429  26.670  0.00  0.00    +0.249 C 
ATOM     26  O   LIG    1      -36.381  77.561  27.160  0.00  0.00    -0.270 OA
BRANCH  23  28
ATOM     27  C   LIG    1      -33.791  74.322  28.249  0.00  0.00    +0.027 C 
ATOM     28  C   LIG    1      -34.404  75.649  27.807  0.00  0.00    +0.067 C 
ATOM     29  C   LIG    1      -33.347  76.526  27.144  0.00  0.00    +0.027 C 
ENDBRANCH  23  28
ENDBRANCH   1  25
TORSDOF 4
ENDMDL
MODEL 9
REMARK VINA RESULT:      -5.1     18.259     20.869
REMARK  Name = pdb/CHEMBL3676052.pdb
REMARK                            x       y       z     vdW  Elec       q    Type
REMARK                         _______ _______ _______ _____ _____    ______ ____
ROOT
ATOM      1  C   LIG    1      -18.558  85.103  13.215  0.00  0.00    +0.100 A 
ATOM      2  C   LIG    1      -18.752  83.758  13.518  0.00  0.00    +0.170 A 
ATOM      3  N   LIG    1      -19.694  83.095  14.266  0.00  0.00    -0.212 NA
ATOM      4  C   LIG    1      -19.586  81.784  14.387  0.00  0.00    +0.126 A 
ATOM      5  C   LIG    1      -18.472  81.012  13.723  0.00  0.00    +0.063 A 
ATOM      6  C   LIG    1      -17.583  81.704  13.009  0.00  0.00    +0.118 A 
ATOM      7  N   LIG    1      -17.702  83.075  12.892  0.00  0.00    -0.221 N 
ATOM      8  N   LIG    1      -16.875  83.902  12.214  0.00  0.00    -0.173 NA
ATOM      9  C   LIG    1      -17.386  85.108  12.421  0.00  0.00    +0.150 A 
ENDROOT
BRANCH   4  10
ATOM     10  N   LIG    1      -20.515  81.093  15.151  0.00  0.00    -0.308 N 
ATOM     11  C   LIG    1      -21.207  79.865  14.726  0.00  0.00    +0.107 C 
ATOM     12  C   LIG    1      -22.585  80.007  15.387  0.00  0.00    +0.029 C 
ATOM     13  C   LIG    1      -22.280  80.718  16.695  0.00  0.00    +0.021 C 
ATOM     14  C   LIG    1      -21.180  81.703  16.308  0.00  0.00    +0.107 C 
BRANCH  11  15
ATOM     15  C   LIG    1      -20.471  78.601  15.155  0.00  0.00    -0.003 A 
ATOM     16  C   LIG    1      -20.765  77.333  14.615  0.00  0.00    +0.043 A 
ATOM     17  C   LIG    1      -21.759  77.121  13.508  0.00  0.00    +0.066 C 
ATOM     18  N   LIG    1      -20.158  76.189  15.041  0.00  0.00    -0.257 NA
ATOM     19  C   LIG    1      -19.236  76.287  16.024  0.00  0.00    +0.149 A 
ATOM     20  C   LIG    1      -18.873  77.482  16.597  0.00  0.00    +0.142 A 
ATOM     21  F   LIG    1      -17.956  77.528  17.572  0.00  0.00    -0.204 F 
ATOM     22  C   LIG    1      -19.483  78.645  16.159  0.00  0.00    +0.047 A 
ENDBRANCH  11  15
ENDBRANCH   4  10
BRANCH   1  25
ATOM     23  N   LIG    1      -20.629  86.068  13.955  0.00  0.00    -0.309 N 
ATOM     24  H   LIG    1      -21.014  85.136  13.778  0.00  0.00    +0.149 HD
ATOM     25  C   LIG    1      -19.313  86.276  13.616  0.00  0.00    +0.249 C 
ATOM     26  O   LIG    1      -18.782  87.393  13.651  0.00  0.00    -0.270 OA
BRANCH  23  28
ATOM     27  C   LIG    1      -22.786  87.196  13.573  0.00  0.00    +0.027 C 
ATOM     28  C   LIG    1      -21.498  87.154  14.393  0.00  0.00    +0.067 C 
ATOM     29  C   LIG    1      -21.819  87.052  15.880  0.00  0.00    +0.027 C 
ENDBRANCH  23  28
ENDBRANCH   1  25
TORSDOF 4
ENDMDL
