MODEL 1
REMARK VINA RESULT:      -6.0      0.000      0.000
REMARK  Name = pdb/CHEMBL211883.pdb
REMARK                            x       y       z     vdW  Elec       q    Type
REMARK                         _______ _______ _______ _____ _____    ______ ____
ROOT
ATOM      1  C   LIG    1      -33.319  76.569  28.165  0.00  0.00    +0.106 A 
ATOM      2  C   LIG    1      -34.383  75.667  28.081  0.00  0.00    +0.098 A 
ATOM      3  C   LIG    1      -35.560  76.389  27.634  0.00  0.00    +0.121 A 
ATOM      4  N   LIG    1      -35.405  77.668  27.316  0.00  0.00    -0.202 NA
ATOM      5  S   LIG    1      -33.848  78.095  27.617  0.00  0.00    +0.029 S 
ENDROOT
BRANCH   1  10
ATOM      6  C   LIG    1      -29.817  75.783  31.469  0.00  0.00    +0.129 C 
ATOM      7  N   LIG    1      -30.310  75.969  30.120  0.00  0.00    -0.302 N 
ATOM      8  H   LIG    1      -29.687  76.422  29.468  0.00  0.00    +0.150 HD
ATOM      9  C   LIG    1      -31.663  76.206  29.955  0.00  0.00    +0.304 C 
ATOM     10  N   LIG    1      -32.014  76.371  28.628  0.00  0.00    -0.262 N 
ATOM     11  H   LIG    1      -31.279  76.349  27.930  0.00  0.00    +0.157 HD
ATOM     12  O   LIG    1      -32.415  76.219  30.921  0.00  0.00    -0.253 OA
ENDBRANCH   1  10
BRANCH   2  13
ATOM     13  C   LIG    1      -34.250  74.260  28.407  0.00  0.00    +0.246 C 
ATOM     14  N   LIG    1      -33.905  73.411  27.401  0.00  0.00    -0.325 N 
ATOM     15  H   LIG    1      -33.708  72.447  27.635  0.00  0.00    +0.145 HD
ATOM     16  H   LIG    1      -33.602  73.747  26.495  0.00  0.00    +0.145 HD
ATOM     17  O   LIG    1      -34.468  73.815  29.541  0.00  0.00    -0.270 OA
ENDBRANCH   2  13
BRANCH   3  18
ATOM     18  S   LIG    1      -37.195  75.733  27.459  0.00  0.00    -0.096 S 
BRANCH  18  19
ATOM     19  C   LIG    1      -37.453  75.966  25.652  0.00  0.00    +0.083 C 
ATOM     20  C   LIG    1      -38.313  74.877  25.053  0.00  0.00    -0.031 A 
ATOM     21  C   LIG    1      -38.078  73.508  25.019  0.00  0.00    +0.006 A 
ATOM     22  C   LIG    1      -39.058  72.666  24.479  0.00  0.00    +0.020 A 
ATOM     23  C   LIG    1      -40.230  73.204  23.930  0.00  0.00    +0.041 A 
ATOM     24 CL   LIG    1      -41.440  72.150  23.307  0.00  0.00    -0.084 Cl
ATOM     25  C   LIG    1      -40.414  74.584  23.862  0.00  0.00    +0.024 A 
ATOM     26  C   LIG    1      -39.442  75.406  24.420  0.00  0.00    -0.042 A 
ATOM     27  C   LIG    1      -39.372  76.893  24.343  0.00  0.00    +0.037 C 
ATOM     28  C   LIG    1      -38.315  77.228  25.400  0.00  0.00    +0.024 C 
ENDBRANCH  18  19
ENDBRANCH   3  18
TORSDOF 4
ENDMDL
MODEL 2
REMARK VINA RESULT:      -5.7      3.341      4.248
REMARK  Name = pdb/CHEMBL211883.pdb
REMARK                            x       y       z     vdW  Elec       q    Type
REMARK                         _______ _______ _______ _____ _____    ______ ____
ROOT
ATOM      1  C   LIG    1      -35.186  79.627  27.924  0.00  0.00    +0.106 A 
ATOM      2  C   LIG    1      -36.385  78.908  27.916  0.00  0.00    +0.098 A 
ATOM      3  C   LIG    1      -36.087  77.525  27.595  0.00  0.00    +0.121 A 
ATOM      4  N   LIG    1      -34.809  77.192  27.467  0.00  0.00    -0.202 NA
ATOM      5  S   LIG    1      -33.897  78.546  27.645  0.00  0.00    +0.029 S 
ENDROOT
BRANCH   1  10
ATOM      6  C   LIG    1      -34.082  83.716  30.346  0.00  0.00    +0.129 C 
ATOM      7  N   LIG    1      -34.424  82.964  29.155  0.00  0.00    -0.302 N 
ATOM      8  H   LIG    1      -34.972  83.445  28.458  0.00  0.00    +0.150 HD
ATOM      9  C   LIG    1      -34.644  81.605  29.291  0.00  0.00    +0.304 C 
ATOM     10  N   LIG    1      -34.967  80.998  28.092  0.00  0.00    -0.262 N 
ATOM     11  H   LIG    1      -35.052  81.580  27.267  0.00  0.00    +0.157 HD
ATOM     12  O   LIG    1      -34.515  81.060  30.380  0.00  0.00    -0.253 OA
ENDBRANCH   1  10
BRANCH   2  13
ATOM     13  C   LIG    1      -37.672  79.520  28.191  0.00  0.00    +0.246 C 
ATOM     14  N   LIG    1      -38.376  79.050  29.255  0.00  0.00    -0.325 N 
ATOM     15  H   LIG    1      -39.224  79.535  29.520  0.00  0.00    +0.145 HD
ATOM     16  H   LIG    1      -37.972  78.407  29.926  0.00  0.00    +0.145 HD
ATOM     17  O   LIG    1      -38.148  80.416  27.482  0.00  0.00    -0.270 OA
ENDBRANCH   2  13
BRANCH   3  18
ATOM     18  S   LIG    1      -37.261  76.221  27.361  0.00  0.00    -0.096 S 
BRANCH  18  19
ATOM     19  C   LIG    1      -37.552  76.361  25.550  0.00  0.00    +0.083 C 
ATOM     20  C   LIG    1      -38.350  75.197  25.007  0.00  0.00    -0.031 A 
ATOM     21  C   LIG    1      -38.030  73.845  25.028  0.00  0.00    +0.006 A 
ATOM     22  C   LIG    1      -38.962  72.922  24.536  0.00  0.00    +0.020 A 
ATOM     23  C   LIG    1      -40.170  73.362  23.981  0.00  0.00    +0.041 A 
ATOM     24 CL   LIG    1      -41.319  72.210  23.419  0.00  0.00    -0.084 Cl
ATOM     25  C   LIG    1      -40.441  74.724  23.858  0.00  0.00    +0.024 A 
ATOM     26  C   LIG    1      -39.517  75.627  24.368  0.00  0.00    -0.042 A 
ATOM     27  C   LIG    1      -39.540  77.112  24.229  0.00  0.00    +0.037 C 
ATOM     28  C   LIG    1      -38.494  77.556  25.257  0.00  0.00    +0.024 C 
ENDBRANCH  18  19
ENDBRANCH   3  18
TORSDOF 4
ENDMDL
MODEL 3
REMARK VINA RESULT:      -5.6     18.703     20.081
REMARK  Name = pdb/CHEMBL211883.pdb
REMARK                            x       y       z     vdW  Elec       q    Type
REMARK                         _______ _______ _______ _____ _____    ______ ____
ROOT
ATOM      1  C   LIG    1      -22.888  83.183  14.293  0.00  0.00    +0.106 A 
ATOM      2  C   LIG    1      -22.798  82.149  15.229  0.00  0.00    +0.098 A 
ATOM      3  C   LIG    1      -23.611  81.041  14.766  0.00  0.00    +0.121 A 
ATOM      4  N   LIG    1      -24.182  81.161  13.575  0.00  0.00    -0.202 NA
ATOM      5  S   LIG    1      -23.838  82.652  12.979  0.00  0.00    +0.029 S 
ENDROOT
BRANCH   1  10
ATOM      6  C   LIG    1      -19.455  86.626  13.888  0.00  0.00    +0.129 C 
ATOM      7  N   LIG    1      -20.805  86.162  14.134  0.00  0.00    -0.302 N 
ATOM      8  H   LIG    1      -21.352  86.690  14.797  0.00  0.00    +0.150 HD
ATOM      9  C   LIG    1      -21.038  84.799  14.079  0.00  0.00    +0.304 C 
ATOM     10  N   LIG    1      -22.359  84.477  14.335  0.00  0.00    -0.262 N 
ATOM     11  H   LIG    1      -22.999  85.227  14.570  0.00  0.00    +0.157 HD
ATOM     12  O   LIG    1      -20.134  84.023  13.796  0.00  0.00    -0.253 OA
ENDBRANCH   1  10
BRANCH   2  13
ATOM     13  C   LIG    1      -22.001  82.250  16.438  0.00  0.00    +0.246 C 
ATOM     14  N   LIG    1      -20.659  82.059  16.324  0.00  0.00    -0.325 N 
ATOM     15  H   LIG    1      -20.082  82.227  17.137  0.00  0.00    +0.145 HD
ATOM     16  H   LIG    1      -20.200  81.999  15.424  0.00  0.00    +0.145 HD
ATOM     17  O   LIG    1      -22.502  82.468  17.549  0.00  0.00    -0.270 OA
ENDBRANCH   2  13
BRANCH   3  18
ATOM     18  S   LIG    1      -23.919  79.527  15.631  0.00  0.00    -0.096 S 
BRANCH  18  19
ATOM     19  C   LIG    1      -23.161  78.322  14.466  0.00  0.00    +0.083 C 
ATOM     20  C   LIG    1      -21.809  77.841  14.940  0.00  0.00    -0.031 A 
ATOM     21  C   LIG    1      -20.663  78.586  15.187  0.00  0.00    +0.006 A 
ATOM     22  C   LIG    1      -19.533  77.939  15.705  0.00  0.00    +0.020 A 
ATOM     23  C   LIG    1      -19.543  76.554  15.913  0.00  0.00    +0.041 A 
ATOM     24 CL   LIG    1      -18.159  75.784  16.587  0.00  0.00    -0.084 Cl
ATOM     25  C   LIG    1      -20.654  75.790  15.559  0.00  0.00    +0.024 A 
ATOM     26  C   LIG    1      -21.774  76.448  15.066  0.00  0.00    -0.042 A 
ATOM     27  C   LIG    1      -23.009  75.825  14.507  0.00  0.00    +0.037 C 
ATOM     28  C   LIG    1      -23.982  77.008  14.457  0.00  0.00    +0.024 C 
ENDBRANCH  18  19
ENDBRANCH   3  18
TORSDOF 4
ENDMDL
MODEL 4
REMARK VINA RESULT:      -5.5     20.471     21.760
REMARK  Name = pdb/CHEMBL211883.pdb
REMARK                            x       y       z     vdW  Elec       q    Type
REMARK                         _______ _______ _______ _____ _____    ______ ____
ROOT
ATOM      1  C   LIG    1      -19.662  81.691  15.259  0.00  0.00    +0.106 A 
ATOM      2  C   LIG    1      -20.944  82.241  15.343  0.00  0.00    +0.098 A 
ATOM      3  C   LIG    1      -21.092  83.222  14.285  0.00  0.00    +0.121 A 
ATOM      4  N   LIG    1      -20.088  83.348  13.427  0.00  0.00    -0.202 NA
ATOM      5  S   LIG    1      -18.874  82.347  13.896  0.00  0.00    +0.029 S 
ENDROOT
BRANCH   1  10
ATOM      6  C   LIG    1      -18.473  77.297  17.012  0.00  0.00    +0.129 C 
ATOM      7  N   LIG    1      -18.388  78.742  16.965  0.00  0.00    -0.302 N 
ATOM      8  H   LIG    1      -18.209  79.214  17.839  0.00  0.00    +0.150 HD
ATOM      9  C   LIG    1      -19.187  79.406  16.052  0.00  0.00    +0.304 C 
ATOM     10  N   LIG    1      -19.023  80.778  16.103  0.00  0.00    -0.262 N 
ATOM     11  H   LIG    1      -18.395  81.161  16.800  0.00  0.00    +0.157 HD
ATOM     12  O   LIG    1      -19.911  78.781  15.288  0.00  0.00    -0.253 OA
ENDBRANCH   1  10
BRANCH   2  13
ATOM     13  C   LIG    1      -21.907  81.843  16.354  0.00  0.00    +0.246 C 
ATOM     14  N   LIG    1      -22.480  80.616  16.227  0.00  0.00    -0.325 N 
ATOM     15  H   LIG    1      -23.072  80.284  16.977  0.00  0.00    +0.145 HD
ATOM     16  H   LIG    1      -22.152  79.937  15.551  0.00  0.00    +0.145 HD
ATOM     17  O   LIG    1      -22.236  82.584  17.289  0.00  0.00    -0.270 OA
ENDBRANCH   2  13
BRANCH   3  18
ATOM     18  S   LIG    1      -22.489  84.275  14.012  0.00  0.00    -0.096 S 
BRANCH  18  19
ATOM     19  C   LIG    1      -21.671  85.922  14.036  0.00  0.00    +0.083 C 
ATOM     20  C   LIG    1      -22.088  86.785  12.867  0.00  0.00    -0.031 A 
ATOM     21  C   LIG    1      -21.935  86.536  11.509  0.00  0.00    +0.006 A 
ATOM     22  C   LIG    1      -22.474  87.444  10.589  0.00  0.00    +0.020 A 
ATOM     23  C   LIG    1      -23.105  88.613  11.034  0.00  0.00    +0.041 A 
ATOM     24 CL   LIG    1      -23.797  89.697   9.889  0.00  0.00    -0.084 Cl
ATOM     25  C   LIG    1      -23.159  88.918  12.393  0.00  0.00    +0.024 A 
ATOM     26  C   LIG    1      -22.638  87.998  13.295  0.00  0.00    -0.042 A 
ATOM     27  C   LIG    1      -22.472  88.177  14.766  0.00  0.00    +0.037 C 
ATOM     28  C   LIG    1      -22.184  86.749  15.242  0.00  0.00    +0.024 C 
ENDBRANCH  18  19
ENDBRANCH   3  18
TORSDOF 4
ENDMDL
MODEL 5
REMARK VINA RESULT:      -5.4      5.650      7.602
REMARK  Name = pdb/CHEMBL211883.pdb
REMARK                            x       y       z     vdW  Elec       q    Type
REMARK                         _______ _______ _______ _____ _____    ______ ____
ROOT
ATOM      1  C   LIG    1      -35.435  68.728  25.094  0.00  0.00    +0.106 A 
ATOM      2  C   LIG    1      -36.622  69.446  24.919  0.00  0.00    +0.098 A 
ATOM      3  C   LIG    1      -36.819  70.294  26.080  0.00  0.00    +0.121 A 
ATOM      4  N   LIG    1      -35.859  70.306  26.995  0.00  0.00    -0.202 NA
ATOM      5  S   LIG    1      -34.699  69.233  26.548  0.00  0.00    +0.029 S 
ENDROOT
BRANCH   1  10
ATOM      6  C   LIG    1      -35.158  64.379  22.901  0.00  0.00    +0.129 C 
ATOM      7  N   LIG    1      -34.681  65.713  23.204  0.00  0.00    -0.302 N 
ATOM      8  H   LIG    1      -33.680  65.842  23.223  0.00  0.00    +0.150 HD
ATOM      9  C   LIG    1      -35.425  66.480  24.082  0.00  0.00    +0.304 C 
ATOM     10  N   LIG    1      -34.870  67.728  24.298  0.00  0.00    -0.262 N 
ATOM     11  H   LIG    1      -33.987  67.944  23.848  0.00  0.00    +0.157 HD
ATOM     12  O   LIG    1      -36.470  66.050  24.554  0.00  0.00    -0.253 OA
ENDBRANCH   1  10
BRANCH   2  13
ATOM     13  C   LIG    1      -37.459  69.307  23.742  0.00  0.00    +0.246 C 
ATOM     14  N   LIG    1      -38.523  68.463  23.825  0.00  0.00    -0.325 N 
ATOM     15  H   LIG    1      -39.173  68.435  23.050  0.00  0.00    +0.145 HD
ATOM     16  H   LIG    1      -38.821  68.058  24.704  0.00  0.00    +0.145 HD
ATOM     17  O   LIG    1      -37.220  69.897  22.681  0.00  0.00    -0.270 OA
ENDBRANCH   2  13
BRANCH   3  18
ATOM     18  S   LIG    1      -38.219  71.329  26.402  0.00  0.00    -0.096 S 
BRANCH  18  19
ATOM     19  C   LIG    1      -38.094  72.501  24.989  0.00  0.00    +0.083 C 
ATOM     20  C   LIG    1      -39.417  72.688  24.283  0.00  0.00    -0.031 A 
ATOM     21  C   LIG    1      -40.202  71.733  23.648  0.00  0.00    +0.006 A 
ATOM     22  C   LIG    1      -41.444  72.117  23.125  0.00  0.00    +0.020 A 
ATOM     23  C   LIG    1      -41.859  73.453  23.192  0.00  0.00    +0.041 A 
ATOM     24 CL   LIG    1      -43.406  73.897  22.580  0.00  0.00    -0.084 Cl
ATOM     25  C   LIG    1      -41.023  74.431  23.728  0.00  0.00    +0.024 A 
ATOM     26  C   LIG    1      -39.802  74.032  24.261  0.00  0.00    -0.042 A 
ATOM     27  C   LIG    1      -38.708  74.915  24.759  0.00  0.00    +0.037 C 
ATOM     28  C   LIG    1      -37.807  73.931  25.512  0.00  0.00    +0.024 C 
ENDBRANCH  18  19
ENDBRANCH   3  18
TORSDOF 4
ENDMDL
MODEL 6
REMARK VINA RESULT:      -5.4      6.279      8.023
REMARK  Name = pdb/CHEMBL211883.pdb
REMARK                            x       y       z     vdW  Elec       q    Type
REMARK                         _______ _______ _______ _____ _____    ______ ____
ROOT
ATOM      1  C   LIG    1      -35.417  67.950  25.907  0.00  0.00    +0.106 A 
ATOM      2  C   LIG    1      -35.895  68.283  24.636  0.00  0.00    +0.098 A 
ATOM      3  C   LIG    1      -36.775  69.430  24.764  0.00  0.00    +0.121 A 
ATOM      4  N   LIG    1      -36.888  69.979  25.966  0.00  0.00    -0.202 NA
ATOM      5  S   LIG    1      -36.003  69.093  27.029  0.00  0.00    +0.029 S 
ENDROOT
BRANCH   1  10
ATOM      6  C   LIG    1      -34.309  63.281  26.782  0.00  0.00    +0.129 C 
ATOM      7  N   LIG    1      -34.007  64.695  26.714  0.00  0.00    -0.302 N 
ATOM      8  H   LIG    1      -33.342  65.050  27.386  0.00  0.00    +0.150 HD
ATOM      9  C   LIG    1      -35.021  65.554  26.331  0.00  0.00    +0.304 C 
ATOM     10  N   LIG    1      -34.617  66.876  26.308  0.00  0.00    -0.262 N 
ATOM     11  H   LIG    1      -33.671  67.094  26.600  0.00  0.00    +0.157 HD
ATOM     12  O   LIG    1      -36.125  65.118  26.027  0.00  0.00    -0.253 OA
ENDBRANCH   1  10
BRANCH   2  13
ATOM     13  C   LIG    1      -35.526  67.550  23.439  0.00  0.00    +0.246 C 
ATOM     14  N   LIG    1      -36.277  66.464  23.111  0.00  0.00    -0.325 N 
ATOM     15  H   LIG    1      -36.095  66.007  22.227  0.00  0.00    +0.145 HD
ATOM     16  H   LIG    1      -37.147  66.250  23.582  0.00  0.00    +0.145 HD
ATOM     17  O   LIG    1      -34.551  67.860  22.742  0.00  0.00    -0.270 OA
ENDBRANCH   2  13
BRANCH   3  18
ATOM     18  S   LIG    1      -37.716  70.185  23.469  0.00  0.00    -0.096 S 
BRANCH  18  19
ATOM     19  C   LIG    1      -39.129  70.856  24.437  0.00  0.00    +0.083 C 
ATOM     20  C   LIG    1      -39.106  72.366  24.510  0.00  0.00    -0.031 A 
ATOM     21  C   LIG    1      -38.123  73.191  25.043  0.00  0.00    +0.006 A 
ATOM     22  C   LIG    1      -38.272  74.580  24.930  0.00  0.00    +0.020 A 
ATOM     23  C   LIG    1      -39.420  75.124  24.342  0.00  0.00    +0.041 A 
ATOM     24 CL   LIG    1      -39.565  76.832  24.177  0.00  0.00    -0.084 Cl
ATOM     25  C   LIG    1      -40.457  74.299  23.910  0.00  0.00    +0.024 A 
ATOM     26  C   LIG    1      -40.287  72.923  24.010  0.00  0.00    -0.042 A 
ATOM     27  C   LIG    1      -41.306  71.869  23.735  0.00  0.00    +0.037 C 
ATOM     28  C   LIG    1      -40.458  70.595  23.683  0.00  0.00    +0.024 C 
ENDBRANCH  18  19
ENDBRANCH   3  18
TORSDOF 4
ENDMDL
MODEL 7
REMARK VINA RESULT:      -5.3      4.452      5.260
REMARK  Name = pdb/CHEMBL211883.pdb
REMARK                            x       y       z     vdW  Elec       q    Type
REMARK                         _______ _______ _______ _____ _____    ______ ____
ROOT
ATOM      1  C   LIG    1      -36.035  82.293  28.296  0.00  0.00    +0.106 A 
ATOM      2  C   LIG    1      -35.883  80.919  28.085  0.00  0.00    +0.098 A 
ATOM      3  C   LIG    1      -37.202  80.320  28.007  0.00  0.00    +0.121 A 
ATOM      4  N   LIG    1      -38.246  81.138  28.054  0.00  0.00    -0.202 NA
ATOM      5  S   LIG    1      -37.698  82.670  28.276  0.00  0.00    +0.029 S 
ENDROOT
BRANCH   1  10
ATOM      6  C   LIG    1      -32.523  84.626  30.750  0.00  0.00    +0.129 C 
ATOM      7  N   LIG    1      -33.381  84.410  29.603  0.00  0.00    -0.302 N 
ATOM      8  H   LIG    1      -33.653  85.229  29.080  0.00  0.00    +0.150 HD
ATOM      9  C   LIG    1      -34.303  83.381  29.672  0.00  0.00    +0.304 C 
ATOM     10  N   LIG    1      -35.066  83.275  28.524  0.00  0.00    -0.262 N 
ATOM     11  H   LIG    1      -34.920  83.954  27.786  0.00  0.00    +0.157 HD
ATOM     12  O   LIG    1      -34.358  82.660  30.660  0.00  0.00    -0.253 OA
ENDBRANCH   1  10
BRANCH   2  13
ATOM     13  C   LIG    1      -34.586  80.279  27.976  0.00  0.00    +0.246 C 
ATOM     14  N   LIG    1      -34.022  79.803  29.119  0.00  0.00    -0.325 N 
ATOM     15  H   LIG    1      -33.169  79.264  29.044  0.00  0.00    +0.145 HD
ATOM     16  H   LIG    1      -34.534  79.754  29.991  0.00  0.00    +0.145 HD
ATOM     17  O   LIG    1      -33.978  80.183  26.902  0.00  0.00    -0.270 OA
ENDBRANCH   2  13
BRANCH   3  18
ATOM     18  S   LIG    1      -37.567  78.595  27.849  0.00  0.00    -0.096 S 
BRANCH  18  19
ATOM     19  C   LIG    1      -38.400  78.584  26.208  0.00  0.00    +0.083 C 
ATOM     20  C   LIG    1      -38.508  77.191  25.632  0.00  0.00    -0.031 A 
ATOM     21  C   LIG    1      -37.486  76.304  25.314  0.00  0.00    +0.006 A 
ATOM     22  C   LIG    1      -37.820  75.021  24.862  0.00  0.00    +0.020 A 
ATOM     23  C   LIG    1      -39.161  74.660  24.681  0.00  0.00    +0.041 A 
ATOM     24 CL   LIG    1      -39.552  73.065  24.164  0.00  0.00    -0.084 Cl
ATOM     25  C   LIG    1      -40.181  75.586  24.892  0.00  0.00    +0.024 A 
ATOM     26  C   LIG    1      -39.836  76.849  25.358  0.00  0.00    -0.042 A 
ATOM     27  C   LIG    1      -40.740  78.024  25.525  0.00  0.00    +0.037 C 
ATOM     28  C   LIG    1      -39.890  78.978  26.369  0.00  0.00    +0.024 C 
ENDBRANCH  18  19
ENDBRANCH   3  18
TORSDOF 4
ENDMDL
MODEL 8
REMARK VINA RESULT:      -5.3      2.778      4.178
REMARK  Name = pdb/CHEMBL211883.pdb
REMARK                            x       y       z     vdW  Elec       q    Type
REMARK                         _______ _______ _______ _____ _____    ______ ____
ROOT
ATOM      1  C   LIG    1      -36.381  75.782  26.819  0.00  0.00    +0.106 A 
ATOM      2  C   LIG    1      -37.685  76.038  26.383  0.00  0.00    +0.098 A 
ATOM      3  C   LIG    1      -38.550  74.989  26.889  0.00  0.00    +0.121 A 
ATOM      4  N   LIG    1      -38.007  74.089  27.697  0.00  0.00    -0.202 NA
ATOM      5  S   LIG    1      -36.401  74.407  27.828  0.00  0.00    +0.029 S 
ENDROOT
BRANCH   1  10
ATOM      6  C   LIG    1      -32.602  78.759  27.629  0.00  0.00    +0.129 C 
ATOM      7  N   LIG    1      -33.362  77.812  26.840  0.00  0.00    -0.302 N 
ATOM      8  H   LIG    1      -33.321  77.922  25.837  0.00  0.00    +0.150 HD
ATOM      9  C   LIG    1      -34.553  77.343  27.365  0.00  0.00    +0.304 C 
ATOM     10  N   LIG    1      -35.191  76.453  26.522  0.00  0.00    -0.262 N 
ATOM     11  H   LIG    1      -34.772  76.264  25.618  0.00  0.00    +0.157 HD
ATOM     12  O   LIG    1      -34.924  77.695  28.478  0.00  0.00    -0.253 OA
ENDBRANCH   1  10
BRANCH   2  13
ATOM     13  C   LIG    1      -38.029  77.183  25.561  0.00  0.00    +0.246 C 
ATOM     14  N   LIG    1      -38.582  78.259  26.182  0.00  0.00    -0.325 N 
ATOM     15  H   LIG    1      -38.731  79.100  25.640  0.00  0.00    +0.145 HD
ATOM     16  H   LIG    1      -38.620  78.336  27.191  0.00  0.00    +0.145 HD
ATOM     17  O   LIG    1      -37.866  77.195  24.334  0.00  0.00    -0.270 OA
ENDBRANCH   2  13
BRANCH   3  18
ATOM     18  S   LIG    1      -40.275  74.789  26.543  0.00  0.00    -0.096 S 
BRANCH  18  19
ATOM     19  C   LIG    1      -40.221  74.569  24.717  0.00  0.00    +0.083 C 
ATOM     20  C   LIG    1      -39.910  73.143  24.322  0.00  0.00    -0.031 A 
ATOM     21  C   LIG    1      -38.782  72.389  24.621  0.00  0.00    +0.006 A 
ATOM     22  C   LIG    1      -38.738  71.048  24.218  0.00  0.00    +0.020 A 
ATOM     23  C   LIG    1      -39.791  70.497  23.477  0.00  0.00    +0.041 A 
ATOM     24 CL   LIG    1      -39.736  68.836  23.026  0.00  0.00    -0.084 Cl
ATOM     25  C   LIG    1      -40.870  71.284  23.080  0.00  0.00    +0.024 A 
ATOM     26  C   LIG    1      -40.909  72.607  23.504  0.00  0.00    -0.042 A 
ATOM     27  C   LIG    1      -41.890  73.654  23.094  0.00  0.00    +0.037 C 
ATOM     28  C   LIG    1      -41.638  74.763  24.120  0.00  0.00    +0.024 C 
ENDBRANCH  18  19
ENDBRANCH   3  18
TORSDOF 4
ENDMDL
MODEL 9
REMARK VINA RESULT:      -5.3      8.192     11.693
REMARK  Name = pdb/CHEMBL211883.pdb
REMARK                            x       y       z     vdW  Elec       q    Type
REMARK                         _______ _______ _______ _____ _____    ______ ____
ROOT
ATOM      1  C   LIG    1      -44.308  73.963  20.541  0.00  0.00    +0.106 A 
ATOM      2  C   LIG    1      -43.761  72.889  21.249  0.00  0.00    +0.098 A 
ATOM      3  C   LIG    1      -43.549  73.308  22.622  0.00  0.00    +0.121 A 
ATOM      4  N   LIG    1      -43.969  74.520  22.961  0.00  0.00    -0.202 NA
ATOM      5  S   LIG    1      -44.570  75.256  21.622  0.00  0.00    +0.029 S 
ENDROOT
BRANCH   1  10
ATOM      6  C   LIG    1      -46.919  73.361  16.465  0.00  0.00    +0.129 C 
ATOM      7  N   LIG    1      -45.792  73.865  17.221  0.00  0.00    -0.302 N 
ATOM      8  H   LIG    1      -44.915  73.944  16.728  0.00  0.00    +0.150 HD
ATOM      9  C   LIG    1      -45.723  73.547  18.565  0.00  0.00    +0.304 C 
ATOM     10  N   LIG    1      -44.603  74.079  19.179  0.00  0.00    -0.262 N 
ATOM     11  H   LIG    1      -43.942  74.593  18.609  0.00  0.00    +0.157 HD
ATOM     12  O   LIG    1      -46.611  72.892  19.097  0.00  0.00    -0.253 OA
ENDBRANCH   1  10
BRANCH   2  13
ATOM     13  C   LIG    1      -43.481  71.604  20.637  0.00  0.00    +0.246 C 
ATOM     14  N   LIG    1      -42.369  71.508  19.859  0.00  0.00    -0.325 N 
ATOM     15  H   LIG    1      -42.106  70.595  19.512  0.00  0.00    +0.145 HD
ATOM     16  H   LIG    1      -41.676  72.244  19.819  0.00  0.00    +0.145 HD
ATOM     17  O   LIG    1      -44.225  70.624  20.775  0.00  0.00    -0.270 OA
ENDBRANCH   2  13
BRANCH   3  18
ATOM     18  S   LIG    1      -42.788  72.357  23.907  0.00  0.00    -0.096 S 
BRANCH  18  19
ATOM     19  C   LIG    1      -41.068  72.249  23.262  0.00  0.00    +0.083 C 
ATOM     20  C   LIG    1      -40.158  73.283  23.885  0.00  0.00    -0.031 A 
ATOM     21  C   LIG    1      -40.269  74.667  23.850  0.00  0.00    +0.006 A 
ATOM     22  C   LIG    1      -39.349  75.438  24.572  0.00  0.00    +0.020 A 
ATOM     23  C   LIG    1      -38.301  74.823  25.268  0.00  0.00    +0.041 A 
ATOM     24 CL   LIG    1      -37.205  75.786  26.182  0.00  0.00    -0.084 Cl
ATOM     25  C   LIG    1      -38.123  73.442  25.210  0.00  0.00    +0.024 A 
ATOM     26  C   LIG    1      -39.056  72.688  24.507  0.00  0.00    -0.042 A 
ATOM     27  C   LIG    1      -38.989  71.229  24.207  0.00  0.00    +0.037 C 
ATOM     28  C   LIG    1      -40.412  70.925  23.727  0.00  0.00    +0.024 C 
ENDBRANCH  18  19
ENDBRANCH   3  18
TORSDOF 4
ENDMDL
