MODEL 1
REMARK VINA RESULT:      -7.2      0.000      0.000
REMARK  Name = pdb/CHEMBL3932808.pdb
REMARK                            x       y       z     vdW  Elec       q    Type
REMARK                         _______ _______ _______ _____ _____    ______ ____
ROOT
ATOM      1  C   LIG    1      -29.852  75.932  31.124  0.00  0.00    +0.149 A 
ATOM      2  N   LIG    1      -29.518  74.724  31.603  0.00  0.00    -0.160 NA
ATOM      3  N   LIG    1      -28.270  74.839  32.130  0.00  0.00    -0.218 N 
ATOM      4  C   LIG    1      -27.824  76.173  32.051  0.00  0.00    +0.129 A 
ATOM      5  C   LIG    1      -28.827  76.861  31.396  0.00  0.00    +0.078 A 
ENDROOT
BRANCH   3   6
ATOM      6  C   LIG    1      -27.640  73.645  32.638  0.00  0.00    +0.067 A 
ATOM      7  C   LIG    1      -27.084  72.731  31.720  0.00  0.00    +0.028 A 
ATOM      8  C   LIG    1      -26.455  71.556  32.156  0.00  0.00    +0.002 A 
ATOM      9  C   LIG    1      -26.383  71.262  33.512  0.00  0.00    +0.000 A 
ATOM     10  C   LIG    1      -26.920  72.152  34.430  0.00  0.00    +0.002 A 
ATOM     11  C   LIG    1      -27.523  73.341  33.998  0.00  0.00    +0.028 A 
ENDBRANCH   3   6
BRANCH   4  12
ATOM     12  N   LIG    1      -26.630  76.732  32.515  0.00  0.00    -0.266 N 
ATOM     13  H   LIG    1      -26.524  76.878  33.503  0.00  0.00    +0.157 HD
ATOM     14  C   LIG    1      -25.537  77.171  31.701  0.00  0.00    +0.251 C 
ATOM     15  O   LIG    1      -25.590  77.108  30.475  0.00  0.00    -0.270 OA
BRANCH  14  16
ATOM     16  C   LIG    1      -24.312  77.649  32.383  0.00  0.00    +0.056 A 
ATOM     17  C   LIG    1      -23.042  77.106  32.177  0.00  0.00    +0.056 A 
ATOM     18 CL   LIG    1      -22.713  75.779  31.129  0.00  0.00    -0.083 Cl
ATOM     19  C   LIG    1      -21.959  77.618  32.878  0.00  0.00    +0.059 A 
ATOM     20  C   LIG    1      -22.134  78.645  33.803  0.00  0.00    +0.134 A 
ATOM     21  F   LIG    1      -21.018  79.025  34.427  0.00  0.00    -0.205 F 
ATOM     22  C   LIG    1      -23.384  79.228  34.067  0.00  0.00    +0.039 A 
ATOM     23  C   LIG    1      -24.464  78.700  33.316  0.00  0.00    +0.027 A 
BRANCH  22  24
ATOM     24  C   LIG    1      -23.617  80.308  35.070  0.00  0.00    +0.109 A 
ATOM     25  C   LIG    1      -22.754  81.373  35.348  0.00  0.00    +0.149 A 
ATOM     26  F   LIG    1      -21.593  81.566  34.717  0.00  0.00    -0.203 F 
ATOM     27  C   LIG    1      -23.074  82.306  36.327  0.00  0.00    +0.042 A 
ATOM     28  C   LIG    1      -24.261  82.182  37.027  0.00  0.00    +0.023 A 
ATOM     29  C   LIG    1      -25.083  81.118  36.711  0.00  0.00    +0.111 A 
ATOM     30  N   LIG    1      -24.792  80.192  35.762  0.00  0.00    -0.252 NA
ENDBRANCH  22  24
ENDBRANCH  14  16
ENDBRANCH   4  12
BRANCH   1  32
ATOM     31  N   LIG    1      -31.178  76.094  29.124  0.00  0.00    -0.208 NA
ATOM     32  C   LIG    1      -31.122  76.167  30.418  0.00  0.00    +0.241 C 
BRANCH  31  35
ATOM     33  C   LIG    1      -32.271  78.693  27.576  0.00  0.00    +0.070 C 
ATOM     34  C   LIG    1      -32.887  77.356  27.770  0.00  0.00    +0.085 A 
ATOM     35  C   LIG    1      -32.418  76.206  28.471  0.00  0.00    +0.111 A 
ATOM     36  C   LIG    1      -33.340  75.217  28.192  0.00  0.00    +0.059 A 
ATOM     37  C   LIG    1      -33.444  73.774  28.507  0.00  0.00    +0.067 C 
ATOM     38  N   LIG    1      -34.307  75.827  27.439  0.00  0.00    -0.279 N 
ATOM     39  H   LIG    1      -35.146  75.414  27.044  0.00  0.00    +0.189 HD
ATOM     40  N   LIG    1      -34.067  77.116  27.180  0.00  0.00    -0.177 NA
ENDBRANCH  31  35
BRANCH  32  41
ATOM     41  O   LIG    1      -32.154  76.451  31.247  0.00  0.00    -0.491 OA
ATOM     42  H   LIG    1      -31.929  77.173  31.845  0.00  0.00    +0.294 HD
ENDBRANCH  32  41
ENDBRANCH   1  32
TORSDOF 7
ENDMDL
MODEL 2
REMARK VINA RESULT:      -7.2      8.675     14.352
REMARK  Name = pdb/CHEMBL3932808.pdb
REMARK                            x       y       z     vdW  Elec       q    Type
REMARK                         _______ _______ _______ _____ _____    ______ ____
ROOT
ATOM      1  C   LIG    1      -31.446  86.794  30.911  0.00  0.00    +0.149 A 
ATOM      2  N   LIG    1      -32.240  87.704  30.328  0.00  0.00    -0.160 NA
ATOM      3  N   LIG    1      -33.151  87.017  29.587  0.00  0.00    -0.218 N 
ATOM      4  C   LIG    1      -32.978  85.629  29.760  0.00  0.00    +0.129 A 
ATOM      5  C   LIG    1      -31.883  85.493  30.591  0.00  0.00    +0.078 A 
ENDROOT
BRANCH   3   6
ATOM      6  C   LIG    1      -34.076  87.776  28.783  0.00  0.00    +0.067 A 
ATOM      7  C   LIG    1      -33.763  89.115  28.472  0.00  0.00    +0.028 A 
ATOM      8  C   LIG    1      -34.621  89.899  27.690  0.00  0.00    +0.002 A 
ATOM      9  C   LIG    1      -35.816  89.371  27.217  0.00  0.00    +0.000 A 
ATOM     10  C   LIG    1      -36.140  88.054  27.508  0.00  0.00    +0.002 A 
ATOM     11  C   LIG    1      -35.268  87.259  28.265  0.00  0.00    +0.028 A 
ENDBRANCH   3   6
BRANCH   4  12
ATOM     12  N   LIG    1      -33.724  84.575  29.225  0.00  0.00    -0.266 N 
ATOM     13  H   LIG    1      -33.563  84.315  28.269  0.00  0.00    +0.157 HD
ATOM     14  C   LIG    1      -34.751  83.845  29.905  0.00  0.00    +0.251 C 
ATOM     15  O   LIG    1      -35.082  84.129  31.053  0.00  0.00    -0.270 OA
BRANCH  14  16
ATOM     16  C   LIG    1      -35.365  82.694  29.202  0.00  0.00    +0.056 A 
ATOM     17  C   LIG    1      -36.726  82.593  28.911  0.00  0.00    +0.056 A 
ATOM     18 CL   LIG    1      -37.904  83.771  29.355  0.00  0.00    -0.083 Cl
ATOM     19  C   LIG    1      -37.203  81.464  28.259  0.00  0.00    +0.059 A 
ATOM     20  C   LIG    1      -36.341  80.423  27.921  0.00  0.00    +0.134 A 
ATOM     21  F   LIG    1      -36.932  79.386  27.325  0.00  0.00    -0.205 F 
ATOM     22  C   LIG    1      -34.965  80.454  28.195  0.00  0.00    +0.039 A 
ATOM     23  C   LIG    1      -34.506  81.632  28.838  0.00  0.00    +0.027 A 
BRANCH  22  24
ATOM     24  C   LIG    1      -34.014  79.349  27.876  0.00  0.00    +0.109 A 
ATOM     25  C   LIG    1      -33.859  78.162  28.599  0.00  0.00    +0.149 A 
ATOM     26  F   LIG    1      -34.579  77.859  29.682  0.00  0.00    -0.203 F 
ATOM     27  C   LIG    1      -32.918  77.215  28.213  0.00  0.00    +0.042 A 
ATOM     28  C   LIG    1      -32.131  77.449  27.099  0.00  0.00    +0.023 A 
ATOM     29  C   LIG    1      -32.327  78.633  26.413  0.00  0.00    +0.111 A 
ATOM     30  N   LIG    1      -33.237  79.573  26.772  0.00  0.00    -0.252 NA
ENDBRANCH  22  24
ENDBRANCH  14  16
ENDBRANCH   4  12
BRANCH   1  32
ATOM     31  N   LIG    1      -30.416  87.258  33.035  0.00  0.00    -0.208 NA
ATOM     32  C   LIG    1      -30.297  87.183  31.744  0.00  0.00    +0.241 C 
BRANCH  31  35
ATOM     33  C   LIG    1      -29.209  90.161  33.711  0.00  0.00    +0.070 C 
ATOM     34  C   LIG    1      -28.766  88.809  34.138  0.00  0.00    +0.085 A 
ATOM     35  C   LIG    1      -29.284  87.518  33.827  0.00  0.00    +0.111 A 
ATOM     36  C   LIG    1      -28.563  86.644  34.617  0.00  0.00    +0.059 A 
ATOM     37  C   LIG    1      -28.620  85.186  34.874  0.00  0.00    +0.067 C 
ATOM     38  N   LIG    1      -27.643  87.422  35.268  0.00  0.00    -0.279 N 
ATOM     39  H   LIG    1      -26.940  87.129  35.939  0.00  0.00    +0.189 HD
ATOM     40  N   LIG    1      -27.734  88.725  34.990  0.00  0.00    -0.177 NA
ENDBRANCH  31  35
BRANCH  32  41
ATOM     41  O   LIG    1      -29.175  87.437  31.031  0.00  0.00    -0.491 OA
ATOM     42  H   LIG    1      -29.389  87.833  30.178  0.00  0.00    +0.294 HD
ENDBRANCH  32  41
ENDBRANCH   1  32
TORSDOF 7
ENDMDL
MODEL 3
REMARK VINA RESULT:      -7.2      7.806     10.989
REMARK  Name = pdb/CHEMBL3932808.pdb
REMARK                            x       y       z     vdW  Elec       q    Type
REMARK                         _______ _______ _______ _____ _____    ______ ____
ROOT
ATOM      1  C   LIG    1      -36.384  69.505  25.577  0.00  0.00    +0.149 A 
ATOM      2  N   LIG    1      -35.837  68.548  26.342  0.00  0.00    -0.160 NA
ATOM      3  N   LIG    1      -34.829  69.132  27.044  0.00  0.00    -0.218 N 
ATOM      4  C   LIG    1      -34.779  70.514  26.774  0.00  0.00    +0.129 A 
ATOM      5  C   LIG    1      -35.760  70.743  25.829  0.00  0.00    +0.078 A 
ENDROOT
BRANCH   3   6
ATOM      6  C   LIG    1      -34.017  68.288  27.885  0.00  0.00    +0.067 A 
ATOM      7  C   LIG    1      -34.047  66.894  27.677  0.00  0.00    +0.028 A 
ATOM      8  C   LIG    1      -33.275  66.026  28.460  0.00  0.00    +0.002 A 
ATOM      9  C   LIG    1      -32.471  66.526  29.477  0.00  0.00    +0.000 A 
ATOM     10  C   LIG    1      -32.424  67.896  29.694  0.00  0.00    +0.002 A 
ATOM     11  C   LIG    1      -33.173  68.768  28.892  0.00  0.00    +0.028 A 
ENDBRANCH   3   6
BRANCH   4  12
ATOM     12  N   LIG    1      -33.934  71.487  27.316  0.00  0.00    -0.266 N 
ATOM     13  H   LIG    1      -32.973  71.498  27.027  0.00  0.00    +0.157 HD
ATOM     14  C   LIG    1      -34.299  72.461  28.300  0.00  0.00    +0.251 C 
ATOM     15  O   LIG    1      -35.430  72.490  28.779  0.00  0.00    -0.270 OA
BRANCH  14  16
ATOM     16  C   LIG    1      -33.288  73.475  28.681  0.00  0.00    +0.056 A 
ATOM     17  C   LIG    1      -32.143  73.192  29.427  0.00  0.00    +0.056 A 
ATOM     18 CL   LIG    1      -31.750  71.633  30.049  0.00  0.00    -0.083 Cl
ATOM     19  C   LIG    1      -31.263  74.218  29.743  0.00  0.00    +0.059 A 
ATOM     20  C   LIG    1      -31.529  75.527  29.347  0.00  0.00    +0.134 A 
ATOM     21  F   LIG    1      -30.618  76.420  29.740  0.00  0.00    -0.205 F 
ATOM     22  C   LIG    1      -32.666  75.883  28.606  0.00  0.00    +0.039 A 
ATOM     23  C   LIG    1      -33.531  74.808  28.277  0.00  0.00    +0.027 A 
BRANCH  22  24
ATOM     24  C   LIG    1      -33.001  77.276  28.187  0.00  0.00    +0.109 A 
ATOM     25  C   LIG    1      -32.474  77.953  27.083  0.00  0.00    +0.149 A 
ATOM     26  F   LIG    1      -31.597  77.409  26.235  0.00  0.00    -0.203 F 
ATOM     27  C   LIG    1      -32.847  79.263  26.811  0.00  0.00    +0.042 A 
ATOM     28  C   LIG    1      -33.754  79.901  27.639  0.00  0.00    +0.023 A 
ATOM     29  C   LIG    1      -34.252  79.188  28.713  0.00  0.00    +0.111 A 
ATOM     30  N   LIG    1      -33.901  77.909  29.001  0.00  0.00    -0.252 NA
ENDBRANCH  22  24
ENDBRANCH  14  16
ENDBRANCH   4  12
BRANCH   1  32
ATOM     31  N   LIG    1      -37.764  70.060  23.687  0.00  0.00    -0.208 NA
ATOM     32  C   LIG    1      -37.472  69.216  24.628  0.00  0.00    +0.241 C 
BRANCH  31  35
ATOM     33  C   LIG    1      -40.836  71.012  23.663  0.00  0.00    +0.070 C 
ATOM     34  C   LIG    1      -40.082  70.164  22.705  0.00  0.00    +0.085 A 
ATOM     35  C   LIG    1      -38.726  69.722  22.719  0.00  0.00    +0.111 A 
ATOM     36  C   LIG    1      -38.546  69.084  21.508  0.00  0.00    +0.059 A 
ATOM     37  C   LIG    1      -37.388  68.469  20.819  0.00  0.00    +0.067 C 
ATOM     38  N   LIG    1      -39.773  69.111  20.900  0.00  0.00    -0.279 N 
ATOM     39  H   LIG    1      -40.028  68.740  19.991  0.00  0.00    +0.189 HD
ATOM     40  N   LIG    1      -40.717  69.743  21.603  0.00  0.00    -0.177 NA
ENDBRANCH  31  35
BRANCH  32  41
ATOM     41  O   LIG    1      -38.086  68.032  24.857  0.00  0.00    -0.491 OA
ATOM     42  H   LIG    1      -39.013  68.067  24.594  0.00  0.00    +0.294 HD
ENDBRANCH  32  41
ENDBRANCH   1  32
TORSDOF 7
ENDMDL
MODEL 4
REMARK VINA RESULT:      -7.0      7.150     13.507
REMARK  Name = pdb/CHEMBL3932808.pdb
REMARK                            x       y       z     vdW  Elec       q    Type
REMARK                         _______ _______ _______ _____ _____    ______ ____
ROOT
ATOM      1  C   LIG    1      -32.102  73.944  29.856  0.00  0.00    +0.149 A 
ATOM      2  N   LIG    1      -32.038  75.264  29.629  0.00  0.00    -0.160 NA
ATOM      3  N   LIG    1      -32.967  75.547  28.677  0.00  0.00    -0.218 N 
ATOM      4  C   LIG    1      -33.694  74.389  28.340  0.00  0.00    +0.129 A 
ATOM      5  C   LIG    1      -33.130  73.369  29.080  0.00  0.00    +0.078 A 
ENDROOT
BRANCH   3   6
ATOM      6  C   LIG    1      -33.039  76.902  28.187  0.00  0.00    +0.067 A 
ATOM      7  C   LIG    1      -32.334  77.236  27.013  0.00  0.00    +0.028 A 
ATOM      8  C   LIG    1      -32.372  78.535  26.488  0.00  0.00    +0.002 A 
ATOM      9  C   LIG    1      -33.097  79.530  27.131  0.00  0.00    +0.000 A 
ATOM     10  C   LIG    1      -33.801  79.220  28.285  0.00  0.00    +0.002 A 
ATOM     11  C   LIG    1      -33.789  77.914  28.795  0.00  0.00    +0.028 A 
ENDBRANCH   3   6
BRANCH   4  12
ATOM     12  N   LIG    1      -34.762  74.247  27.449  0.00  0.00    -0.266 N 
ATOM     13  H   LIG    1      -34.561  74.205  26.467  0.00  0.00    +0.157 HD
ATOM     14  C   LIG    1      -36.149  74.204  27.803  0.00  0.00    +0.251 C 
ATOM     15  O   LIG    1      -36.513  74.322  28.970  0.00  0.00    -0.270 OA
BRANCH  14  16
ATOM     16  C   LIG    1      -37.132  73.950  26.724  0.00  0.00    +0.056 A 
ATOM     17  C   LIG    1      -37.350  72.698  26.146  0.00  0.00    +0.056 A 
ATOM     18 CL   LIG    1      -36.486  71.269  26.571  0.00  0.00    -0.083 Cl
ATOM     19  C   LIG    1      -38.287  72.570  25.129  0.00  0.00    +0.059 A 
ATOM     20  C   LIG    1      -38.986  73.681  24.665  0.00  0.00    +0.134 A 
ATOM     21  F   LIG    1      -39.835  73.425  23.667  0.00  0.00    -0.205 F 
ATOM     22  C   LIG    1      -38.808  74.969  25.193  0.00  0.00    +0.039 A 
ATOM     23  C   LIG    1      -37.863  75.062  26.247  0.00  0.00    +0.027 A 
BRANCH  22  24
ATOM     24  C   LIG    1      -39.516  76.189  24.705  0.00  0.00    +0.109 A 
ATOM     25  C   LIG    1      -38.954  77.217  23.942  0.00  0.00    +0.149 A 
ATOM     26  F   LIG    1      -37.684  77.221  23.531  0.00  0.00    -0.203 F 
ATOM     27  C   LIG    1      -39.715  78.319  23.568  0.00  0.00    +0.042 A 
ATOM     28  C   LIG    1      -41.042  78.393  23.950  0.00  0.00    +0.023 A 
ATOM     29  C   LIG    1      -41.554  77.349  24.697  0.00  0.00    +0.111 A 
ATOM     30  N   LIG    1      -40.831  76.265  25.076  0.00  0.00    -0.252 NA
ENDBRANCH  22  24
ENDBRANCH  14  16
ENDBRANCH   4  12
BRANCH   1  32
ATOM     31  N   LIG    1      -30.161  72.610  30.345  0.00  0.00    -0.208 NA
ATOM     32  C   LIG    1      -31.188  73.268  30.790  0.00  0.00    +0.241 C 
BRANCH  31  35
ATOM     33  C   LIG    1      -29.607  69.481  30.835  0.00  0.00    +0.070 C 
ATOM     34  C   LIG    1      -28.979  70.678  31.448  0.00  0.00    +0.085 A 
ATOM     35  C   LIG    1      -29.233  72.068  31.250  0.00  0.00    +0.111 A 
ATOM     36  C   LIG    1      -28.254  72.716  31.976  0.00  0.00    +0.059 A 
ATOM     37  C   LIG    1      -27.860  74.133  32.157  0.00  0.00    +0.067 C 
ATOM     38  N   LIG    1      -27.550  71.722  32.602  0.00  0.00    -0.279 N 
ATOM     39  H   LIG    1      -26.751  71.816  33.220  0.00  0.00    +0.189 HD
ATOM     40  N   LIG    1      -27.972  70.488  32.312  0.00  0.00    -0.177 NA
ENDBRANCH  31  35
BRANCH  32  41
ATOM     41  O   LIG    1      -31.539  73.415  32.089  0.00  0.00    -0.491 OA
ATOM     42  H   LIG    1      -32.428  73.779  32.168  0.00  0.00    +0.294 HD
ENDBRANCH  32  41
ENDBRANCH   1  32
TORSDOF 7
ENDMDL
MODEL 5
REMARK VINA RESULT:      -7.0      7.796     11.944
REMARK  Name = pdb/CHEMBL3932808.pdb
REMARK                            x       y       z     vdW  Elec       q    Type
REMARK                         _______ _______ _______ _____ _____    ______ ____
ROOT
ATOM      1  C   LIG    1      -36.021  69.321  25.338  0.00  0.00    +0.149 A 
ATOM      2  N   LIG    1      -36.984  70.255  25.297  0.00  0.00    -0.160 NA
ATOM      3  N   LIG    1      -36.481  71.366  25.899  0.00  0.00    -0.218 N 
ATOM      4  C   LIG    1      -35.138  71.161  26.268  0.00  0.00    +0.129 A 
ATOM      5  C   LIG    1      -34.854  69.854  25.923  0.00  0.00    +0.078 A 
ENDROOT
BRANCH   3   6
ATOM      6  C   LIG    1      -37.360  72.498  26.065  0.00  0.00    +0.067 A 
ATOM      7  C   LIG    1      -37.952  73.069  24.920  0.00  0.00    +0.028 A 
ATOM      8  C   LIG    1      -38.818  74.167  25.020  0.00  0.00    +0.002 A 
ATOM      9  C   LIG    1      -39.097  74.728  26.261  0.00  0.00    +0.000 A 
ATOM     10  C   LIG    1      -38.527  74.177  27.399  0.00  0.00    +0.002 A 
ATOM     11  C   LIG    1      -37.685  73.061  27.303  0.00  0.00    +0.028 A 
ENDBRANCH   3   6
BRANCH   4  12
ATOM     12  N   LIG    1      -34.241  72.053  26.862  0.00  0.00    -0.266 N 
ATOM     13  H   LIG    1      -33.529  72.467  26.288  0.00  0.00    +0.157 HD
ATOM     14  C   LIG    1      -34.205  72.406  28.249  0.00  0.00    +0.251 C 
ATOM     15  O   LIG    1      -34.983  71.902  29.056  0.00  0.00    -0.270 OA
BRANCH  14  16
ATOM     16  C   LIG    1      -33.240  73.447  28.675  0.00  0.00    +0.056 A 
ATOM     17  C   LIG    1      -32.117  73.192  29.464  0.00  0.00    +0.056 A 
ATOM     18 CL   LIG    1      -31.703  71.642  30.093  0.00  0.00    -0.083 Cl
ATOM     19  C   LIG    1      -31.281  74.242  29.821  0.00  0.00    +0.059 A 
ATOM     20  C   LIG    1      -31.569  75.545  29.422  0.00  0.00    +0.134 A 
ATOM     21  F   LIG    1      -30.702  76.462  29.854  0.00  0.00    -0.205 F 
ATOM     22  C   LIG    1      -32.687  75.872  28.638  0.00  0.00    +0.039 A 
ATOM     23  C   LIG    1      -33.506  74.775  28.270  0.00  0.00    +0.027 A 
BRANCH  22  24
ATOM     24  C   LIG    1      -33.046  77.258  28.214  0.00  0.00    +0.109 A 
ATOM     25  C   LIG    1      -32.513  77.948  27.121  0.00  0.00    +0.149 A 
ATOM     26  F   LIG    1      -31.608  77.426  26.289  0.00  0.00    -0.203 F 
ATOM     27  C   LIG    1      -32.912  79.250  26.843  0.00  0.00    +0.042 A 
ATOM     28  C   LIG    1      -33.849  79.865  27.653  0.00  0.00    +0.023 A 
ATOM     29  C   LIG    1      -34.351  79.140  28.717  0.00  0.00    +0.111 A 
ATOM     30  N   LIG    1      -33.975  77.869  29.011  0.00  0.00    -0.252 NA
ENDBRANCH  22  24
ENDBRANCH  14  16
ENDBRANCH   4  12
BRANCH   1  32
ATOM     31  N   LIG    1      -35.251  67.117  24.761  0.00  0.00    -0.208 NA
ATOM     32  C   LIG    1      -36.238  67.957  24.830  0.00  0.00    +0.241 C 
BRANCH  31  35
ATOM     33  C   LIG    1      -34.646  65.831  21.876  0.00  0.00    +0.070 C 
ATOM     34  C   LIG    1      -35.204  65.217  23.108  0.00  0.00    +0.085 A 
ATOM     35  C   LIG    1      -35.493  65.785  24.384  0.00  0.00    +0.111 A 
ATOM     36  C   LIG    1      -35.857  64.715  25.177  0.00  0.00    +0.059 A 
ATOM     37  C   LIG    1      -36.198  64.551  26.609  0.00  0.00    +0.067 C 
ATOM     38  N   LIG    1      -35.842  63.627  24.345  0.00  0.00    -0.279 N 
ATOM     39  H   LIG    1      -36.052  62.661  24.575  0.00  0.00    +0.189 HD
ATOM     40  N   LIG    1      -35.464  63.902  23.093  0.00  0.00    -0.177 NA
ENDBRANCH  31  35
BRANCH  32  41
ATOM     41  O   LIG    1      -37.519  67.714  24.467  0.00  0.00    -0.491 OA
ATOM     42  H   LIG    1      -38.036  67.394  25.216  0.00  0.00    +0.294 HD
ENDBRANCH  32  41
ENDBRANCH   1  32
TORSDOF 7
ENDMDL
MODEL 6
REMARK VINA RESULT:      -7.0     10.118     14.587
REMARK  Name = pdb/CHEMBL3932808.pdb
REMARK                            x       y       z     vdW  Elec       q    Type
REMARK                         _______ _______ _______ _____ _____    ______ ____
ROOT
ATOM      1  C   LIG    1      -36.600  79.501  27.844  0.00  0.00    +0.149 A 
ATOM      2  N   LIG    1      -35.521  78.774  28.174  0.00  0.00    -0.160 NA
ATOM      3  N   LIG    1      -35.786  77.489  27.816  0.00  0.00    -0.218 N 
ATOM      4  C   LIG    1      -37.037  77.405  27.173  0.00  0.00    +0.129 A 
ATOM      5  C   LIG    1      -37.557  78.685  27.208  0.00  0.00    +0.078 A 
ENDROOT
BRANCH   3   6
ATOM      6  C   LIG    1      -34.809  76.482  28.148  0.00  0.00    +0.067 A 
ATOM      7  C   LIG    1      -33.565  76.892  28.671  0.00  0.00    +0.028 A 
ATOM      8  C   LIG    1      -32.579  75.958  29.017  0.00  0.00    +0.002 A 
ATOM      9  C   LIG    1      -32.805  74.599  28.832  0.00  0.00    +0.000 A 
ATOM     10  C   LIG    1      -34.024  74.177  28.322  0.00  0.00    +0.002 A 
ATOM     11  C   LIG    1      -35.022  75.108  28.005  0.00  0.00    +0.028 A 
ENDBRANCH   3   6
BRANCH   4  12
ATOM     12  N   LIG    1      -37.665  76.291  26.609  0.00  0.00    -0.266 N 
ATOM     13  H   LIG    1      -38.106  75.631  27.224  0.00  0.00    +0.157 HD
ATOM     14  C   LIG    1      -37.701  75.966  25.216  0.00  0.00    +0.251 C 
ATOM     15  O   LIG    1      -37.130  76.665  24.382  0.00  0.00    -0.270 OA
BRANCH  14  16
ATOM     16  C   LIG    1      -38.502  74.790  24.799  0.00  0.00    +0.056 A 
ATOM     17  C   LIG    1      -39.756  74.877  24.193  0.00  0.00    +0.056 A 
ATOM     18 CL   LIG    1      -40.579  76.356  23.870  0.00  0.00    -0.083 Cl
ATOM     19  C   LIG    1      -40.431  73.712  23.853  0.00  0.00    +0.059 A 
ATOM     20  C   LIG    1      -39.881  72.464  24.138  0.00  0.00    +0.134 A 
ATOM     21  F   LIG    1      -40.645  71.428  23.785  0.00  0.00    -0.205 F 
ATOM     22  C   LIG    1      -38.631  72.306  24.756  0.00  0.00    +0.039 A 
ATOM     23  C   LIG    1      -37.957  73.514  25.067  0.00  0.00    +0.027 A 
BRANCH  22  24
ATOM     24  C   LIG    1      -38.021  70.989  25.104  0.00  0.00    +0.109 A 
ATOM     25  C   LIG    1      -37.614  70.006  24.197  0.00  0.00    +0.149 A 
ATOM     26  F   LIG    1      -37.706  70.141  22.872  0.00  0.00    -0.203 F 
ATOM     27  C   LIG    1      -37.079  68.804  24.648  0.00  0.00    +0.042 A 
ATOM     28  C   LIG    1      -36.945  68.584  26.007  0.00  0.00    +0.023 A 
ATOM     29  C   LIG    1      -37.355  69.588  26.863  0.00  0.00    +0.111 A 
ATOM     30  N   LIG    1      -37.882  70.768  26.447  0.00  0.00    -0.252 NA
ENDBRANCH  22  24
ENDBRANCH  14  16
ENDBRANCH   4  12
BRANCH   1  32
ATOM     31  N   LIG    1      -35.777  81.758  27.731  0.00  0.00    -0.208 NA
ATOM     32  C   LIG    1      -36.693  80.938  28.146  0.00  0.00    +0.241 C 
BRANCH  31  35
ATOM     33  C   LIG    1      -34.451  83.498  30.088  0.00  0.00    +0.070 C 
ATOM     34  C   LIG    1      -35.330  83.909  28.963  0.00  0.00    +0.085 A 
ATOM     35  C   LIG    1      -35.937  83.141  27.926  0.00  0.00    +0.111 A 
ATOM     36  C   LIG    1      -36.521  84.070  27.089  0.00  0.00    +0.059 A 
ATOM     37  C   LIG    1      -37.235  83.999  25.793  0.00  0.00    +0.067 C 
ATOM     38  N   LIG    1      -36.307  85.282  27.689  0.00  0.00    -0.279 N 
ATOM     39  H   LIG    1      -36.591  86.201  27.363  0.00  0.00    +0.189 HD
ATOM     40  N   LIG    1      -35.604  85.214  28.823  0.00  0.00    -0.177 NA
ENDBRANCH  31  35
BRANCH  32  41
ATOM     41  O   LIG    1      -37.789  81.266  28.870  0.00  0.00    -0.491 OA
ATOM     42  H   LIG    1      -38.308  80.483  29.087  0.00  0.00    +0.294 HD
ENDBRANCH  32  41
ENDBRANCH   1  32
TORSDOF 7
ENDMDL
MODEL 7
REMARK VINA RESULT:      -7.0     10.230     15.677
REMARK  Name = pdb/CHEMBL3932808.pdb
REMARK                            x       y       z     vdW  Elec       q    Type
REMARK                         _______ _______ _______ _____ _____    ______ ____
ROOT
ATOM      1  C   LIG    1      -38.974  84.654  22.570  0.00  0.00    +0.149 A 
ATOM      2  N   LIG    1      -38.596  85.863  23.012  0.00  0.00    -0.160 NA
ATOM      3  N   LIG    1      -38.064  85.681  24.250  0.00  0.00    -0.218 N 
ATOM      4  C   LIG    1      -38.034  84.312  24.577  0.00  0.00    +0.129 A 
ATOM      5  C   LIG    1      -38.629  83.664  23.512  0.00  0.00    +0.078 A 
ENDROOT
BRANCH   3   6
ATOM      6  C   LIG    1      -37.656  86.853  24.987  0.00  0.00    +0.067 A 
ATOM      7  C   LIG    1      -37.946  86.921  26.364  0.00  0.00    +0.028 A 
ATOM      8  C   LIG    1      -37.570  88.032  27.132  0.00  0.00    +0.002 A 
ATOM      9  C   LIG    1      -36.913  89.103  26.539  0.00  0.00    +0.000 A 
ATOM     10  C   LIG    1      -36.615  89.052  25.185  0.00  0.00    +0.002 A 
ATOM     11  C   LIG    1      -36.963  87.929  24.423  0.00  0.00    +0.028 A 
ENDBRANCH   3   6
BRANCH   4  12
ATOM     12  N   LIG    1      -37.529  83.689  25.723  0.00  0.00    -0.266 N 
ATOM     13  H   LIG    1      -38.180  83.298  26.379  0.00  0.00    +0.157 HD
ATOM     14  C   LIG    1      -36.147  83.596  26.085  0.00  0.00    +0.251 C 
ATOM     15  O   LIG    1      -35.270  84.106  25.393  0.00  0.00    -0.270 OA
BRANCH  14  16
ATOM     16  C   LIG    1      -35.799  82.810  27.293  0.00  0.00    +0.056 A 
ATOM     17  C   LIG    1      -35.643  83.364  28.564  0.00  0.00    +0.056 A 
ATOM     18 CL   LIG    1      -35.794  85.044  28.918  0.00  0.00    -0.083 Cl
ATOM     19  C   LIG    1      -35.301  82.541  29.629  0.00  0.00    +0.059 A 
ATOM     20  C   LIG    1      -35.086  81.179  29.433  0.00  0.00    +0.134 A 
ATOM     21  F   LIG    1      -34.737  80.509  30.533  0.00  0.00    -0.205 F 
ATOM     22  C   LIG    1      -35.215  80.561  28.180  0.00  0.00    +0.039 A 
ATOM     23  C   LIG    1      -35.589  81.423  27.119  0.00  0.00    +0.027 A 
BRANCH  22  24
ATOM     24  C   LIG    1      -34.965  79.112  27.923  0.00  0.00    +0.109 A 
ATOM     25  C   LIG    1      -33.717  78.482  27.907  0.00  0.00    +0.149 A 
ATOM     26  F   LIG    1      -32.567  79.117  28.147  0.00  0.00    -0.203 F 
ATOM     27  C   LIG    1      -33.613  77.124  27.629  0.00  0.00    +0.042 A 
ATOM     28  C   LIG    1      -34.757  76.389  27.372  0.00  0.00    +0.023 A 
ATOM     29  C   LIG    1      -35.967  77.055  27.406  0.00  0.00    +0.111 A 
ATOM     30  N   LIG    1      -36.094  78.380  27.672  0.00  0.00    -0.252 NA
ENDBRANCH  22  24
ENDBRANCH  14  16
ENDBRANCH   4  12
BRANCH   1  32
ATOM     31  N   LIG    1      -40.876  84.886  21.115  0.00  0.00    -0.208 NA
ATOM     32  C   LIG    1      -39.655  84.475  21.278  0.00  0.00    +0.241 C 
BRANCH  31  35
ATOM     33  C   LIG    1      -43.034  82.700  20.165  0.00  0.00    +0.070 C 
ATOM     34  C   LIG    1      -42.445  83.853  19.437  0.00  0.00    +0.085 A 
ATOM     35  C   LIG    1      -41.474  84.814  19.845  0.00  0.00    +0.111 A 
ATOM     36  C   LIG    1      -41.421  85.729  18.812  0.00  0.00    +0.059 A 
ATOM     37  C   LIG    1      -40.711  87.010  18.593  0.00  0.00    +0.067 C 
ATOM     38  N   LIG    1      -42.268  85.240  17.854  0.00  0.00    -0.279 N 
ATOM     39  H   LIG    1      -42.492  85.646  16.951  0.00  0.00    +0.189 HD
ATOM     40  N   LIG    1      -42.888  84.108  18.198  0.00  0.00    -0.177 NA
ENDBRANCH  31  35
BRANCH  32  41
ATOM     41  O   LIG    1      -38.889  83.865  20.344  0.00  0.00    -0.491 OA
ATOM     42  H   LIG    1      -37.982  83.760  20.655  0.00  0.00    +0.294 HD
ENDBRANCH  32  41
ENDBRANCH   1  32
TORSDOF 7
ENDMDL
MODEL 8
REMARK VINA RESULT:      -7.0     11.265     18.398
REMARK  Name = pdb/CHEMBL3932808.pdb
REMARK                            x       y       z     vdW  Elec       q    Type
REMARK                         _______ _______ _______ _____ _____    ______ ____
ROOT
ATOM      1  C   LIG    1      -37.272  76.520  26.032  0.00  0.00    +0.149 A 
ATOM      2  N   LIG    1      -37.851  77.721  25.885  0.00  0.00    -0.160 NA
ATOM      3  N   LIG    1      -38.896  77.553  25.030  0.00  0.00    -0.218 N 
ATOM      4  C   LIG    1      -39.032  76.195  24.680  0.00  0.00    +0.129 A 
ATOM      5  C   LIG    1      -37.987  75.545  25.308  0.00  0.00    +0.078 A 
ENDROOT
BRANCH   3   6
ATOM      6  C   LIG    1      -39.637  78.725  24.634  0.00  0.00    +0.067 A 
ATOM      7  C   LIG    1      -39.131  79.525  23.589  0.00  0.00    +0.028 A 
ATOM      8  C   LIG    1      -39.812  80.672  23.158  0.00  0.00    +0.002 A 
ATOM      9  C   LIG    1      -40.999  81.054  23.770  0.00  0.00    +0.000 A 
ATOM     10  C   LIG    1      -41.515  80.277  24.797  0.00  0.00    +0.002 A 
ATOM     11  C   LIG    1      -40.852  79.113  25.208  0.00  0.00    +0.028 A 
ENDBRANCH   3   6
BRANCH   4  12
ATOM     12  N   LIG    1      -39.995  75.586  23.871  0.00  0.00    -0.266 N 
ATOM     13  H   LIG    1      -39.836  75.557  22.881  0.00  0.00    +0.157 HD
ATOM     14  C   LIG    1      -41.235  75.029  24.320  0.00  0.00    +0.251 C 
ATOM     15  O   LIG    1      -41.565  75.077  25.502  0.00  0.00    -0.270 OA
BRANCH  14  16
ATOM     16  C   LIG    1      -42.085  74.337  23.322  0.00  0.00    +0.056 A 
ATOM     17  C   LIG    1      -41.907  73.008  22.934  0.00  0.00    +0.056 A 
ATOM     18 CL   LIG    1      -40.653  71.984  23.525  0.00  0.00    -0.083 Cl
ATOM     19  C   LIG    1      -42.751  72.457  21.979  0.00  0.00    +0.059 A 
ATOM     20  C   LIG    1      -43.751  73.225  21.389  0.00  0.00    +0.134 A 
ATOM     21  F   LIG    1      -44.473  72.583  20.468  0.00  0.00    -0.205 F 
ATOM     22  C   LIG    1      -43.978  74.569  21.724  0.00  0.00    +0.039 A 
ATOM     23  C   LIG    1      -43.116  75.094  22.720  0.00  0.00    +0.027 A 
BRANCH  22  24
ATOM     24  C   LIG    1      -45.019  75.433  21.094  0.00  0.00    +0.109 A 
ATOM     25  C   LIG    1      -44.988  75.944  19.793  0.00  0.00    +0.149 A 
ATOM     26  F   LIG    1      -44.003  75.695  18.926  0.00  0.00    -0.203 F 
ATOM     27  C   LIG    1      -46.011  76.762  19.328  0.00  0.00    +0.042 A 
ATOM     28  C   LIG    1      -47.072  77.068  20.161  0.00  0.00    +0.023 A 
ATOM     29  C   LIG    1      -47.061  76.533  21.436  0.00  0.00    +0.111 A 
ATOM     30  N   LIG    1      -46.073  75.735  21.913  0.00  0.00    -0.252 NA
ENDBRANCH  22  24
ENDBRANCH  14  16
ENDBRANCH   4  12
BRANCH   1  32
ATOM     31  N   LIG    1      -35.356  77.359  27.220  0.00  0.00    -0.208 NA
ATOM     32  C   LIG    1      -36.059  76.335  26.845  0.00  0.00    +0.241 C 
BRANCH  31  35
ATOM     33  C   LIG    1      -32.250  77.688  26.455  0.00  0.00    +0.070 C 
ATOM     34  C   LIG    1      -32.893  77.346  27.749  0.00  0.00    +0.085 A 
ATOM     35  C   LIG    1      -34.268  77.179  28.091  0.00  0.00    +0.111 A 
ATOM     36  C   LIG    1      -34.276  77.008  29.461  0.00  0.00    +0.059 A 
ATOM     37  C   LIG    1      -35.338  76.869  30.485  0.00  0.00    +0.067 C 
ATOM     38  N   LIG    1      -32.959  77.003  29.833  0.00  0.00    -0.279 N 
ATOM     39  H   LIG    1      -32.572  76.903  30.766  0.00  0.00    +0.189 HD
ATOM     40  N   LIG    1      -32.105  77.192  28.822  0.00  0.00    -0.177 NA
ENDBRANCH  31  35
BRANCH  32  41
ATOM     41  O   LIG    1      -35.793  75.038  27.129  0.00  0.00    -0.491 OA
ATOM     42  H   LIG    1      -36.471  74.458  26.763  0.00  0.00    +0.294 HD
ENDBRANCH  32  41
ENDBRANCH   1  32
TORSDOF 7
ENDMDL
MODEL 9
REMARK VINA RESULT:      -7.0      9.446     13.962
REMARK  Name = pdb/CHEMBL3932808.pdb
REMARK                            x       y       z     vdW  Elec       q    Type
REMARK                         _______ _______ _______ _____ _____    ______ ____
ROOT
ATOM      1  C   LIG    1      -40.390  72.149  23.818  0.00  0.00    +0.149 A 
ATOM      2  N   LIG    1      -40.626  73.456  23.631  0.00  0.00    -0.160 NA
ATOM      3  N   LIG    1      -39.632  74.132  24.269  0.00  0.00    -0.218 N 
ATOM      4  C   LIG    1      -38.697  73.231  24.815  0.00  0.00    +0.129 A 
ATOM      5  C   LIG    1      -39.192  71.971  24.539  0.00  0.00    +0.078 A 
ENDROOT
BRANCH   3   6
ATOM      6  C   LIG    1      -39.704  75.572  24.292  0.00  0.00    +0.067 A 
ATOM      7  C   LIG    1      -40.761  76.208  23.610  0.00  0.00    +0.028 A 
ATOM      8  C   LIG    1      -40.885  77.605  23.603  0.00  0.00    +0.002 A 
ATOM      9  C   LIG    1      -39.950  78.395  24.260  0.00  0.00    +0.000 A 
ATOM     10  C   LIG    1      -38.906  77.786  24.941  0.00  0.00    +0.002 A 
ATOM     11  C   LIG    1      -38.797  76.389  24.974  0.00  0.00    +0.028 A 
ENDBRANCH   3   6
BRANCH   4  12
ATOM     12  N   LIG    1      -37.510  73.502  25.502  0.00  0.00    -0.266 N 
ATOM     13  H   LIG    1      -36.661  73.581  24.973  0.00  0.00    +0.157 HD
ATOM     14  C   LIG    1      -37.375  73.633  26.921  0.00  0.00    +0.251 C 
ATOM     15  O   LIG    1      -38.337  73.481  27.670  0.00  0.00    -0.270 OA
BRANCH  14  16
ATOM     16  C   LIG    1      -36.049  74.019  27.459  0.00  0.00    +0.056 A 
ATOM     17  C   LIG    1      -35.182  73.134  28.103  0.00  0.00    +0.056 A 
ATOM     18 CL   LIG    1      -35.534  71.475  28.404  0.00  0.00    -0.083 Cl
ATOM     19  C   LIG    1      -33.965  73.600  28.583  0.00  0.00    +0.059 A 
ATOM     20  C   LIG    1      -33.618  74.943  28.452  0.00  0.00    +0.134 A 
ATOM     21  F   LIG    1      -32.435  75.264  28.980  0.00  0.00    -0.205 F 
ATOM     22  C   LIG    1      -34.447  75.887  27.826  0.00  0.00    +0.039 A 
ATOM     23  C   LIG    1      -35.670  75.374  27.325  0.00  0.00    +0.027 A 
BRANCH  22  24
ATOM     24  C   LIG    1      -34.125  77.338  27.692  0.00  0.00    +0.109 A 
ATOM     25  C   LIG    1      -32.985  77.875  27.086  0.00  0.00    +0.149 A 
ATOM     26  F   LIG    1      -32.031  77.131  26.520  0.00  0.00    -0.203 F 
ATOM     27  C   LIG    1      -32.785  79.250  27.045  0.00  0.00    +0.042 A 
ATOM     28  C   LIG    1      -33.728  80.093  27.605  0.00  0.00    +0.023 A 
ATOM     29  C   LIG    1      -34.840  79.515  28.187  0.00  0.00    +0.111 A 
ATOM     30  N   LIG    1      -35.056  78.176  28.241  0.00  0.00    -0.252 NA
ENDBRANCH  22  24
ENDBRANCH  14  16
ENDBRANCH   4  12
BRANCH   1  32
ATOM     31  N   LIG    1      -41.198  70.671  22.101  0.00  0.00    -0.208 NA
ATOM     32  C   LIG    1      -41.307  71.113  23.317  0.00  0.00    +0.241 C 
BRANCH  31  35
ATOM     33  C   LIG    1      -43.576  70.845  19.943  0.00  0.00    +0.070 C 
ATOM     34  C   LIG    1      -43.044  69.683  20.699  0.00  0.00    +0.085 A 
ATOM     35  C   LIG    1      -42.003  69.602  21.672  0.00  0.00    +0.111 A 
ATOM     36  C   LIG    1      -41.853  68.253  21.922  0.00  0.00    +0.059 A 
ATOM     37  C   LIG    1      -40.920  67.445  22.741  0.00  0.00    +0.067 C 
ATOM     38  N   LIG    1      -42.824  67.637  21.177  0.00  0.00    -0.279 N 
ATOM     39  H   LIG    1      -43.019  66.644  21.103  0.00  0.00    +0.189 HD
ATOM     40  N   LIG    1      -43.561  68.474  20.442  0.00  0.00    -0.177 NA
ENDBRANCH  31  35
BRANCH  32  41
ATOM     41  O   LIG    1      -42.218  70.711  24.233  0.00  0.00    -0.491 OA
ATOM     42  H   LIG    1      -42.096  71.174  25.069  0.00  0.00    +0.294 HD
ENDBRANCH  32  41
ENDBRANCH   1  32
TORSDOF 7
ENDMDL
