MODEL 1
REMARK VINA RESULT:      -7.8      0.000      0.000
REMARK  Name = pdb/CHEMBL3913818.pdb
REMARK                            x       y       z     vdW  Elec       q    Type
REMARK                         _______ _______ _______ _____ _____    ______ ____
ROOT
ATOM      1  C   LIG    1      -28.116  83.719  37.011  0.00  0.00    +0.105 A 
ATOM      2  C   LIG    1      -28.279  82.570  37.770  0.00  0.00    +0.145 A 
ATOM      3  N   LIG    1      -27.280  81.705  38.039  0.00  0.00    -0.201 NA
ATOM      4  C   LIG    1      -26.072  81.974  37.497  0.00  0.00    +0.323 A 
ATOM      5  N   LIG    1      -25.775  83.104  36.840  0.00  0.00    -0.201 NA
ATOM      6  C   LIG    1      -26.799  83.961  36.657  0.00  0.00    +0.145 A 
ENDROOT
BRANCH   1   8
ATOM      7  C   LIG    1      -29.524  84.782  35.438  0.00  0.00    +0.285 C 
ATOM      8  N   LIG    1      -29.175  84.573  36.681  0.00  0.00    -0.196 NA
BRANCH   7   9
ATOM      9  O   LIG    1      -29.015  84.071  34.416  0.00  0.00    -0.481 OA
ATOM     10  H   LIG    1      -29.205  83.127  34.494  0.00  0.00    +0.295 HD
ENDBRANCH   7   9
BRANCH   7  11
ATOM     11  N   LIG    1      -30.414  85.695  34.940  0.00  0.00    -0.269 N 
ATOM     12  H   LIG    1      -31.373  85.456  35.192  0.00  0.00    +0.157 HD
BRANCH  11  13
ATOM     13  C   LIG    1      -30.342  86.272  33.640  0.00  0.00    +0.043 A 
ATOM     14  C   LIG    1      -29.444  87.331  33.307  0.00  0.00    +0.005 A 
ATOM     15  C   LIG    1      -29.471  87.777  31.960  0.00  0.00    +0.011 A 
ATOM     16  C   LIG    1      -30.342  87.255  31.001  0.00  0.00    +0.013 A 
ATOM     17  C   LIG    1      -31.249  86.259  31.345  0.00  0.00    +0.057 A 
ATOM     18  C   LIG    1      -31.251  85.798  32.665  0.00  0.00    +0.036 A 
BRANCH  14  19
ATOM     19  C   LIG    1      -28.444  87.968  34.229  0.00  0.00    +0.002 A 
ATOM     20  C   LIG    1      -27.263  87.345  34.632  0.00  0.00    +0.119 A 
ATOM     21  N   LIG    1      -26.319  87.882  35.456  0.00  0.00    -0.263 NA
ATOM     22  C   LIG    1      -26.524  89.140  35.888  0.00  0.00    +0.111 A 
ATOM     23  C   LIG    1      -27.624  89.889  35.528  0.00  0.00    +0.020 A 
ATOM     24  C   LIG    1      -28.588  89.290  34.710  0.00  0.00    +0.011 A 
ENDBRANCH  14  19
BRANCH  17  25
ATOM     25  C   LIG    1      -32.165  85.664  30.309  0.00  0.00    +0.417 C 
ATOM     26  F   LIG    1      -32.533  84.390  30.617  0.00  0.00    -0.166 F 
ATOM     27  F   LIG    1      -31.588  85.601  29.078  0.00  0.00    -0.166 F 
ATOM     28  F   LIG    1      -33.325  86.358  30.140  0.00  0.00    -0.166 F 
ENDBRANCH  17  25
ENDBRANCH  11  13
ENDBRANCH   7  11
ENDBRANCH   1   8
BRANCH   4  29
ATOM     29  O   LIG    1      -25.069  81.012  37.517  0.00  0.00    -0.424 OA
BRANCH  29  30
ATOM     30  C   LIG    1      -24.749  80.388  36.331  0.00  0.00    +0.132 A 
ATOM     31  C   LIG    1      -23.611  80.835  35.665  0.00  0.00    +0.047 A 
ATOM     32  C   LIG    1      -23.205  80.218  34.473  0.00  0.00    +0.012 A 
ATOM     33  C   LIG    1      -23.925  79.139  33.927  0.00  0.00    -0.016 A 
ATOM     34  C   LIG    1      -25.082  78.725  34.596  0.00  0.00    +0.012 A 
ATOM     35  C   LIG    1      -25.512  79.370  35.756  0.00  0.00    +0.047 A 
BRANCH  33  36
ATOM     36  C   LIG    1      -23.522  78.461  32.664  0.00  0.00    -0.001 A 
ATOM     37  C   LIG    1      -22.115  78.089  32.366  0.00  0.00    +0.021 A 
ATOM     38  C   LIG    1      -21.792  77.465  31.228  0.00  0.00    +0.019 A 
ATOM     39  C   LIG    1      -20.606  76.959  30.624  0.00  0.00    +0.031 A 
ATOM     40  C   LIG    1      -21.026  76.421  29.463  0.00  0.00    +0.114 A 
ATOM     41  N   LIG    1      -22.391  76.521  29.215  0.00  0.00    -0.237 NA
ATOM     42  C   LIG    1      -22.872  77.146  30.258  0.00  0.00    +0.138 A 
ATOM     43  N   LIG    1      -24.154  77.512  30.541  0.00  0.00    -0.345 N 
ATOM     44  H   LIG    1      -24.888  77.286  29.883  0.00  0.00    +0.167 HD
ATOM     45  C   LIG    1      -24.455  78.157  31.724  0.00  0.00    +0.093 A 
ENDBRANCH  33  36
ENDBRANCH  29  30
ENDBRANCH   4  29
TORSDOF 9
ENDMDL
MODEL 2
REMARK VINA RESULT:      -7.6      1.559      2.117
REMARK  Name = pdb/CHEMBL3913818.pdb
REMARK                            x       y       z     vdW  Elec       q    Type
REMARK                         _______ _______ _______ _____ _____    ______ ____
ROOT
ATOM      1  C   LIG    1      -28.073  83.953  36.517  0.00  0.00    +0.105 A 
ATOM      2  C   LIG    1      -26.764  84.332  36.258  0.00  0.00    +0.145 A 
ATOM      3  N   LIG    1      -25.693  83.566  36.551  0.00  0.00    -0.201 NA
ATOM      4  C   LIG    1      -25.932  82.386  37.163  0.00  0.00    +0.323 A 
ATOM      5  N   LIG    1      -27.154  81.873  37.364  0.00  0.00    -0.201 NA
ATOM      6  C   LIG    1      -28.185  82.658  36.993  0.00  0.00    +0.145 A 
ENDROOT
BRANCH   1   8
ATOM      7  C   LIG    1      -29.702  84.888  35.082  0.00  0.00    +0.285 C 
ATOM      8  N   LIG    1      -29.172  84.786  36.273  0.00  0.00    -0.196 NA
BRANCH   7   9
ATOM      9  O   LIG    1      -29.349  84.083  34.063  0.00  0.00    -0.481 OA
ATOM     10  H   LIG    1      -28.637  84.458  33.528  0.00  0.00    +0.295 HD
ENDBRANCH   7   9
BRANCH   7  11
ATOM     11  N   LIG    1      -30.658  85.764  34.642  0.00  0.00    -0.269 N 
ATOM     12  H   LIG    1      -31.598  85.410  34.821  0.00  0.00    +0.157 HD
BRANCH  11  13
ATOM     13  C   LIG    1      -30.595  86.485  33.416  0.00  0.00    +0.043 A 
ATOM     14  C   LIG    1      -29.671  87.549  33.185  0.00  0.00    +0.005 A 
ATOM     15  C   LIG    1      -29.711  88.148  31.900  0.00  0.00    +0.011 A 
ATOM     16  C   LIG    1      -30.619  87.767  30.908  0.00  0.00    +0.013 A 
ATOM     17  C   LIG    1      -31.549  86.764  31.158  0.00  0.00    +0.057 A 
ATOM     18  C   LIG    1      -31.539  86.154  32.415  0.00  0.00    +0.036 A 
BRANCH  14  19
ATOM     19  C   LIG    1      -28.632  88.044  34.150  0.00  0.00    +0.002 A 
ATOM     20  C   LIG    1      -27.433  87.376  34.401  0.00  0.00    +0.119 A 
ATOM     21  N   LIG    1      -26.455  87.788  35.256  0.00  0.00    -0.263 NA
ATOM     22  C   LIG    1      -26.641  88.964  35.884  0.00  0.00    +0.111 A 
ATOM     23  C   LIG    1      -27.757  89.750  35.691  0.00  0.00    +0.020 A 
ATOM     24  C   LIG    1      -28.756  89.276  34.833  0.00  0.00    +0.011 A 
ENDBRANCH  14  19
BRANCH  17  25
ATOM     25  C   LIG    1      -32.506  86.321  30.083  0.00  0.00    +0.417 C 
ATOM     26  F   LIG    1      -31.928  85.458  29.202  0.00  0.00    -0.166 F 
ATOM     27  F   LIG    1      -32.971  87.361  29.338  0.00  0.00    -0.166 F 
ATOM     28  F   LIG    1      -33.611  85.684  30.561  0.00  0.00    -0.166 F 
ENDBRANCH  17  25
ENDBRANCH  11  13
ENDBRANCH   7  11
ENDBRANCH   1   8
BRANCH   4  29
ATOM     29  O   LIG    1      -24.882  81.664  37.717  0.00  0.00    -0.424 OA
BRANCH  29  30
ATOM     30  C   LIG    1      -24.001  81.043  36.858  0.00  0.00    +0.132 A 
ATOM     31  C   LIG    1      -24.547  80.219  35.876  0.00  0.00    +0.047 A 
ATOM     32  C   LIG    1      -23.711  79.588  34.944  0.00  0.00    +0.012 A 
ATOM     33  C   LIG    1      -22.316  79.770  34.972  0.00  0.00    -0.016 A 
ATOM     34  C   LIG    1      -21.786  80.578  35.985  0.00  0.00    +0.012 A 
ATOM     35  C   LIG    1      -22.613  81.167  36.940  0.00  0.00    +0.047 A 
BRANCH  33  36
ATOM     36  C   LIG    1      -21.400  79.114  33.998  0.00  0.00    -0.001 A 
ATOM     37  C   LIG    1      -19.939  79.385  33.961  0.00  0.00    +0.021 A 
ATOM     38  C   LIG    1      -19.144  78.764  33.083  0.00  0.00    +0.019 A 
ATOM     39  C   LIG    1      -17.755  78.755  32.769  0.00  0.00    +0.031 A 
ATOM     40  C   LIG    1      -17.645  77.858  31.770  0.00  0.00    +0.114 A 
ATOM     41  N   LIG    1      -18.834  77.261  31.367  0.00  0.00    -0.237 NA
ATOM     42  C   LIG    1      -19.748  77.790  32.138  0.00  0.00    +0.138 A 
ATOM     43  N   LIG    1      -21.094  77.568  32.175  0.00  0.00    -0.345 N 
ATOM     44  H   LIG    1      -21.500  76.898  31.537  0.00  0.00    +0.167 HD
ATOM     45  C   LIG    1      -21.888  78.227  33.092  0.00  0.00    +0.093 A 
ENDBRANCH  33  36
ENDBRANCH  29  30
ENDBRANCH   4  29
TORSDOF 9
ENDMDL
MODEL 3
REMARK VINA RESULT:      -7.5     17.550     21.007
REMARK  Name = pdb/CHEMBL3913818.pdb
REMARK                            x       y       z     vdW  Elec       q    Type
REMARK                         _______ _______ _______ _____ _____    ______ ____
ROOT
ATOM      1  C   LIG    1      -38.322  68.331  21.705  0.00  0.00    +0.105 A 
ATOM      2  C   LIG    1      -37.996  68.729  20.417  0.00  0.00    +0.145 A 
ATOM      3  N   LIG    1      -37.325  67.951  19.543  0.00  0.00    -0.201 NA
ATOM      4  C   LIG    1      -36.928  66.736  19.981  0.00  0.00    +0.323 A 
ATOM      5  N   LIG    1      -37.278  66.208  21.162  0.00  0.00    -0.201 NA
ATOM      6  C   LIG    1      -38.002  67.010  21.969  0.00  0.00    +0.145 A 
ENDROOT
BRANCH   1   8
ATOM      7  C   LIG    1      -38.275  69.972  23.405  0.00  0.00    +0.285 C 
ATOM      8  N   LIG    1      -38.957  69.173  22.627  0.00  0.00    -0.196 NA
BRANCH   7   9
ATOM      9  O   LIG    1      -36.952  70.169  23.258  0.00  0.00    -0.481 OA
ATOM     10  H   LIG    1      -36.510  69.408  22.861  0.00  0.00    +0.295 HD
ENDBRANCH   7   9
BRANCH   7  11
ATOM     11  N   LIG    1      -38.720  70.728  24.457  0.00  0.00    -0.269 N 
ATOM     12  H   LIG    1      -39.287  70.175  25.100  0.00  0.00    +0.157 HD
BRANCH  11  13
ATOM     13  C   LIG    1      -39.203  72.063  24.348  0.00  0.00    +0.043 A 
ATOM     14  C   LIG    1      -40.479  72.387  23.794  0.00  0.00    +0.005 A 
ATOM     15  C   LIG    1      -40.828  73.762  23.785  0.00  0.00    +0.011 A 
ATOM     16  C   LIG    1      -39.978  74.769  24.249  0.00  0.00    +0.013 A 
ATOM     17  C   LIG    1      -38.717  74.450  24.740  0.00  0.00    +0.057 A 
ATOM     18  C   LIG    1      -38.339  73.105  24.762  0.00  0.00    +0.036 A 
BRANCH  14  19
ATOM     19  C   LIG    1      -41.496  71.409  23.281  0.00  0.00    +0.002 A 
ATOM     20  C   LIG    1      -42.257  70.584  24.109  0.00  0.00    +0.119 A 
ATOM     21  N   LIG    1      -43.198  69.689  23.696  0.00  0.00    -0.263 NA
ATOM     22  C   LIG    1      -43.447  69.624  22.374  0.00  0.00    +0.111 A 
ATOM     23  C   LIG    1      -42.803  70.417  21.449  0.00  0.00    +0.020 A 
ATOM     24  C   LIG    1      -41.817  71.297  21.908  0.00  0.00    +0.011 A 
ENDBRANCH  14  19
BRANCH  17  25
ATOM     25  C   LIG    1      -37.809  75.525  25.278  0.00  0.00    +0.417 C 
ATOM     26  F   LIG    1      -36.956  75.052  26.228  0.00  0.00    -0.166 F 
ATOM     27  F   LIG    1      -38.497  76.543  25.865  0.00  0.00    -0.166 F 
ATOM     28  F   LIG    1      -37.026  76.106  24.327  0.00  0.00    -0.166 F 
ENDBRANCH  17  25
ENDBRANCH  11  13
ENDBRANCH   7  11
ENDBRANCH   1   8
BRANCH   4  29
ATOM     29  O   LIG    1      -36.026  65.987  19.235  0.00  0.00    -0.424 OA
BRANCH  29  30
ATOM     30  C   LIG    1      -34.761  66.501  19.047  0.00  0.00    +0.132 A 
ATOM     31  C   LIG    1      -33.847  66.331  20.084  0.00  0.00    +0.047 A 
ATOM     32  C   LIG    1      -32.531  66.794  19.943  0.00  0.00    +0.012 A 
ATOM     33  C   LIG    1      -32.101  67.429  18.763  0.00  0.00    -0.016 A 
ATOM     34  C   LIG    1      -33.044  67.615  17.746  0.00  0.00    +0.012 A 
ATOM     35  C   LIG    1      -34.365  67.197  17.904  0.00  0.00    +0.047 A 
BRANCH  33  36
ATOM     36  C   LIG    1      -30.711  67.932  18.581  0.00  0.00    -0.001 A 
ATOM     37  C   LIG    1      -30.369  69.378  18.623  0.00  0.00    +0.021 A 
ATOM     38  C   LIG    1      -29.106  69.793  18.473  0.00  0.00    +0.019 A 
ATOM     39  C   LIG    1      -28.419  71.040  18.467  0.00  0.00    +0.031 A 
ATOM     40  C   LIG    1      -27.127  70.708  18.285  0.00  0.00    +0.114 A 
ATOM     41  N   LIG    1      -26.870  69.347  18.158  0.00  0.00    -0.237 NA
ATOM     42  C   LIG    1      -28.042  68.777  18.264  0.00  0.00    +0.138 A 
ATOM     43  N   LIG    1      -28.378  67.457  18.211  0.00  0.00    -0.345 N 
ATOM     44  H   LIG    1      -27.651  66.768  18.078  0.00  0.00    +0.167 HD
ATOM     45  C   LIG    1      -29.691  67.061  18.367  0.00  0.00    +0.093 A 
ENDBRANCH  33  36
ENDBRANCH  29  30
ENDBRANCH   4  29
TORSDOF 9
ENDMDL
MODEL 4
REMARK VINA RESULT:      -7.4      7.966     11.577
REMARK  Name = pdb/CHEMBL3913818.pdb
REMARK                            x       y       z     vdW  Elec       q    Type
REMARK                         _______ _______ _______ _____ _____    ______ ____
ROOT
ATOM      1  C   LIG    1      -26.021  76.783  33.334  0.00  0.00    +0.105 A 
ATOM      2  C   LIG    1      -27.219  77.167  33.918  0.00  0.00    +0.145 A 
ATOM      3  N   LIG    1      -28.396  77.193  33.259  0.00  0.00    -0.201 NA
ATOM      4  C   LIG    1      -28.374  76.858  31.950  0.00  0.00    +0.323 A 
ATOM      5  N   LIG    1      -27.301  76.372  31.313  0.00  0.00    -0.201 NA
ATOM      6  C   LIG    1      -26.168  76.309  32.041  0.00  0.00    +0.145 A 
ENDROOT
BRANCH   1   8
ATOM      7  C   LIG    1      -24.038  77.893  33.983  0.00  0.00    +0.285 C 
ATOM      8  N   LIG    1      -24.795  76.827  34.008  0.00  0.00    -0.196 NA
BRANCH   7   9
ATOM      9  O   LIG    1      -24.455  79.063  33.465  0.00  0.00    -0.481 OA
ATOM     10  H   LIG    1      -24.175  79.820  33.995  0.00  0.00    +0.295 HD
ENDBRANCH   7   9
BRANCH   7  11
ATOM     11  N   LIG    1      -22.758  78.046  34.444  0.00  0.00    -0.269 N 
ATOM     12  H   LIG    1      -22.721  78.687  35.235  0.00  0.00    +0.157 HD
BRANCH  11  13
ATOM     13  C   LIG    1      -21.607  78.170  33.614  0.00  0.00    +0.043 A 
ATOM     14  C   LIG    1      -20.522  79.049  33.915  0.00  0.00    +0.005 A 
ATOM     15  C   LIG    1      -19.433  79.036  33.005  0.00  0.00    +0.011 A 
ATOM     16  C   LIG    1      -19.411  78.247  31.852  0.00  0.00    +0.013 A 
ATOM     17  C   LIG    1      -20.493  77.432  31.540  0.00  0.00    +0.057 A 
ATOM     18  C   LIG    1      -21.585  77.422  32.413  0.00  0.00    +0.036 A 
BRANCH  14  19
ATOM     19  C   LIG    1      -20.406  79.931  35.124  0.00  0.00    +0.002 A 
ATOM     20  C   LIG    1      -19.540  79.672  36.187  0.00  0.00    +0.119 A 
ATOM     21  N   LIG    1      -19.389  80.445  37.299  0.00  0.00    -0.263 NA
ATOM     22  C   LIG    1      -20.108  81.581  37.361  0.00  0.00    +0.111 A 
ATOM     23  C   LIG    1      -20.965  81.983  36.360  0.00  0.00    +0.020 A 
ATOM     24  C   LIG    1      -21.120  81.145  35.250  0.00  0.00    +0.011 A 
ENDBRANCH  14  19
BRANCH  17  25
ATOM     25  C   LIG    1      -20.462  76.550  30.320  0.00  0.00    +0.417 C 
ATOM     26  F   LIG    1      -19.582  75.520  30.450  0.00  0.00    -0.166 F 
ATOM     27  F   LIG    1      -20.086  77.225  29.199  0.00  0.00    -0.166 F 
ATOM     28  F   LIG    1      -21.665  75.981  30.024  0.00  0.00    -0.166 F 
ENDBRANCH  17  25
ENDBRANCH  11  13
ENDBRANCH   7  11
ENDBRANCH   1   8
BRANCH   4  29
ATOM     29  O   LIG    1      -29.486  77.101  31.151  0.00  0.00    -0.424 OA
BRANCH  29  30
ATOM     30  C   LIG    1      -30.243  76.020  30.754  0.00  0.00    +0.132 A 
ATOM     31  C   LIG    1      -31.074  76.200  29.650  0.00  0.00    +0.047 A 
ATOM     32  C   LIG    1      -31.843  75.130  29.168  0.00  0.00    +0.012 A 
ATOM     33  C   LIG    1      -31.791  73.861  29.775  0.00  0.00    -0.016 A 
ATOM     34  C   LIG    1      -30.972  73.711  30.899  0.00  0.00    +0.012 A 
ATOM     35  C   LIG    1      -30.245  74.787  31.407  0.00  0.00    +0.047 A 
BRANCH  33  36
ATOM     36  C   LIG    1      -32.594  72.705  29.288  0.00  0.00    -0.001 A 
ATOM     37  C   LIG    1      -33.788  72.866  28.418  0.00  0.00    +0.021 A 
ATOM     38  C   LIG    1      -34.476  71.803  27.985  0.00  0.00    +0.019 A 
ATOM     39  C   LIG    1      -35.614  71.570  27.162  0.00  0.00    +0.031 A 
ATOM     40  C   LIG    1      -35.735  70.229  27.132  0.00  0.00    +0.114 A 
ATOM     41  N   LIG    1      -34.787  69.525  27.867  0.00  0.00    -0.237 NA
ATOM     42  C   LIG    1      -34.022  70.447  28.390  0.00  0.00    +0.138 A 
ATOM     43  N   LIG    1      -32.935  70.321  29.204  0.00  0.00    -0.345 N 
ATOM     44  H   LIG    1      -32.624  69.397  29.470  0.00  0.00    +0.167 HD
ATOM     45  C   LIG    1      -32.248  71.438  29.635  0.00  0.00    +0.093 A 
ENDBRANCH  33  36
ENDBRANCH  29  30
ENDBRANCH   4  29
TORSDOF 9
ENDMDL
MODEL 5
REMARK VINA RESULT:      -7.2     18.716     21.901
REMARK  Name = pdb/CHEMBL3913818.pdb
REMARK                            x       y       z     vdW  Elec       q    Type
REMARK                         _______ _______ _______ _____ _____    ______ ____
ROOT
ATOM      1  C   LIG    1      -38.947  67.998  21.089  0.00  0.00    +0.105 A 
ATOM      2  C   LIG    1      -37.890  68.681  20.504  0.00  0.00    +0.145 A 
ATOM      3  N   LIG    1      -37.083  68.145  19.567  0.00  0.00    -0.201 NA
ATOM      4  C   LIG    1      -37.312  66.859  19.222  0.00  0.00    +0.323 A 
ATOM      5  N   LIG    1      -38.362  66.140  19.641  0.00  0.00    -0.201 NA
ATOM      6  C   LIG    1      -39.171  66.752  20.530  0.00  0.00    +0.145 A 
ENDROOT
BRANCH   1   8
ATOM      7  C   LIG    1      -40.707  69.377  21.855  0.00  0.00    +0.285 C 
ATOM      8  N   LIG    1      -39.734  68.542  22.111  0.00  0.00    -0.196 NA
BRANCH   7   9
ATOM      9  O   LIG    1      -41.127  69.634  20.603  0.00  0.00    -0.481 OA
ATOM     10  H   LIG    1      -41.821  69.026  20.317  0.00  0.00    +0.295 HD
ENDBRANCH   7   9
BRANCH   7  11
ATOM     11  N   LIG    1      -41.456  70.115  22.732  0.00  0.00    -0.269 N 
ATOM     12  H   LIG    1      -42.454  69.952  22.599  0.00  0.00    +0.157 HD
BRANCH  11  13
ATOM     13  C   LIG    1      -41.189  71.467  23.088  0.00  0.00    +0.043 A 
ATOM     14  C   LIG    1      -42.075  72.544  22.776  0.00  0.00    +0.005 A 
ATOM     15  C   LIG    1      -41.682  73.831  23.227  0.00  0.00    +0.011 A 
ATOM     16  C   LIG    1      -40.484  74.069  23.905  0.00  0.00    +0.013 A 
ATOM     17  C   LIG    1      -39.603  73.024  24.160  0.00  0.00    +0.057 A 
ATOM     18  C   LIG    1      -39.957  71.743  23.728  0.00  0.00    +0.036 A 
BRANCH  14  19
ATOM     19  C   LIG    1      -43.398  72.427  22.076  0.00  0.00    +0.002 A 
ATOM     20  C   LIG    1      -43.535  72.402  20.688  0.00  0.00    +0.119 A 
ATOM     21  N   LIG    1      -44.709  72.287  20.005  0.00  0.00    -0.263 NA
ATOM     22  C   LIG    1      -45.832  72.144  20.732  0.00  0.00    +0.111 A 
ATOM     23  C   LIG    1      -45.836  72.102  22.109  0.00  0.00    +0.020 A 
ATOM     24  C   LIG    1      -44.616  72.260  22.775  0.00  0.00    +0.011 A 
ENDBRANCH  14  19
BRANCH  17  25
ATOM     25  C   LIG    1      -38.328  73.265  24.924  0.00  0.00    +0.417 C 
ATOM     26  F   LIG    1      -37.382  72.322  24.659  0.00  0.00    -0.166 F 
ATOM     27  F   LIG    1      -38.515  73.241  26.272  0.00  0.00    -0.166 F 
ATOM     28  F   LIG    1      -37.745  74.466  24.652  0.00  0.00    -0.166 F 
ENDBRANCH  17  25
ENDBRANCH  11  13
ENDBRANCH   7  11
ENDBRANCH   1   8
BRANCH   4  29
ATOM     29  O   LIG    1      -36.379  66.165  18.460  0.00  0.00    -0.424 OA
BRANCH  29  30
ATOM     30  C   LIG    1      -35.073  66.606  18.478  0.00  0.00    +0.132 A 
ATOM     31  C   LIG    1      -34.325  66.326  19.619  0.00  0.00    +0.047 A 
ATOM     32  C   LIG    1      -32.979  66.711  19.688  0.00  0.00    +0.012 A 
ATOM     33  C   LIG    1      -32.353  67.379  18.619  0.00  0.00    -0.016 A 
ATOM     34  C   LIG    1      -33.132  67.676  17.494  0.00  0.00    +0.012 A 
ATOM     35  C   LIG    1      -34.483  67.335  17.445  0.00  0.00    +0.047 A 
BRANCH  33  36
ATOM     36  C   LIG    1      -30.926  67.802  18.660  0.00  0.00    -0.001 A 
ATOM     37  C   LIG    1      -30.507  69.225  18.567  0.00  0.00    +0.021 A 
ATOM     38  C   LIG    1      -29.216  69.570  18.625  0.00  0.00    +0.019 A 
ATOM     39  C   LIG    1      -28.464  70.778  18.586  0.00  0.00    +0.031 A 
ATOM     40  C   LIG    1      -27.185  70.380  18.725  0.00  0.00    +0.114 A 
ATOM     41  N   LIG    1      -26.995  69.007  18.847  0.00  0.00    -0.237 NA
ATOM     42  C   LIG    1      -28.198  68.499  18.787  0.00  0.00    +0.138 A 
ATOM     43  N   LIG    1      -28.601  67.198  18.852  0.00  0.00    -0.345 N 
ATOM     44  H   LIG    1      -27.907  66.474  18.972  0.00  0.00    +0.167 HD
ATOM     45  C   LIG    1      -29.941  66.874  18.787  0.00  0.00    +0.093 A 
ENDBRANCH  33  36
ENDBRANCH  29  30
ENDBRANCH   4  29
TORSDOF 9
ENDMDL
MODEL 6
REMARK VINA RESULT:      -7.1      7.888     11.599
REMARK  Name = pdb/CHEMBL3913818.pdb
REMARK                            x       y       z     vdW  Elec       q    Type
REMARK                         _______ _______ _______ _____ _____    ______ ____
ROOT
ATOM      1  C   LIG    1      -25.489  75.781  33.474  0.00  0.00    +0.105 A 
ATOM      2  C   LIG    1      -25.657  75.397  32.152  0.00  0.00    +0.145 A 
ATOM      3  N   LIG    1      -26.757  74.767  31.692  0.00  0.00    -0.201 NA
ATOM      4  C   LIG    1      -27.718  74.473  32.595  0.00  0.00    +0.323 A 
ATOM      5  N   LIG    1      -27.710  74.889  33.869  0.00  0.00    -0.201 NA
ATOM      6  C   LIG    1      -26.612  75.569  34.255  0.00  0.00    +0.145 A 
ENDROOT
BRANCH   1   8
ATOM      7  C   LIG    1      -24.135  77.666  33.924  0.00  0.00    +0.285 C 
ATOM      8  N   LIG    1      -24.312  76.371  33.953  0.00  0.00    -0.196 NA
BRANCH   7   9
ATOM      9  O   LIG    1      -25.121  78.523  33.600  0.00  0.00    -0.481 OA
ATOM     10  H   LIG    1      -24.905  79.054  32.821  0.00  0.00    +0.295 HD
ENDBRANCH   7   9
BRANCH   7  11
ATOM     11  N   LIG    1      -23.000  78.382  34.196  0.00  0.00    -0.269 N 
ATOM     12  H   LIG    1      -23.222  79.328  34.506  0.00  0.00    +0.157 HD
BRANCH  11  13
ATOM     13  C   LIG    1      -21.815  78.354  33.408  0.00  0.00    +0.043 A 
ATOM     14  C   LIG    1      -20.627  79.063  33.763  0.00  0.00    +0.005 A 
ATOM     15  C   LIG    1      -19.519  78.908  32.890  0.00  0.00    +0.011 A 
ATOM     16  C   LIG    1      -19.569  78.143  31.722  0.00  0.00    +0.013 A 
ATOM     17  C   LIG    1      -20.744  77.496  31.357  0.00  0.00    +0.057 A 
ATOM     18  C   LIG    1      -21.856  77.629  32.193  0.00  0.00    +0.036 A 
BRANCH  14  19
ATOM     19  C   LIG    1      -20.429  79.900  34.994  0.00  0.00    +0.002 A 
ATOM     20  C   LIG    1      -21.118  81.089  35.236  0.00  0.00    +0.119 A 
ATOM     21  N   LIG    1      -20.984  81.877  36.339  0.00  0.00    -0.263 NA
ATOM     22  C   LIG    1      -20.143  81.453  37.300  0.00  0.00    +0.111 A 
ATOM     23  C   LIG    1      -19.436  80.273  37.213  0.00  0.00    +0.020 A 
ATOM     24  C   LIG    1      -19.573  79.509  36.049  0.00  0.00    +0.011 A 
ENDBRANCH  14  19
BRANCH  17  25
ATOM     25  C   LIG    1      -20.795  76.639  30.121  0.00  0.00    +0.417 C 
ATOM     26  F   LIG    1      -22.071  76.407  29.707  0.00  0.00    -0.166 F 
ATOM     27  F   LIG    1      -20.235  75.413  30.313  0.00  0.00    -0.166 F 
ATOM     28  F   LIG    1      -20.148  77.180  29.051  0.00  0.00    -0.166 F 
ENDBRANCH  17  25
ENDBRANCH  11  13
ENDBRANCH   7  11
ENDBRANCH   1   8
BRANCH   4  29
ATOM     29  O   LIG    1      -28.756  73.613  32.253  0.00  0.00    -0.424 OA
BRANCH  29  30
ATOM     30  C   LIG    1      -29.745  74.094  31.422  0.00  0.00    +0.132 A 
ATOM     31  C   LIG    1      -30.410  73.164  30.626  0.00  0.00    +0.047 A 
ATOM     32  C   LIG    1      -31.454  73.578  29.786  0.00  0.00    +0.012 A 
ATOM     33  C   LIG    1      -31.856  74.926  29.729  0.00  0.00    -0.016 A 
ATOM     34  C   LIG    1      -31.154  75.847  30.514  0.00  0.00    +0.012 A 
ATOM     35  C   LIG    1      -30.085  75.443  31.314  0.00  0.00    +0.047 A 
BRANCH  33  36
ATOM     36  C   LIG    1      -32.960  75.399  28.848  0.00  0.00    -0.001 A 
ATOM     37  C   LIG    1      -34.244  74.665  28.706  0.00  0.00    +0.021 A 
ATOM     38  C   LIG    1      -35.221  75.129  27.919  0.00  0.00    +0.019 A 
ATOM     39  C   LIG    1      -36.538  74.728  27.556  0.00  0.00    +0.031 A 
ATOM     40  C   LIG    1      -36.966  75.697  26.725  0.00  0.00    +0.114 A 
ATOM     41  N   LIG    1      -36.056  76.721  26.480  0.00  0.00    -0.237 NA
ATOM     42  C   LIG    1      -35.000  76.401  27.183  0.00  0.00    +0.138 A 
ATOM     43  N   LIG    1      -33.808  77.050  27.311  0.00  0.00    -0.345 N 
ATOM     44  H   LIG    1      -33.665  77.919  26.817  0.00  0.00    +0.167 HD
ATOM     45  C   LIG    1      -32.819  76.544  28.131  0.00  0.00    +0.093 A 
ENDBRANCH  33  36
ENDBRANCH  29  30
ENDBRANCH   4  29
TORSDOF 9
ENDMDL
MODEL 7
REMARK VINA RESULT:      -7.0     11.052     16.138
REMARK  Name = pdb/CHEMBL3913818.pdb
REMARK                            x       y       z     vdW  Elec       q    Type
REMARK                         _______ _______ _______ _____ _____    ______ ____
ROOT
ATOM      1  C   LIG    1      -32.707  92.440  25.953  0.00  0.00    +0.105 A 
ATOM      2  C   LIG    1      -31.877  92.204  24.867  0.00  0.00    +0.145 A 
ATOM      3  N   LIG    1      -31.881  92.956  23.748  0.00  0.00    -0.201 NA
ATOM      4  C   LIG    1      -32.778  93.966  23.690  0.00  0.00    +0.323 A 
ATOM      5  N   LIG    1      -33.550  94.349  24.715  0.00  0.00    -0.201 NA
ATOM      6  C   LIG    1      -33.456  93.597  25.831  0.00  0.00    +0.145 A 
ENDROOT
BRANCH   1   8
ATOM      7  C   LIG    1      -33.633  90.661  27.204  0.00  0.00    +0.285 C 
ATOM      8  N   LIG    1      -32.743  91.610  27.081  0.00  0.00    -0.196 NA
BRANCH   7   9
ATOM      9  O   LIG    1      -34.452  90.303  26.197  0.00  0.00    -0.481 OA
ATOM     10  H   LIG    1      -33.986  90.226  25.355  0.00  0.00    +0.295 HD
ENDBRANCH   7   9
BRANCH   7  11
ATOM     11  N   LIG    1      -33.907  89.879  28.294  0.00  0.00    -0.269 N 
ATOM     12  H   LIG    1      -34.901  89.887  28.519  0.00  0.00    +0.157 HD
BRANCH  11  13
ATOM     13  C   LIG    1      -33.105  89.817  29.469  0.00  0.00    +0.043 A 
ATOM     14  C   LIG    1      -33.209  90.764  30.533  0.00  0.00    +0.005 A 
ATOM     15  C   LIG    1      -32.363  90.548  31.651  0.00  0.00    +0.011 A 
ATOM     16  C   LIG    1      -31.442  89.500  31.720  0.00  0.00    +0.013 A 
ATOM     17  C   LIG    1      -31.310  88.611  30.658  0.00  0.00    +0.057 A 
ATOM     18  C   LIG    1      -32.127  88.796  29.539  0.00  0.00    +0.036 A 
BRANCH  14  19
ATOM     19  C   LIG    1      -34.166  91.919  30.600  0.00  0.00    +0.002 A 
ATOM     20  C   LIG    1      -33.840  93.214  30.196  0.00  0.00    +0.119 A 
ATOM     21  N   LIG    1      -34.673  94.292  30.226  0.00  0.00    -0.263 NA
ATOM     22  C   LIG    1      -35.936  94.083  30.644  0.00  0.00    +0.111 A 
ATOM     23  C   LIG    1      -36.405  92.845  31.025  0.00  0.00    +0.020 A 
ATOM     24  C   LIG    1      -35.510  91.770  31.015  0.00  0.00    +0.011 A 
ENDBRANCH  14  19
BRANCH  17  25
ATOM     25  C   LIG    1      -30.347  87.457  30.739  0.00  0.00    +0.417 C 
ATOM     26  F   LIG    1      -29.126  87.767  30.223  0.00  0.00    -0.166 F 
ATOM     27  F   LIG    1      -30.781  86.367  30.047  0.00  0.00    -0.166 F 
ATOM     28  F   LIG    1      -30.118  87.022  32.009  0.00  0.00    -0.166 F 
ENDBRANCH  17  25
ENDBRANCH  11  13
ENDBRANCH   7  11
ENDBRANCH   1   8
BRANCH   4  29
ATOM     29  O   LIG    1      -33.014  94.619  22.486  0.00  0.00    -0.424 OA
BRANCH  29  30
ATOM     30  C   LIG    1      -33.021  93.865  21.332  0.00  0.00    +0.132 A 
ATOM     31  C   LIG    1      -34.167  93.117  21.071  0.00  0.00    +0.047 A 
ATOM     32  C   LIG    1      -34.257  92.358  19.896  0.00  0.00    +0.012 A 
ATOM     33  C   LIG    1      -33.208  92.335  18.957  0.00  0.00    -0.016 A 
ATOM     34  C   LIG    1      -32.055  93.070  19.254  0.00  0.00    +0.012 A 
ATOM     35  C   LIG    1      -31.946  93.787  20.445  0.00  0.00    +0.047 A 
BRANCH  33  36
ATOM     36  C   LIG    1      -33.272  91.540  17.700  0.00  0.00    -0.001 A 
ATOM     37  C   LIG    1      -33.273  90.054  17.689  0.00  0.00    +0.021 A 
ATOM     38  C   LIG    1      -33.348  89.372  16.541  0.00  0.00    +0.019 A 
ATOM     39  C   LIG    1      -33.387  88.003  16.149  0.00  0.00    +0.031 A 
ATOM     40  C   LIG    1      -33.494  88.043  14.807  0.00  0.00    +0.114 A 
ATOM     41  N   LIG    1      -33.522  89.316  14.246  0.00  0.00    -0.237 NA
ATOM     42  C   LIG    1      -33.434  90.130  15.265  0.00  0.00    +0.138 A 
ATOM     43  N   LIG    1      -33.413  91.493  15.295  0.00  0.00    -0.345 N 
ATOM     44  H   LIG    1      -33.481  92.005  14.426  0.00  0.00    +0.167 HD
ATOM     45  C   LIG    1      -33.332  92.168  16.496  0.00  0.00    +0.093 A 
ENDBRANCH  33  36
ENDBRANCH  29  30
ENDBRANCH   4  29
TORSDOF 9
ENDMDL
MODEL 8
REMARK VINA RESULT:      -6.9     17.864     22.904
REMARK  Name = pdb/CHEMBL3913818.pdb
REMARK                            x       y       z     vdW  Elec       q    Type
REMARK                         _______ _______ _______ _____ _____    ______ ____
ROOT
ATOM      1  C   LIG    1      -35.152  67.406  22.490  0.00  0.00    +0.105 A 
ATOM      2  C   LIG    1      -35.030  67.249  23.863  0.00  0.00    +0.145 A 
ATOM      3  N   LIG    1      -36.012  67.547  24.738  0.00  0.00    -0.201 NA
ATOM      4  C   LIG    1      -37.153  68.061  24.229  0.00  0.00    +0.323 A 
ATOM      5  N   LIG    1      -37.420  68.157  22.919  0.00  0.00    -0.201 NA
ATOM      6  C   LIG    1      -36.423  67.784  22.091  0.00  0.00    +0.145 A 
ENDROOT
BRANCH   1   8
ATOM      7  C   LIG    1      -33.941  65.989  21.037  0.00  0.00    +0.285 C 
ATOM      8  N   LIG    1      -34.102  67.159  21.597  0.00  0.00    -0.196 NA
BRANCH   7   9
ATOM      9  O   LIG    1      -34.856  65.007  21.138  0.00  0.00    -0.481 OA
ATOM     10  H   LIG    1      -35.528  65.060  20.447  0.00  0.00    +0.295 HD
ENDBRANCH   7   9
BRANCH   7  11
ATOM     11  N   LIG    1      -32.892  65.538  20.281  0.00  0.00    -0.269 N 
ATOM     12  H   LIG    1      -32.205  65.046  20.853  0.00  0.00    +0.157 HD
BRANCH  11  13
ATOM     13  C   LIG    1      -32.271  66.276  19.235  0.00  0.00    +0.043 A 
ATOM     14  C   LIG    1      -32.943  66.627  18.024  0.00  0.00    +0.005 A 
ATOM     15  C   LIG    1      -32.196  67.392  17.091  0.00  0.00    +0.011 A 
ATOM     16  C   LIG    1      -30.865  67.762  17.299  0.00  0.00    +0.013 A 
ATOM     17  C   LIG    1      -30.202  67.373  18.457  0.00  0.00    +0.057 A 
ATOM     18  C   LIG    1      -30.906  66.617  19.397  0.00  0.00    +0.036 A 
BRANCH  14  19
ATOM     19  C   LIG    1      -34.371  66.315  17.681  0.00  0.00    +0.002 A 
ATOM     20  C   LIG    1      -34.796  65.073  17.209  0.00  0.00    +0.119 A 
ATOM     21  N   LIG    1      -36.078  64.736  16.895  0.00  0.00    -0.263 NA
ATOM     22  C   LIG    1      -37.027  65.670  17.096  0.00  0.00    +0.111 A 
ATOM     23  C   LIG    1      -36.753  66.921  17.604  0.00  0.00    +0.020 A 
ATOM     24  C   LIG    1      -35.420  67.242  17.880  0.00  0.00    +0.011 A 
ENDBRANCH  14  19
BRANCH  17  25
ATOM     25  C   LIG    1      -28.779  67.800  18.707  0.00  0.00    +0.417 C 
ATOM     26  F   LIG    1      -28.054  67.876  17.557  0.00  0.00    -0.166 F 
ATOM     27  F   LIG    1      -28.110  66.934  19.516  0.00  0.00    -0.166 F 
ATOM     28  F   LIG    1      -28.670  69.022  19.300  0.00  0.00    -0.166 F 
ENDBRANCH  17  25
ENDBRANCH  11  13
ENDBRANCH   7  11
ENDBRANCH   1   8
BRANCH   4  29
ATOM     29  O   LIG    1      -38.103  68.622  25.075  0.00  0.00    -0.424 OA
BRANCH  29  30
ATOM     30  C   LIG    1      -38.349  69.974  24.962  0.00  0.00    +0.132 A 
ATOM     31  C   LIG    1      -37.399  70.838  25.500  0.00  0.00    +0.047 A 
ATOM     32  C   LIG    1      -37.568  72.226  25.386  0.00  0.00    +0.012 A 
ATOM     33  C   LIG    1      -38.684  72.775  24.728  0.00  0.00    -0.016 A 
ATOM     34  C   LIG    1      -39.641  71.889  24.221  0.00  0.00    +0.012 A 
ATOM     35  C   LIG    1      -39.497  70.511  24.377  0.00  0.00    +0.047 A 
BRANCH  33  36
ATOM     36  C   LIG    1      -38.893  74.243  24.590  0.00  0.00    -0.001 A 
ATOM     37  C   LIG    1      -40.146  74.828  24.044  0.00  0.00    +0.021 A 
ATOM     38  C   LIG    1      -40.306  76.153  23.950  0.00  0.00    +0.019 A 
ATOM     39  C   LIG    1      -41.326  77.045  23.512  0.00  0.00    +0.031 A 
ATOM     40  C   LIG    1      -40.812  78.271  23.728  0.00  0.00    +0.114 A 
ATOM     41  N   LIG    1      -39.529  78.297  24.266  0.00  0.00    -0.237 NA
ATOM     42  C   LIG    1      -39.203  77.039  24.406  0.00  0.00    +0.138 A 
ATOM     43  N   LIG    1      -38.054  76.483  24.886  0.00  0.00    -0.345 N 
ATOM     44  H   LIG    1      -37.310  77.088  25.204  0.00  0.00    +0.167 HD
ATOM     45  C   LIG    1      -37.919  75.111  24.969  0.00  0.00    +0.093 A 
ENDBRANCH  33  36
ENDBRANCH  29  30
ENDBRANCH   4  29
TORSDOF 9
ENDMDL
MODEL 9
REMARK VINA RESULT:      -6.9      2.621      4.076
REMARK  Name = pdb/CHEMBL3913818.pdb
REMARK                            x       y       z     vdW  Elec       q    Type
REMARK                         _______ _______ _______ _____ _____    ______ ____
ROOT
ATOM      1  C   LIG    1      -28.052  84.131  36.822  0.00  0.00    +0.105 A 
ATOM      2  C   LIG    1      -28.164  82.983  37.593  0.00  0.00    +0.145 A 
ATOM      3  N   LIG    1      -27.113  82.214  37.944  0.00  0.00    -0.201 NA
ATOM      4  C   LIG    1      -25.901  82.581  37.475  0.00  0.00    +0.323 A 
ATOM      5  N   LIG    1      -25.660  83.722  36.815  0.00  0.00    -0.201 NA
ATOM      6  C   LIG    1      -26.741  84.482  36.548  0.00  0.00    +0.145 A 
ENDROOT
BRANCH   1   8
ATOM      7  C   LIG    1      -29.422  85.067  35.139  0.00  0.00    +0.285 C 
ATOM      8  N   LIG    1      -29.158  84.882  36.406  0.00  0.00    -0.196 NA
BRANCH   7   9
ATOM      9  O   LIG    1      -28.765  84.416  34.161  0.00  0.00    -0.481 OA
ATOM     10  H   LIG    1      -28.535  84.996  33.424  0.00  0.00    +0.295 HD
ENDBRANCH   7   9
BRANCH   7  11
ATOM     11  N   LIG    1      -30.352  85.895  34.569  0.00  0.00    -0.269 N 
ATOM     12  H   LIG    1      -30.984  85.380  33.956  0.00  0.00    +0.157 HD
BRANCH  11  13
ATOM     13  C   LIG    1      -30.077  87.196  34.063  0.00  0.00    +0.043 A 
ATOM     14  C   LIG    1      -30.581  87.668  32.812  0.00  0.00    +0.005 A 
ATOM     15  C   LIG    1      -30.243  89.001  32.461  0.00  0.00    +0.011 A 
ATOM     16  C   LIG    1      -29.433  89.817  33.255  0.00  0.00    +0.013 A 
ATOM     17  C   LIG    1      -28.904  89.333  34.447  0.00  0.00    +0.057 A 
ATOM     18  C   LIG    1      -29.215  88.024  34.822  0.00  0.00    +0.036 A 
BRANCH  14  19
ATOM     19  C   LIG    1      -31.475  86.909  31.875  0.00  0.00    +0.002 A 
ATOM     20  C   LIG    1      -32.852  86.777  32.061  0.00  0.00    +0.119 A 
ATOM     21  N   LIG    1      -33.707  86.110  31.236  0.00  0.00    -0.263 NA
ATOM     22  C   LIG    1      -33.187  85.564  30.121  0.00  0.00    +0.111 A 
ATOM     23  C   LIG    1      -31.853  85.661  29.789  0.00  0.00    +0.020 A 
ATOM     24  C   LIG    1      -31.000  86.323  30.679  0.00  0.00    +0.011 A 
ENDBRANCH  14  19
BRANCH  17  25
ATOM     25  C   LIG    1      -28.062  90.218  35.327  0.00  0.00    +0.417 C 
ATOM     26  F   LIG    1      -26.976  90.714  34.672  0.00  0.00    -0.166 F 
ATOM     27  F   LIG    1      -27.575  89.559  36.414  0.00  0.00    -0.166 F 
ATOM     28  F   LIG    1      -28.730  91.300  35.817  0.00  0.00    -0.166 F 
ENDBRANCH  17  25
ENDBRANCH  11  13
ENDBRANCH   7  11
ENDBRANCH   1   8
BRANCH   4  29
ATOM     29  O   LIG    1      -24.821  81.712  37.581  0.00  0.00    -0.424 OA
BRANCH  29  30
ATOM     30  C   LIG    1      -24.512  80.930  36.489  0.00  0.00    +0.132 A 
ATOM     31  C   LIG    1      -23.331  81.225  35.812  0.00  0.00    +0.047 A 
ATOM     32  C   LIG    1      -22.936  80.445  34.716  0.00  0.00    +0.012 A 
ATOM     33  C   LIG    1      -23.709  79.353  34.279  0.00  0.00    -0.016 A 
ATOM     34  C   LIG    1      -24.906  79.093  34.956  0.00  0.00    +0.012 A 
ATOM     35  C   LIG    1      -25.323  79.898  36.015  0.00  0.00    +0.047 A 
BRANCH  33  36
ATOM     36  C   LIG    1      -23.319  78.504  33.119  0.00  0.00    -0.001 A 
ATOM     37  C   LIG    1      -21.910  78.113  32.849  0.00  0.00    +0.021 A 
ATOM     38  C   LIG    1      -21.598  77.334  31.807  0.00  0.00    +0.019 A 
ATOM     39  C   LIG    1      -20.415  76.763  31.258  0.00  0.00    +0.031 A 
ATOM     40  C   LIG    1      -20.848  76.055  30.197  0.00  0.00    +0.114 A 
ATOM     41  N   LIG    1      -22.219  76.099  29.966  0.00  0.00    -0.237 NA
ATOM     42  C   LIG    1      -22.691  76.862  30.917  0.00  0.00    +0.138 A 
ATOM     43  N   LIG    1      -23.974  77.247  31.171  0.00  0.00    -0.345 N 
ATOM     44  H   LIG    1      -24.716  76.916  30.570  0.00  0.00    +0.167 HD
ATOM     45  C   LIG    1      -24.264  78.053  32.254  0.00  0.00    +0.093 A 
ENDBRANCH  33  36
ENDBRANCH  29  30
ENDBRANCH   4  29
TORSDOF 9
ENDMDL
