MODEL 1
REMARK VINA RESULT:      -6.4      0.000      0.000
REMARK  Name = pdb/CHEMBL3675908.pdb
REMARK                            x       y       z     vdW  Elec       q    Type
REMARK                         _______ _______ _______ _____ _____    ______ ____
ROOT
ATOM      1  C   LIG    1      -33.702  76.696  27.422  0.00  0.00    +0.100 A 
ATOM      2  C   LIG    1      -35.060  76.443  27.309  0.00  0.00    +0.170 A 
ATOM      3  N   LIG    1      -36.047  77.032  26.558  0.00  0.00    -0.212 NA
ATOM      4  C   LIG    1      -37.270  76.547  26.641  0.00  0.00    +0.126 A 
ATOM      5  C   LIG    1      -37.593  75.370  27.534  0.00  0.00    +0.063 A 
ATOM      6  C   LIG    1      -36.598  74.851  28.262  0.00  0.00    +0.118 A 
ATOM      7  N   LIG    1      -35.320  75.373  28.165  0.00  0.00    -0.221 N 
ATOM      8  N   LIG    1      -34.215  74.963  28.830  0.00  0.00    -0.173 NA
ATOM      9  C   LIG    1      -33.250  75.763  28.378  0.00  0.00    +0.150 A 
ENDROOT
BRANCH   1  13
ATOM     10  N   LIG    1      -33.364  78.966  26.814  0.00  0.00    -0.325 N 
ATOM     11  H   LIG    1      -34.214  79.178  27.333  0.00  0.00    +0.145 HD
ATOM     12  H   LIG    1      -32.857  79.703  26.348  0.00  0.00    +0.145 HD
ATOM     13  C   LIG    1      -32.908  77.687  26.735  0.00  0.00    +0.247 C 
ATOM     14  O   LIG    1      -31.885  77.412  26.110  0.00  0.00    -0.270 OA
ENDBRANCH   1  13
BRANCH   4  15
ATOM     15  N   LIG    1      -38.284  77.139  25.898  0.00  0.00    -0.308 N 
ATOM     16  C   LIG    1      -38.520  76.797  24.482  0.00  0.00    +0.108 C 
ATOM     17  C   LIG    1      -39.098  78.093  23.887  0.00  0.00    +0.029 C 
ATOM     18  C   LIG    1      -39.812  78.746  25.059  0.00  0.00    +0.021 C 
ATOM     19  C   LIG    1      -38.896  78.423  26.228  0.00  0.00    +0.107 C 
BRANCH  16  20
ATOM     20  C   LIG    1      -39.445  75.609  24.312  0.00  0.00    +0.011 A 
ATOM     21  C   LIG    1      -38.910  74.315  24.392  0.00  0.00    +0.129 A 
ATOM     22  F   LIG    1      -37.598  74.150  24.612  0.00  0.00    -0.205 F 
ATOM     23  C   LIG    1      -39.707  73.177  24.257  0.00  0.00    +0.041 A 
ATOM     24  C   LIG    1      -41.073  73.319  24.026  0.00  0.00    +0.041 A 
ATOM     25  C   LIG    1      -41.616  74.594  23.932  0.00  0.00    +0.124 A 
ATOM     26  F   LIG    1      -42.930  74.733  23.709  0.00  0.00    -0.205 F 
ATOM     27  C   LIG    1      -40.821  75.731  24.067  0.00  0.00    +0.046 A 
ENDBRANCH  16  20
ENDBRANCH   4  15
TORSDOF 3
ENDMDL
MODEL 2
REMARK VINA RESULT:      -5.8     19.388     21.925
REMARK  Name = pdb/CHEMBL3675908.pdb
REMARK                            x       y       z     vdW  Elec       q    Type
REMARK                         _______ _______ _______ _____ _____    ______ ____
ROOT
ATOM      1  C   LIG    1      -22.585  87.014  13.934  0.00  0.00    +0.100 A 
ATOM      2  C   LIG    1      -22.671  85.638  13.784  0.00  0.00    +0.170 A 
ATOM      3  N   LIG    1      -22.349  84.599  14.621  0.00  0.00    -0.212 NA
ATOM      4  C   LIG    1      -22.570  83.368  14.204  0.00  0.00    +0.126 A 
ATOM      5  C   LIG    1      -23.168  83.092  12.843  0.00  0.00    +0.063 A 
ATOM      6  C   LIG    1      -23.440  84.142  12.059  0.00  0.00    +0.118 A 
ATOM      7  N   LIG    1      -23.199  85.427  12.510  0.00  0.00    -0.221 N 
ATOM      8  N   LIG    1      -23.417  86.584  11.844  0.00  0.00    -0.173 NA
ATOM      9  C   LIG    1      -23.046  87.530  12.706  0.00  0.00    +0.150 A 
ENDROOT
BRANCH   1  13
ATOM     10  N   LIG    1      -20.973  87.331  15.648  0.00  0.00    -0.325 N 
ATOM     11  H   LIG    1      -20.489  86.517  15.272  0.00  0.00    +0.145 HD
ATOM     12  H   LIG    1      -20.604  87.813  16.453  0.00  0.00    +0.145 HD
ATOM     13  C   LIG    1      -22.125  87.770  15.075  0.00  0.00    +0.247 C 
ATOM     14  O   LIG    1      -22.724  88.749  15.517  0.00  0.00    -0.270 OA
ENDBRANCH   1  13
BRANCH   4  15
ATOM     15  N   LIG    1      -22.238  82.304  15.033  0.00  0.00    -0.308 N 
ATOM     16  C   LIG    1      -21.744  81.020  14.499  0.00  0.00    +0.108 C 
ATOM     17  C   LIG    1      -22.227  79.987  15.533  0.00  0.00    +0.029 C 
ATOM     18  C   LIG    1      -22.263  80.766  16.837  0.00  0.00    +0.021 C 
ATOM     19  C   LIG    1      -22.744  82.138  16.393  0.00  0.00    +0.107 C 
BRANCH  16  20
ATOM     20  C   LIG    1      -20.241  81.002  14.310  0.00  0.00    +0.011 A 
ATOM     21  C   LIG    1      -19.717  81.151  13.017  0.00  0.00    +0.129 A 
ATOM     22  F   LIG    1      -20.549  81.300  11.976  0.00  0.00    -0.205 F 
ATOM     23  C   LIG    1      -18.343  81.156  12.773  0.00  0.00    +0.041 A 
ATOM     24  C   LIG    1      -17.456  81.001  13.835  0.00  0.00    +0.041 A 
ATOM     25  C   LIG    1      -17.959  80.841  15.121  0.00  0.00    +0.124 A 
ATOM     26  F   LIG    1      -17.108  80.691  16.144  0.00  0.00    -0.205 F 
ATOM     27  C   LIG    1      -19.331  80.835  15.366  0.00  0.00    +0.046 A 
ENDBRANCH  16  20
ENDBRANCH   4  15
TORSDOF 3
ENDMDL
MODEL 3
REMARK VINA RESULT:      -5.7     18.819     21.700
REMARK  Name = pdb/CHEMBL3675908.pdb
REMARK                            x       y       z     vdW  Elec       q    Type
REMARK                         _______ _______ _______ _____ _____    ______ ____
ROOT
ATOM      1  C   LIG    1      -21.744  87.535  13.771  0.00  0.00    +0.100 A 
ATOM      2  C   LIG    1      -21.321  86.304  13.292  0.00  0.00    +0.170 A 
ATOM      3  N   LIG    1      -21.034  85.119  13.923  0.00  0.00    -0.212 NA
ATOM      4  C   LIG    1      -20.672  84.089  13.184  0.00  0.00    +0.126 A 
ATOM      5  C   LIG    1      -20.575  84.194  11.678  0.00  0.00    +0.063 A 
ATOM      6  C   LIG    1      -20.842  85.379  11.119  0.00  0.00    +0.118 A 
ATOM      7  N   LIG    1      -21.218  86.451  11.908  0.00  0.00    -0.221 N 
ATOM      8  N   LIG    1      -21.519  87.705  11.498  0.00  0.00    -0.173 NA
ATOM      9  C   LIG    1      -21.833  88.348  12.623  0.00  0.00    +0.150 A 
ENDROOT
BRANCH   1  13
ATOM     10  N   LIG    1      -21.301  87.290  16.091  0.00  0.00    -0.325 N 
ATOM     11  H   LIG    1      -20.607  86.591  15.832  0.00  0.00    +0.145 HD
ATOM     12  H   LIG    1      -21.459  87.512  17.062  0.00  0.00    +0.145 HD
ATOM     13  C   LIG    1      -22.029  87.923  15.133  0.00  0.00    +0.247 C 
ATOM     14  O   LIG    1      -22.873  88.767  15.427  0.00  0.00    -0.270 OA
ENDBRANCH   1  13
BRANCH   4  15
ATOM     15  N   LIG    1      -20.365  82.886  13.807  0.00  0.00    -0.308 N 
ATOM     16  C   LIG    1      -21.114  82.398  14.981  0.00  0.00    +0.108 C 
ATOM     17  C   LIG    1      -20.072  81.574  15.759  0.00  0.00    +0.029 C 
ATOM     18  C   LIG    1      -19.137  81.055  14.680  0.00  0.00    +0.021 C 
ATOM     19  C   LIG    1      -19.067  82.223  13.710  0.00  0.00    +0.107 C 
BRANCH  16  20
ATOM     20  C   LIG    1      -22.338  81.589  14.602  0.00  0.00    +0.011 A 
ATOM     21  C   LIG    1      -23.154  81.076  15.620  0.00  0.00    +0.129 A 
ATOM     22  F   LIG    1      -22.840  81.304  16.903  0.00  0.00    -0.205 F 
ATOM     23  C   LIG    1      -24.303  80.333  15.341  0.00  0.00    +0.041 A 
ATOM     24  C   LIG    1      -24.653  80.080  14.018  0.00  0.00    +0.041 A 
ATOM     25  C   LIG    1      -23.847  80.571  12.998  0.00  0.00    +0.124 A 
ATOM     26  F   LIG    1      -24.181  80.328  11.723  0.00  0.00    -0.205 F 
ATOM     27  C   LIG    1      -22.700  81.313  13.274  0.00  0.00    +0.046 A 
ENDBRANCH  16  20
ENDBRANCH   4  15
TORSDOF 3
ENDMDL
MODEL 4
REMARK VINA RESULT:      -5.7     19.250     21.326
REMARK  Name = pdb/CHEMBL3675908.pdb
REMARK                            x       y       z     vdW  Elec       q    Type
REMARK                         _______ _______ _______ _____ _____    ______ ____
ROOT
ATOM      1  C   LIG    1      -21.530  87.244  13.869  0.00  0.00    +0.100 A 
ATOM      2  C   LIG    1      -21.819  86.124  13.105  0.00  0.00    +0.170 A 
ATOM      3  N   LIG    1      -22.647  85.049  13.320  0.00  0.00    -0.212 NA
ATOM      4  C   LIG    1      -22.737  84.131  12.379  0.00  0.00    +0.126 A 
ATOM      5  C   LIG    1      -21.958  84.245  11.088  0.00  0.00    +0.063 A 
ATOM      6  C   LIG    1      -21.148  85.300  10.942  0.00  0.00    +0.118 A 
ATOM      7  N   LIG    1      -21.063  86.254  11.940  0.00  0.00    -0.221 N 
ATOM      8  N   LIG    1      -20.296  87.369  11.944  0.00  0.00    -0.173 NA
ATOM      9  C   LIG    1      -20.583  87.955  13.106  0.00  0.00    +0.150 A 
ENDROOT
BRANCH   1  13
ATOM     10  N   LIG    1      -21.846  86.724  16.165  0.00  0.00    -0.325 N 
ATOM     11  H   LIG    1      -21.340  85.859  15.985  0.00  0.00    +0.145 HD
ATOM     12  H   LIG    1      -22.199  86.924  17.088  0.00  0.00    +0.145 HD
ATOM     13  C   LIG    1      -22.061  87.615  15.160  0.00  0.00    +0.247 C 
ATOM     14  O   LIG    1      -22.672  88.664  15.357  0.00  0.00    -0.270 OA
ENDBRANCH   1  13
BRANCH   4  15
ATOM     15  N   LIG    1      -23.560  83.031  12.586  0.00  0.00    -0.308 N 
ATOM     16  C   LIG    1      -23.024  81.659  12.682  0.00  0.00    +0.108 C 
ATOM     17  C   LIG    1      -24.171  80.783  12.145  0.00  0.00    +0.029 C 
ATOM     18  C   LIG    1      -25.424  81.568  12.494  0.00  0.00    +0.021 C 
ATOM     19  C   LIG    1      -24.987  83.008  12.276  0.00  0.00    +0.107 C 
BRANCH  16  20
ATOM     20  C   LIG    1      -22.613  81.288  14.092  0.00  0.00    +0.011 A 
ATOM     21  C   LIG    1      -21.925  80.084  14.304  0.00  0.00    +0.129 A 
ATOM     22  F   LIG    1      -21.648  79.285  13.264  0.00  0.00    -0.205 F 
ATOM     23  C   LIG    1      -21.506  79.687  15.575  0.00  0.00    +0.041 A 
ATOM     24  C   LIG    1      -21.782  80.496  16.673  0.00  0.00    +0.041 A 
ATOM     25  C   LIG    1      -22.473  81.686  16.482  0.00  0.00    +0.124 A 
ATOM     26  F   LIG    1      -22.741  82.467  17.538  0.00  0.00    -0.205 F 
ATOM     27  C   LIG    1      -22.892  82.085  15.213  0.00  0.00    +0.046 A 
ENDBRANCH  16  20
ENDBRANCH   4  15
TORSDOF 3
ENDMDL
MODEL 5
REMARK VINA RESULT:      -5.6     14.755     17.721
REMARK  Name = pdb/CHEMBL3675908.pdb
REMARK                            x       y       z     vdW  Elec       q    Type
REMARK                         _______ _______ _______ _____ _____    ______ ____
ROOT
ATOM      1  C   LIG    1      -21.293  80.644  35.682  0.00  0.00    +0.100 A 
ATOM      2  C   LIG    1      -20.661  79.702  34.886  0.00  0.00    +0.170 A 
ATOM      3  N   LIG    1      -21.031  79.088  33.715  0.00  0.00    -0.212 NA
ATOM      4  C   LIG    1      -20.191  78.234  33.164  0.00  0.00    +0.126 A 
ATOM      5  C   LIG    1      -18.848  77.932  33.792  0.00  0.00    +0.063 A 
ATOM      6  C   LIG    1      -18.551  78.540  34.945  0.00  0.00    +0.118 A 
ATOM      7  N   LIG    1      -19.444  79.431  35.512  0.00  0.00    -0.221 N 
ATOM      8  N   LIG    1      -19.292  80.122  36.666  0.00  0.00    -0.173 NA
ATOM      9  C   LIG    1      -20.407  80.846  36.759  0.00  0.00    +0.150 A 
ENDROOT
BRANCH   1  13
ATOM     10  N   LIG    1      -22.596  82.630  35.670  0.00  0.00    -0.325 N 
ATOM     11  H   LIG    1      -21.748  83.126  35.937  0.00  0.00    +0.145 HD
ATOM     12  H   LIG    1      -23.462  83.132  35.551  0.00  0.00    +0.145 HD
ATOM     13  C   LIG    1      -22.573  81.283  35.480  0.00  0.00    +0.247 C 
ATOM     14  O   LIG    1      -23.587  80.667  35.160  0.00  0.00    -0.270 OA
ENDBRANCH   1  13
BRANCH   4  15
ATOM     15  N   LIG    1      -20.554  77.594  31.986  0.00  0.00    -0.308 N 
ATOM     16  C   LIG    1      -21.405  76.388  31.980  0.00  0.00    +0.108 C 
ATOM     17  C   LIG    1      -20.940  75.621  30.729  0.00  0.00    +0.029 C 
ATOM     18  C   LIG    1      -20.469  76.715  29.785  0.00  0.00    +0.021 C 
ATOM     19  C   LIG    1      -19.819  77.713  30.730  0.00  0.00    +0.107 C 
BRANCH  16  20
ATOM     20  C   LIG    1      -22.885  76.714  31.952  0.00  0.00    +0.011 A 
ATOM     21  C   LIG    1      -23.730  76.114  32.897  0.00  0.00    +0.129 A 
ATOM     22  F   LIG    1      -23.221  75.265  33.801  0.00  0.00    -0.205 F 
ATOM     23  C   LIG    1      -25.100  76.379  32.935  0.00  0.00    +0.041 A 
ATOM     24  C   LIG    1      -25.656  77.256  32.009  0.00  0.00    +0.041 A 
ATOM     25  C   LIG    1      -24.835  77.849  31.058  0.00  0.00    +0.124 A 
ATOM     26  F   LIG    1      -25.368  78.693  30.164  0.00  0.00    -0.205 F 
ATOM     27  C   LIG    1      -23.466  77.586  31.018  0.00  0.00    +0.046 A 
ENDBRANCH  16  20
ENDBRANCH   4  15
TORSDOF 3
ENDMDL
MODEL 6
REMARK VINA RESULT:      -5.6     18.380     20.933
REMARK  Name = pdb/CHEMBL3675908.pdb
REMARK                            x       y       z     vdW  Elec       q    Type
REMARK                         _______ _______ _______ _____ _____    ______ ____
ROOT
ATOM      1  C   LIG    1      -21.691  86.720  13.955  0.00  0.00    +0.100 A 
ATOM      2  C   LIG    1      -21.919  85.423  13.522  0.00  0.00    +0.170 A 
ATOM      3  N   LIG    1      -21.293  84.234  13.804  0.00  0.00    -0.212 NA
ATOM      4  C   LIG    1      -21.760  83.133  13.250  0.00  0.00    +0.126 A 
ATOM      5  C   LIG    1      -22.959  83.163  12.327  0.00  0.00    +0.063 A 
ATOM      6  C   LIG    1      -23.514  84.351  12.068  0.00  0.00    +0.118 A 
ATOM      7  N   LIG    1      -23.010  85.498  12.656  0.00  0.00    -0.221 N 
ATOM      8  N   LIG    1      -23.456  86.765  12.496  0.00  0.00    -0.173 NA
ATOM      9  C   LIG    1      -22.659  87.491  13.279  0.00  0.00    +0.150 A 
ENDROOT
BRANCH   1  13
ATOM     10  N   LIG    1      -21.117  87.393  16.159  0.00  0.00    -0.325 N 
ATOM     11  H   LIG    1      -22.084  87.203  16.413  0.00  0.00    +0.145 HD
ATOM     12  H   LIG    1      -20.468  87.734  16.851  0.00  0.00    +0.145 HD
ATOM     13  C   LIG    1      -20.693  87.199  14.882  0.00  0.00    +0.247 C 
ATOM     14  O   LIG    1      -19.529  87.426  14.555  0.00  0.00    -0.270 OA
ENDBRANCH   1  13
BRANCH   4  15
ATOM     15  N   LIG    1      -21.131  81.924  13.514  0.00  0.00    -0.308 N 
ATOM     16  C   LIG    1      -21.348  81.186  14.773  0.00  0.00    +0.108 C 
ATOM     17  C   LIG    1      -20.019  80.440  14.991  0.00  0.00    +0.029 C 
ATOM     18  C   LIG    1      -19.496  80.207  13.583  0.00  0.00    +0.021 C 
ATOM     19  C   LIG    1      -19.900  81.483  12.862  0.00  0.00    +0.107 C 
BRANCH  16  20
ATOM     20  C   LIG    1      -22.540  80.253  14.709  0.00  0.00    +0.011 A 
ATOM     21  C   LIG    1      -23.222  79.940  15.894  0.00  0.00    +0.129 A 
ATOM     22  F   LIG    1      -22.810  80.464  17.056  0.00  0.00    -0.205 F 
ATOM     23  C   LIG    1      -24.335  79.097  15.904  0.00  0.00    +0.041 A 
ATOM     24  C   LIG    1      -24.785  78.538  14.711  0.00  0.00    +0.041 A 
ATOM     25  C   LIG    1      -24.113  78.828  13.530  0.00  0.00    +0.124 A 
ATOM     26  F   LIG    1      -24.543  78.290  12.381  0.00  0.00    -0.205 F 
ATOM     27  C   LIG    1      -23.001  79.670  13.518  0.00  0.00    +0.046 A 
ENDBRANCH  16  20
ENDBRANCH   4  15
TORSDOF 3
ENDMDL
MODEL 7
REMARK VINA RESULT:      -5.6     18.998     21.977
REMARK  Name = pdb/CHEMBL3675908.pdb
REMARK                            x       y       z     vdW  Elec       q    Type
REMARK                         _______ _______ _______ _____ _____    ______ ____
ROOT
ATOM      1  C   LIG    1      -19.988  87.926  12.976  0.00  0.00    +0.100 A 
ATOM      2  C   LIG    1      -20.572  86.771  13.472  0.00  0.00    +0.170 A 
ATOM      3  N   LIG    1      -20.148  85.466  13.507  0.00  0.00    -0.212 NA
ATOM      4  C   LIG    1      -20.926  84.570  14.080  0.00  0.00    +0.126 A 
ATOM      5  C   LIG    1      -22.254  84.956  14.693  0.00  0.00    +0.063 A 
ATOM      6  C   LIG    1      -22.628  86.237  14.609  0.00  0.00    +0.118 A 
ATOM      7  N   LIG    1      -21.801  87.165  14.001  0.00  0.00    -0.221 N 
ATOM      8  N   LIG    1      -22.035  88.487  13.837  0.00  0.00    -0.173 NA
ATOM      9  C   LIG    1      -20.941  88.935  13.221  0.00  0.00    +0.150 A 
ENDROOT
BRANCH   1  13
ATOM     10  N   LIG    1      -18.688  88.846  11.214  0.00  0.00    -0.325 N 
ATOM     11  H   LIG    1      -19.549  89.264  10.866  0.00  0.00    +0.145 HD
ATOM     12  H   LIG    1      -17.820  88.988  10.722  0.00  0.00    +0.145 HD
ATOM     13  C   LIG    1      -18.701  88.085  12.341  0.00  0.00    +0.247 C 
ATOM     14  O   LIG    1      -17.671  87.570  12.774  0.00  0.00    -0.270 OA
ENDBRANCH   1  13
BRANCH   4  15
ATOM     15  N   LIG    1      -20.519  83.242  14.112  0.00  0.00    -0.308 N 
ATOM     16  C   LIG    1      -21.029  82.290  15.118  0.00  0.00    +0.108 C 
ATOM     17  C   LIG    1      -19.866  81.299  15.303  0.00  0.00    +0.029 C 
ATOM     18  C   LIG    1      -19.169  81.300  13.953  0.00  0.00    +0.021 C 
ATOM     19  C   LIG    1      -19.275  82.754  13.524  0.00  0.00    +0.107 C 
BRANCH  16  20
ATOM     20  C   LIG    1      -22.315  81.613  14.686  0.00  0.00    +0.011 A 
ATOM     21  C   LIG    1      -23.108  80.981  15.655  0.00  0.00    +0.129 A 
ATOM     22  F   LIG    1      -22.717  80.982  16.938  0.00  0.00    -0.205 F 
ATOM     23  C   LIG    1      -24.309  80.350  15.328  0.00  0.00    +0.041 A 
ATOM     24  C   LIG    1      -24.737  80.332  14.004  0.00  0.00    +0.041 A 
ATOM     25  C   LIG    1      -23.957  80.943  13.030  0.00  0.00    +0.124 A 
ATOM     26  F   LIG    1      -24.367  80.927  11.755  0.00  0.00    -0.205 F 
ATOM     27  C   LIG    1      -22.757  81.575  13.355  0.00  0.00    +0.046 A 
ENDBRANCH  16  20
ENDBRANCH   4  15
TORSDOF 3
ENDMDL
MODEL 8
REMARK VINA RESULT:      -5.5     18.260     21.074
REMARK  Name = pdb/CHEMBL3675908.pdb
REMARK                            x       y       z     vdW  Elec       q    Type
REMARK                         _______ _______ _______ _____ _____    ______ ____
ROOT
ATOM      1  C   LIG    1      -20.746  86.822  13.222  0.00  0.00    +0.100 A 
ATOM      2  C   LIG    1      -20.791  85.437  13.202  0.00  0.00    +0.170 A 
ATOM      3  N   LIG    1      -21.135  84.512  14.157  0.00  0.00    -0.212 NA
ATOM      4  C   LIG    1      -21.104  83.235  13.831  0.00  0.00    +0.126 A 
ATOM      5  C   LIG    1      -20.705  82.785  12.443  0.00  0.00    +0.063 A 
ATOM      6  C   LIG    1      -20.356  83.727  11.561  0.00  0.00    +0.118 A 
ATOM      7  N   LIG    1      -20.391  85.063  11.919  0.00  0.00    -0.221 N 
ATOM      8  N   LIG    1      -20.069  86.127  11.148  0.00  0.00    -0.173 NA
ATOM      9  C   LIG    1      -20.285  87.178  11.939  0.00  0.00    +0.150 A 
ENDROOT
BRANCH   1  13
ATOM     10  N   LIG    1      -20.604  87.375  15.527  0.00  0.00    -0.325 N 
ATOM     11  H   LIG    1      -20.045  86.532  15.642  0.00  0.00    +0.145 HD
ATOM     12  H   LIG    1      -20.812  87.959  16.323  0.00  0.00    +0.145 HD
ATOM     13  C   LIG    1      -21.084  87.720  14.303  0.00  0.00    +0.247 C 
ATOM     14  O   LIG    1      -21.763  88.733  14.145  0.00  0.00    -0.270 OA
ENDBRANCH   1  13
BRANCH   4  15
ATOM     15  N   LIG    1      -21.437  82.285  14.788  0.00  0.00    -0.308 N 
ATOM     16  C   LIG    1      -22.751  82.276  15.459  0.00  0.00    +0.108 C 
ATOM     17  C   LIG    1      -22.448  81.674  16.843  0.00  0.00    +0.029 C 
ATOM     18  C   LIG    1      -21.267  80.752  16.589  0.00  0.00    +0.021 C 
ATOM     19  C   LIG    1      -20.458  81.524  15.559  0.00  0.00    +0.107 C 
BRANCH  16  20
ATOM     20  C   LIG    1      -23.796  81.490  14.693  0.00  0.00    +0.011 A 
ATOM     21  C   LIG    1      -24.360  82.055  13.540  0.00  0.00    +0.129 A 
ATOM     22  F   LIG    1      -23.973  83.274  13.139  0.00  0.00    -0.205 F 
ATOM     23  C   LIG    1      -25.318  81.381  12.781  0.00  0.00    +0.041 A 
ATOM     24  C   LIG    1      -25.740  80.114  13.175  0.00  0.00    +0.041 A 
ATOM     25  C   LIG    1      -25.200  79.546  14.322  0.00  0.00    +0.124 A 
ATOM     26  F   LIG    1      -25.605  78.327  14.704  0.00  0.00    -0.205 F 
ATOM     27  C   LIG    1      -24.243  80.217  15.082  0.00  0.00    +0.046 A 
ENDBRANCH  16  20
ENDBRANCH   4  15
TORSDOF 3
ENDMDL
MODEL 9
REMARK VINA RESULT:      -5.5     19.500     22.741
REMARK  Name = pdb/CHEMBL3675908.pdb
REMARK                            x       y       z     vdW  Elec       q    Type
REMARK                         _______ _______ _______ _____ _____    ______ ____
ROOT
ATOM      1  C   LIG    1      -21.977  81.310  15.054  0.00  0.00    +0.100 A 
ATOM      2  C   LIG    1      -21.316  81.983  14.037  0.00  0.00    +0.170 A 
ATOM      3  N   LIG    1      -20.641  83.179  14.011  0.00  0.00    -0.212 NA
ATOM      4  C   LIG    1      -20.081  83.556  12.880  0.00  0.00    +0.126 A 
ATOM      5  C   LIG    1      -20.166  82.702  11.634  0.00  0.00    +0.063 A 
ATOM      6  C   LIG    1      -20.857  81.559  11.710  0.00  0.00    +0.118 A 
ATOM      7  N   LIG    1      -21.442  81.178  12.905  0.00  0.00    -0.221 N 
ATOM      8  N   LIG    1      -22.167  80.061  13.143  0.00  0.00    -0.173 NA
ATOM      9  C   LIG    1      -22.484  80.150  14.434  0.00  0.00    +0.150 A 
ENDROOT
BRANCH   1  13
ATOM     10  N   LIG    1      -21.843  82.990  16.726  0.00  0.00    -0.325 N 
ATOM     11  H   LIG    1      -21.541  83.626  15.990  0.00  0.00    +0.145 HD
ATOM     12  H   LIG    1      -21.925  83.316  17.677  0.00  0.00    +0.145 HD
ATOM     13  C   LIG    1      -22.131  81.693  16.437  0.00  0.00    +0.247 C 
ATOM     14  O   LIG    1      -22.495  80.910  17.313  0.00  0.00    -0.270 OA
ENDBRANCH   1  13
BRANCH   4  15
ATOM     15  N   LIG    1      -19.405  84.769  12.831  0.00  0.00    -0.308 N 
ATOM     16  C   LIG    1      -19.976  85.957  12.168  0.00  0.00    +0.108 C 
ATOM     17  C   LIG    1      -18.737  86.729  11.678  0.00  0.00    +0.029 C 
ATOM     18  C   LIG    1      -17.659  86.366  12.685  0.00  0.00    +0.021 C 
ATOM     19  C   LIG    1      -17.959  84.906  12.983  0.00  0.00    +0.107 C 
BRANCH  16  20
ATOM     20  C   LIG    1      -20.852  86.780  13.090  0.00  0.00    +0.011 A 
ATOM     21  C   LIG    1      -21.795  87.654  12.530  0.00  0.00    +0.129 A 
ATOM     22  F   LIG    1      -21.902  87.751  11.197  0.00  0.00    -0.205 F 
ATOM     23  C   LIG    1      -22.642  88.432  13.321  0.00  0.00    +0.041 A 
ATOM     24  C   LIG    1      -22.551  88.353  14.708  0.00  0.00    +0.041 A 
ATOM     25  C   LIG    1      -21.614  87.501  15.279  0.00  0.00    +0.124 A 
ATOM     26  F   LIG    1      -21.525  87.423  16.614  0.00  0.00    -0.205 F 
ATOM     27  C   LIG    1      -20.768  86.723  14.490  0.00  0.00    +0.046 A 
ENDBRANCH  16  20
ENDBRANCH   4  15
TORSDOF 3
ENDMDL
