MODEL 1
REMARK VINA RESULT:      -6.3      0.000      0.000
REMARK  Name = pdb/CHEMBL3671148.pdb
REMARK                            x       y       z     vdW  Elec       q    Type
REMARK                         _______ _______ _______ _____ _____    ______ ____
ROOT
ATOM      1  C   LIG    1      -22.748  85.549  12.355  0.00  0.00    +0.126 A 
ATOM      2  N   LIG    1      -23.260  84.493  12.957  0.00  0.00    -0.212 NA
ATOM      3  C   LIG    1      -23.921  83.560  12.192  0.00  0.00    +0.170 A 
ATOM      4  C   LIG    1      -24.503  82.340  12.505  0.00  0.00    +0.100 A 
ATOM      5  C   LIG    1      -25.039  81.884  11.284  0.00  0.00    +0.150 A 
ATOM      6  N   LIG    1      -24.811  82.714  10.266  0.00  0.00    -0.173 NA
ATOM      7  N   LIG    1      -24.104  83.727  10.819  0.00  0.00    -0.221 N 
ATOM      8  C   LIG    1      -23.575  84.829  10.174  0.00  0.00    +0.118 A 
ATOM      9  C   LIG    1      -22.886  85.746  10.861  0.00  0.00    +0.063 A 
ENDROOT
BRANCH   1  11
ATOM     10  C   LIG    1      -21.024  86.207  14.091  0.00  0.00    +0.108 C 
ATOM     11  N   LIG    1      -22.086  86.507  13.111  0.00  0.00    -0.308 N 
ATOM     12  C   LIG    1      -22.613  87.846  13.350  0.00  0.00    +0.107 C 
ATOM     13  C   LIG    1      -22.439  88.035  14.845  0.00  0.00    +0.021 C 
ATOM     14  C   LIG    1      -21.124  87.331  15.143  0.00  0.00    +0.029 C 
BRANCH  10  18
ATOM     15  F   LIG    1      -17.277  88.442  11.845  0.00  0.00    -0.205 F 
ATOM     16  C   LIG    1      -17.798  87.322  12.361  0.00  0.00    +0.124 A 
ATOM     17  C   LIG    1      -19.093  87.344  12.866  0.00  0.00    +0.046 A 
ATOM     18  C   LIG    1      -19.650  86.197  13.456  0.00  0.00    +0.011 A 
ATOM     19  C   LIG    1      -18.863  85.039  13.502  0.00  0.00    +0.129 A 
ATOM     20  F   LIG    1      -19.347  83.929  14.078  0.00  0.00    -0.205 F 
ATOM     21  C   LIG    1      -17.573  85.011  12.970  0.00  0.00    +0.041 A 
ATOM     22  C   LIG    1      -17.033  86.163  12.401  0.00  0.00    +0.041 A 
ENDBRANCH  10  18
ENDBRANCH   1  11
BRANCH   4  23
ATOM     23  C   LIG    1      -24.558  81.651  13.781  0.00  0.00    +0.249 C 
ATOM     24  N   LIG    1      -23.443  81.841  14.568  0.00  0.00    -0.308 N 
ATOM     25  H   LIG    1      -22.788  82.553  14.245  0.00  0.00    +0.149 HD
ATOM     26  O   LIG    1      -25.500  80.943  14.094  0.00  0.00    -0.270 OA
BRANCH  24  27
ATOM     27  C   LIG    1      -23.249  81.223  15.874  0.00  0.00    +0.078 C 
ATOM     28  C   LIG    1      -22.171  81.976  16.663  0.00  0.00    +0.050 C 
ATOM     29  C   LIG    1      -20.773  81.680  16.125  0.00  0.00    +0.161 C 
ATOM     30  O   LIG    1      -20.521  80.277  16.067  0.00  0.00    -0.380 OA
ATOM     31  C   LIG    1      -21.450  79.601  15.220  0.00  0.00    +0.161 C 
ATOM     32  C   LIG    1      -22.857  79.743  15.781  0.00  0.00    +0.050 C 
ENDBRANCH  24  27
ENDBRANCH   4  23
TORSDOF 4
ENDMDL
MODEL 2
REMARK VINA RESULT:      -6.0     19.061     21.768
REMARK  Name = pdb/CHEMBL3671148.pdb
REMARK                            x       y       z     vdW  Elec       q    Type
REMARK                         _______ _______ _______ _____ _____    ______ ____
ROOT
ATOM      1  C   LIG    1      -24.248  76.832  33.584  0.00  0.00    +0.126 A 
ATOM      2  N   LIG    1      -23.328  77.737  33.856  0.00  0.00    -0.212 NA
ATOM      3  C   LIG    1      -23.688  78.830  34.608  0.00  0.00    +0.170 A 
ATOM      4  C   LIG    1      -22.960  79.902  35.107  0.00  0.00    +0.100 A 
ATOM      5  C   LIG    1      -23.915  80.695  35.773  0.00  0.00    +0.150 A 
ATOM      6  N   LIG    1      -25.144  80.183  35.734  0.00  0.00    -0.173 NA
ATOM      7  N   LIG    1      -24.999  79.028  35.043  0.00  0.00    -0.221 N 
ATOM      8  C   LIG    1      -25.974  78.090  34.765  0.00  0.00    +0.118 A 
ATOM      9  C   LIG    1      -25.671  76.987  34.073  0.00  0.00    +0.063 A 
ENDROOT
BRANCH   1  11
ATOM     10  C   LIG    1      -23.704  75.757  31.355  0.00  0.00    +0.108 C 
ATOM     11  N   LIG    1      -23.906  75.725  32.817  0.00  0.00    -0.308 N 
ATOM     12  C   LIG    1      -24.109  74.349  33.258  0.00  0.00    +0.107 C 
ATOM     13  C   LIG    1      -24.766  73.686  32.062  0.00  0.00    +0.021 C 
ATOM     14  C   LIG    1      -24.084  74.342  30.871  0.00  0.00    +0.029 C 
BRANCH  10  18
ATOM     15  F   LIG    1      -18.915  74.685  31.273  0.00  0.00    -0.205 F 
ATOM     16  C   LIG    1      -19.907  75.521  30.939  0.00  0.00    +0.124 A 
ATOM     17  C   LIG    1      -21.202  75.241  31.361  0.00  0.00    +0.046 A 
ATOM     18  C   LIG    1      -22.270  76.074  30.987  0.00  0.00    +0.011 A 
ATOM     19  C   LIG    1      -21.980  77.193  30.195  0.00  0.00    +0.129 A 
ATOM     20  F   LIG    1      -22.973  78.000  29.796  0.00  0.00    -0.205 F 
ATOM     21  C   LIG    1      -20.675  77.487  29.796  0.00  0.00    +0.041 A 
ATOM     22  C   LIG    1      -19.631  76.640  30.165  0.00  0.00    +0.041 A 
ENDBRANCH  10  18
ENDBRANCH   1  11
BRANCH   4  23
ATOM     23  C   LIG    1      -21.539  80.173  34.999  0.00  0.00    +0.249 C 
ATOM     24  N   LIG    1      -20.780  79.067  34.676  0.00  0.00    -0.308 N 
ATOM     25  H   LIG    1      -21.304  78.236  34.399  0.00  0.00    +0.149 HD
ATOM     26  O   LIG    1      -21.072  81.278  35.214  0.00  0.00    -0.270 OA
BRANCH  24  27
ATOM     27  C   LIG    1      -19.328  79.080  34.548  0.00  0.00    +0.078 C 
ATOM     28  C   LIG    1      -18.866  77.943  33.630  0.00  0.00    +0.050 C 
ATOM     29  C   LIG    1      -18.964  76.586  34.324  0.00  0.00    +0.161 C 
ATOM     30  O   LIG    1      -18.276  76.587  35.574  0.00  0.00    -0.380 OA
ATOM     31  C   LIG    1      -18.804  77.562  36.475  0.00  0.00    +0.161 C 
ATOM     32  C   LIG    1      -18.610  78.955  35.898  0.00  0.00    +0.050 C 
ENDBRANCH  24  27
ENDBRANCH   4  23
TORSDOF 4
ENDMDL
MODEL 3
REMARK VINA RESULT:      -6.0     19.098     21.783
REMARK  Name = pdb/CHEMBL3671148.pdb
REMARK                            x       y       z     vdW  Elec       q    Type
REMARK                         _______ _______ _______ _____ _____    ______ ____
ROOT
ATOM      1  C   LIG    1      -21.053  79.043  33.953  0.00  0.00    +0.126 A 
ATOM      2  N   LIG    1      -21.486  78.449  32.858  0.00  0.00    -0.212 NA
ATOM      3  C   LIG    1      -20.560  77.909  31.997  0.00  0.00    +0.170 A 
ATOM      4  C   LIG    1      -20.690  77.181  30.821  0.00  0.00    +0.100 A 
ATOM      5  C   LIG    1      -19.364  76.947  30.406  0.00  0.00    +0.150 A 
ATOM      6  N   LIG    1      -18.455  77.452  31.238  0.00  0.00    -0.173 NA
ATOM      7  N   LIG    1      -19.188  78.018  32.225  0.00  0.00    -0.221 N 
ATOM      8  C   LIG    1      -18.718  78.640  33.366  0.00  0.00    +0.118 A 
ATOM      9  C   LIG    1      -19.575  79.145  34.259  0.00  0.00    +0.063 A 
ENDROOT
BRANCH   1  11
ATOM     10  C   LIG    1      -21.946  79.416  36.294  0.00  0.00    +0.108 C 
ATOM     11  N   LIG    1      -21.972  79.604  34.830  0.00  0.00    -0.308 N 
ATOM     12  C   LIG    1      -23.286  80.086  34.418  0.00  0.00    +0.107 C 
ATOM     13  C   LIG    1      -24.224  79.483  35.446  0.00  0.00    +0.021 C 
ATOM     14  C   LIG    1      -23.420  79.533  36.736  0.00  0.00    +0.029 C 
BRANCH  10  18
ATOM     15  F   LIG    1      -20.454  84.049  36.925  0.00  0.00    -0.205 F 
ATOM     16  C   LIG    1      -20.388  82.765  37.298  0.00  0.00    +0.124 A 
ATOM     17  C   LIG    1      -21.115  81.814  36.590  0.00  0.00    +0.046 A 
ATOM     18  C   LIG    1      -21.102  80.466  36.987  0.00  0.00    +0.011 A 
ATOM     19  C   LIG    1      -20.326  80.119  38.100  0.00  0.00    +0.129 A 
ATOM     20  F   LIG    1      -20.305  78.848  38.526  0.00  0.00    -0.205 F 
ATOM     21  C   LIG    1      -19.575  81.071  38.792  0.00  0.00    +0.041 A 
ATOM     22  C   LIG    1      -19.612  82.405  38.392  0.00  0.00    +0.041 A 
ENDBRANCH  10  18
ENDBRANCH   1  11
BRANCH   4  23
ATOM     23  C   LIG    1      -21.896  76.734  30.150  0.00  0.00    +0.249 C 
ATOM     24  N   LIG    1      -22.974  76.558  30.992  0.00  0.00    -0.308 N 
ATOM     25  H   LIG    1      -22.853  76.904  31.944  0.00  0.00    +0.149 HD
ATOM     26  O   LIG    1      -21.923  76.506  28.953  0.00  0.00    -0.270 OA
BRANCH  24  27
ATOM     27  C   LIG    1      -24.281  76.079  30.558  0.00  0.00    +0.078 C 
ATOM     28  C   LIG    1      -25.358  77.127  30.864  0.00  0.00    +0.050 C 
ATOM     29  C   LIG    1      -25.681  77.179  32.356  0.00  0.00    +0.161 C 
ATOM     30  O   LIG    1      -26.020  75.890  32.863  0.00  0.00    -0.380 OA
ATOM     31  C   LIG    1      -24.956  74.952  32.695  0.00  0.00    +0.161 C 
ATOM     32  C   LIG    1      -24.676  74.750  31.214  0.00  0.00    +0.050 C 
ENDBRANCH  24  27
ENDBRANCH   4  23
TORSDOF 4
ENDMDL
MODEL 4
REMARK VINA RESULT:      -5.9     18.786     21.574
REMARK  Name = pdb/CHEMBL3671148.pdb
REMARK                            x       y       z     vdW  Elec       q    Type
REMARK                         _______ _______ _______ _____ _____    ______ ____
ROOT
ATOM      1  C   LIG    1      -23.400  79.524  35.039  0.00  0.00    +0.126 A 
ATOM      2  N   LIG    1      -23.499  78.869  33.898  0.00  0.00    -0.212 NA
ATOM      3  C   LIG    1      -24.689  78.247  33.602  0.00  0.00    +0.170 A 
ATOM      4  C   LIG    1      -25.124  77.548  32.484  0.00  0.00    +0.100 A 
ATOM      5  C   LIG    1      -26.431  77.139  32.814  0.00  0.00    +0.150 A 
ATOM      6  N   LIG    1      -26.823  77.549  34.020  0.00  0.00    -0.173 NA
ATOM      7  N   LIG    1      -25.764  78.249  34.490  0.00  0.00    -0.221 N 
ATOM      8  C   LIG    1      -25.676  78.929  35.690  0.00  0.00    +0.118 A 
ATOM      9  C   LIG    1      -24.558  79.587  36.011  0.00  0.00    +0.063 A 
ENDROOT
BRANCH   1  11
ATOM     10  C   LIG    1      -21.217  79.616  36.321  0.00  0.00    +0.108 C 
ATOM     11  N   LIG    1      -22.203  80.150  35.362  0.00  0.00    -0.308 N 
ATOM     12  C   LIG    1      -21.953  81.569  35.136  0.00  0.00    +0.107 C 
ATOM     13  C   LIG    1      -21.361  82.039  36.451  0.00  0.00    +0.021 C 
ATOM     14  C   LIG    1      -20.515  80.860  36.904  0.00  0.00    +0.029 C 
BRANCH  10  18
ATOM     15  F   LIG    1      -16.875  78.789  34.187  0.00  0.00    -0.205 F 
ATOM     16  C   LIG    1      -18.050  78.309  34.615  0.00  0.00    +0.124 A 
ATOM     17  C   LIG    1      -18.987  79.185  35.152  0.00  0.00    +0.046 A 
ATOM     18  C   LIG    1      -20.209  78.705  35.652  0.00  0.00    +0.011 A 
ATOM     19  C   LIG    1      -20.450  77.327  35.575  0.00  0.00    +0.129 A 
ATOM     20  F   LIG    1      -21.593  76.824  36.062  0.00  0.00    -0.205 F 
ATOM     21  C   LIG    1      -19.520  76.453  35.010  0.00  0.00    +0.041 A 
ATOM     22  C   LIG    1      -18.308  76.947  34.532  0.00  0.00    +0.041 A 
ENDBRANCH  10  18
ENDBRANCH   1  11
BRANCH   4  23
ATOM     23  C   LIG    1      -24.427  77.286  31.238  0.00  0.00    +0.249 C 
ATOM     24  N   LIG    1      -23.055  77.377  31.334  0.00  0.00    -0.308 N 
ATOM     25  H   LIG    1      -22.681  77.459  32.280  0.00  0.00    +0.149 HD
ATOM     26  O   LIG    1      -25.022  77.046  30.202  0.00  0.00    -0.270 OA
BRANCH  24  27
ATOM     27  C   LIG    1      -22.142  77.194  30.212  0.00  0.00    +0.078 C 
ATOM     28  C   LIG    1      -21.656  75.741  30.154  0.00  0.00    +0.050 C 
ATOM     29  C   LIG    1      -20.636  75.448  31.253  0.00  0.00    +0.161 C 
ATOM     30  O   LIG    1      -19.558  76.381  31.229  0.00  0.00    -0.380 OA
ATOM     31  C   LIG    1      -20.008  77.723  31.419  0.00  0.00    +0.161 C 
ATOM     32  C   LIG    1      -20.926  78.126  30.276  0.00  0.00    +0.050 C 
ENDBRANCH  24  27
ENDBRANCH   4  23
TORSDOF 4
ENDMDL
MODEL 5
REMARK VINA RESULT:      -5.9     22.612     24.243
REMARK  Name = pdb/CHEMBL3671148.pdb
REMARK                            x       y       z     vdW  Elec       q    Type
REMARK                         _______ _______ _______ _____ _____    ______ ____
ROOT
ATOM      1  C   LIG    1      -39.692  70.128  23.504  0.00  0.00    +0.126 A 
ATOM      2  N   LIG    1      -38.496  69.572  23.545  0.00  0.00    -0.212 NA
ATOM      3  C   LIG    1      -38.045  68.908  22.429  0.00  0.00    +0.170 A 
ATOM      4  C   LIG    1      -36.839  68.285  22.137  0.00  0.00    +0.100 A 
ATOM      5  C   LIG    1      -37.016  67.770  20.837  0.00  0.00    +0.150 A 
ATOM      6  N   LIG    1      -38.212  68.047  20.320  0.00  0.00    -0.173 NA
ATOM      7  N   LIG    1      -38.831  68.766  21.285  0.00  0.00    -0.221 N 
ATOM      8  C   LIG    1      -40.087  69.340  21.227  0.00  0.00    +0.118 A 
ATOM      9  C   LIG    1      -40.559  70.034  22.267  0.00  0.00    +0.063 A 
ENDROOT
BRANCH   1  11
ATOM     10  C   LIG    1      -39.330  71.585  25.544  0.00  0.00    +0.108 C 
ATOM     11  N   LIG    1      -40.171  70.794  24.624  0.00  0.00    -0.308 N 
ATOM     12  C   LIG    1      -41.440  70.474  25.268  0.00  0.00    +0.107 C 
ATOM     13  C   LIG    1      -41.082  70.397  26.740  0.00  0.00    +0.021 C 
ATOM     14  C   LIG    1      -40.038  71.490  26.911  0.00  0.00    +0.029 C 
BRANCH  10  18
ATOM     15  F   LIG    1      -41.100  75.595  23.336  0.00  0.00    -0.205 F 
ATOM     16  C   LIG    1      -40.114  75.011  24.027  0.00  0.00    +0.124 A 
ATOM     17  C   LIG    1      -40.213  73.660  24.344  0.00  0.00    +0.046 A 
ATOM     18  C   LIG    1      -39.216  73.031  25.108  0.00  0.00    +0.011 A 
ATOM     19  C   LIG    1      -38.123  73.804  25.521  0.00  0.00    +0.129 A 
ATOM     20  F   LIG    1      -37.162  73.249  26.271  0.00  0.00    -0.205 F 
ATOM     21  C   LIG    1      -38.012  75.153  25.178  0.00  0.00    +0.041 A 
ATOM     22  C   LIG    1      -39.018  75.763  24.431  0.00  0.00    +0.041 A 
ENDBRANCH  10  18
ENDBRANCH   1  11
BRANCH   4  23
ATOM     23  C   LIG    1      -35.643  68.178  22.951  0.00  0.00    +0.249 C 
ATOM     24  N   LIG    1      -35.755  68.768  24.192  0.00  0.00    -0.308 N 
ATOM     25  H   LIG    1      -36.694  69.067  24.457  0.00  0.00    +0.149 HD
ATOM     26  O   LIG    1      -34.626  67.643  22.541  0.00  0.00    -0.270 OA
BRANCH  24  27
ATOM     27  C   LIG    1      -34.677  68.823  25.172  0.00  0.00    +0.078 C 
ATOM     28  C   LIG    1      -34.752  67.614  26.113  0.00  0.00    +0.050 C 
ATOM     29  C   LIG    1      -35.898  67.752  27.112  0.00  0.00    +0.161 C 
ATOM     30  O   LIG    1      -35.828  68.987  27.822  0.00  0.00    -0.380 OA
ATOM     31  C   LIG    1      -35.896  70.113  26.946  0.00  0.00    +0.161 C 
ATOM     32  C   LIG    1      -34.698  70.108  26.009  0.00  0.00    +0.050 C 
ENDBRANCH  24  27
ENDBRANCH   4  23
TORSDOF 4
ENDMDL
MODEL 6
REMARK VINA RESULT:      -5.8      3.029      5.933
REMARK  Name = pdb/CHEMBL3671148.pdb
REMARK                            x       y       z     vdW  Elec       q    Type
REMARK                         _______ _______ _______ _____ _____    ______ ____
ROOT
ATOM      1  C   LIG    1      -21.880  83.304  11.548  0.00  0.00    +0.126 A 
ATOM      2  N   LIG    1      -22.251  84.567  11.638  0.00  0.00    -0.212 NA
ATOM      3  C   LIG    1      -23.362  84.973  10.936  0.00  0.00    +0.170 A 
ATOM      4  C   LIG    1      -24.031  86.188  10.870  0.00  0.00    +0.100 A 
ATOM      5  C   LIG    1      -25.075  85.962   9.952  0.00  0.00    +0.150 A 
ATOM      6  N   LIG    1      -25.101  84.716   9.479  0.00  0.00    -0.173 NA
ATOM      7  N   LIG    1      -24.067  84.105  10.103  0.00  0.00    -0.221 N 
ATOM      8  C   LIG    1      -23.690  82.780   9.997  0.00  0.00    +0.118 A 
ATOM      9  C   LIG    1      -22.643  82.320  10.689  0.00  0.00    +0.063 A 
ENDROOT
BRANCH   1  11
ATOM     10  C   LIG    1      -20.377  83.346  13.587  0.00  0.00    +0.108 C 
ATOM     11  N   LIG    1      -20.754  82.876  12.241  0.00  0.00    -0.308 N 
ATOM     12  C   LIG    1      -19.604  82.251  11.596  0.00  0.00    +0.107 C 
ATOM     13  C   LIG    1      -18.420  82.990  12.189  0.00  0.00    +0.021 C 
ATOM     14  C   LIG    1      -18.839  83.237  13.630  0.00  0.00    +0.029 C 
BRANCH  10  18
ATOM     15  F   LIG    1      -20.284  79.566  16.717  0.00  0.00    -0.205 F 
ATOM     16  C   LIG    1      -20.927  80.637  16.234  0.00  0.00    +0.124 A 
ATOM     17  C   LIG    1      -20.369  81.346  15.177  0.00  0.00    +0.046 A 
ATOM     18  C   LIG    1      -20.997  82.500  14.680  0.00  0.00    +0.011 A 
ATOM     19  C   LIG    1      -22.203  82.895  15.274  0.00  0.00    +0.129 A 
ATOM     20  F   LIG    1      -22.824  84.003  14.846  0.00  0.00    -0.205 F 
ATOM     21  C   LIG    1      -22.777  82.165  16.316  0.00  0.00    +0.041 A 
ATOM     22  C   LIG    1      -22.131  81.031  16.805  0.00  0.00    +0.041 A 
ENDBRANCH  10  18
ENDBRANCH   1  11
BRANCH   4  23
ATOM     23  C   LIG    1      -23.757  87.424  11.578  0.00  0.00    +0.249 C 
ATOM     24  N   LIG    1      -22.777  87.314  12.540  0.00  0.00    -0.308 N 
ATOM     25  H   LIG    1      -22.253  86.438  12.541  0.00  0.00    +0.149 HD
ATOM     26  O   LIG    1      -24.376  88.450  11.352  0.00  0.00    -0.270 OA
BRANCH  24  27
ATOM     27  C   LIG    1      -22.353  88.407  13.406  0.00  0.00    +0.078 C 
ATOM     28  C   LIG    1      -20.976  88.924  12.974  0.00  0.00    +0.050 C 
ATOM     29  C   LIG    1      -19.864  87.954  13.369  0.00  0.00    +0.161 C 
ATOM     30  O   LIG    1      -19.913  87.640  14.759  0.00  0.00    -0.380 OA
ATOM     31  C   LIG    1      -21.153  87.033  15.128  0.00  0.00    +0.161 C 
ATOM     32  C   LIG    1      -22.295  88.008  14.886  0.00  0.00    +0.050 C 
ENDBRANCH  24  27
ENDBRANCH   4  23
TORSDOF 4
ENDMDL
MODEL 7
REMARK VINA RESULT:      -5.8     19.997     22.851
REMARK  Name = pdb/CHEMBL3671148.pdb
REMARK                            x       y       z     vdW  Elec       q    Type
REMARK                         _______ _______ _______ _____ _____    ______ ____
ROOT
ATOM      1  C   LIG    1      -39.020  78.000  26.903  0.00  0.00    +0.126 A 
ATOM      2  N   LIG    1      -38.156  78.998  26.909  0.00  0.00    -0.212 NA
ATOM      3  C   LIG    1      -37.444  79.239  28.061  0.00  0.00    +0.170 A 
ATOM      4  C   LIG    1      -36.441  80.149  28.364  0.00  0.00    +0.100 A 
ATOM      5  C   LIG    1      -36.148  79.908  29.721  0.00  0.00    +0.150 A 
ATOM      6  N   LIG    1      -36.872  78.922  30.249  0.00  0.00    -0.173 NA
ATOM      7  N   LIG    1      -37.647  78.496  29.224  0.00  0.00    -0.221 N 
ATOM      8  C   LIG    1      -38.549  77.450  29.234  0.00  0.00    +0.118 A 
ATOM      9  C   LIG    1      -39.238  77.143  28.130  0.00  0.00    +0.063 A 
ENDROOT
BRANCH   1  11
ATOM     10  C   LIG    1      -39.193  77.180  24.513  0.00  0.00    +0.108 C 
ATOM     11  N   LIG    1      -39.757  77.746  25.754  0.00  0.00    -0.308 N 
ATOM     12  C   LIG    1      -41.044  78.371  25.471  0.00  0.00    +0.107 C 
ATOM     13  C   LIG    1      -40.904  78.841  24.036  0.00  0.00    +0.021 C 
ATOM     14  C   LIG    1      -40.076  77.746  23.381  0.00  0.00    +0.029 C 
BRANCH  10  18
ATOM     15  F   LIG    1      -41.291  72.910  23.306  0.00  0.00    -0.205 F 
ATOM     16  C   LIG    1      -40.277  73.563  23.888  0.00  0.00    +0.124 A 
ATOM     17  C   LIG    1      -40.307  74.952  23.946  0.00  0.00    +0.046 A 
ATOM     18  C   LIG    1      -39.235  75.666  24.508  0.00  0.00    +0.011 A 
ATOM     19  C   LIG    1      -38.156  74.932  25.016  0.00  0.00    +0.129 A 
ATOM     20  F   LIG    1      -37.103  75.576  25.540  0.00  0.00    -0.205 F 
ATOM     21  C   LIG    1      -38.141  73.537  24.983  0.00  0.00    +0.041 A 
ATOM     22  C   LIG    1      -39.207  72.847  24.408  0.00  0.00    +0.041 A 
ENDBRANCH  10  18
ENDBRANCH   1  11
BRANCH   4  23
ATOM     23  C   LIG    1      -35.805  81.131  27.506  0.00  0.00    +0.249 C 
ATOM     24  N   LIG    1      -36.660  82.108  27.042  0.00  0.00    -0.308 N 
ATOM     25  H   LIG    1      -37.586  82.125  27.470  0.00  0.00    +0.149 HD
ATOM     26  O   LIG    1      -34.626  81.060  27.204  0.00  0.00    -0.270 OA
BRANCH  24  27
ATOM     27  C   LIG    1      -36.263  83.180  26.137  0.00  0.00    +0.078 C 
ATOM     28  C   LIG    1      -36.038  84.479  26.919  0.00  0.00    +0.050 C 
ATOM     29  C   LIG    1      -37.361  85.106  27.357  0.00  0.00    +0.161 C 
ATOM     30  O   LIG    1      -38.246  85.284  26.253  0.00  0.00    -0.380 OA
ATOM     31  C   LIG    1      -38.558  84.047  25.611  0.00  0.00    +0.161 C 
ATOM     32  C   LIG    1      -37.293  83.435  25.030  0.00  0.00    +0.050 C 
ENDBRANCH  24  27
ENDBRANCH   4  23
TORSDOF 4
ENDMDL
MODEL 8
REMARK VINA RESULT:      -5.8     18.533     21.763
REMARK  Name = pdb/CHEMBL3671148.pdb
REMARK                            x       y       z     vdW  Elec       q    Type
REMARK                         _______ _______ _______ _____ _____    ______ ____
ROOT
ATOM      1  C   LIG    1      -20.907  78.022  33.467  0.00  0.00    +0.126 A 
ATOM      2  N   LIG    1      -22.095  77.821  32.931  0.00  0.00    -0.212 NA
ATOM      3  C   LIG    1      -22.168  77.561  31.582  0.00  0.00    +0.170 A 
ATOM      4  C   LIG    1      -23.234  77.251  30.748  0.00  0.00    +0.100 A 
ATOM      5  C   LIG    1      -22.653  77.127  29.470  0.00  0.00    +0.150 A 
ATOM      6  N   LIG    1      -21.334  77.315  29.471  0.00  0.00    -0.173 NA
ATOM      7  N   LIG    1      -21.036  77.555  30.769  0.00  0.00    -0.221 N 
ATOM      8  C   LIG    1      -19.784  77.765  31.315  0.00  0.00    +0.118 A 
ATOM      9  C   LIG    1      -19.649  77.981  32.628  0.00  0.00    +0.063 A 
ENDROOT
BRANCH   1  11
ATOM     10  C   LIG    1      -20.559  79.637  35.387  0.00  0.00    +0.108 C 
ATOM     11  N   LIG    1      -20.812  78.296  34.825  0.00  0.00    -0.308 N 
ATOM     12  C   LIG    1      -20.534  77.278  35.833  0.00  0.00    +0.107 C 
ATOM     13  C   LIG    1      -19.444  77.906  36.680  0.00  0.00    +0.021 C 
ATOM     14  C   LIG    1      -19.825  79.378  36.719  0.00  0.00    +0.029 C 
BRANCH  10  18
ATOM     15  F   LIG    1      -25.416  79.844  36.064  0.00  0.00    -0.205 F 
ATOM     16  C   LIG    1      -24.243  80.486  35.983  0.00  0.00    +0.124 A 
ATOM     17  C   LIG    1      -23.094  79.765  35.678  0.00  0.00    +0.046 A 
ATOM     18  C   LIG    1      -21.843  80.403  35.632  0.00  0.00    +0.011 A 
ATOM     19  C   LIG    1      -21.801  81.780  35.887  0.00  0.00    +0.129 A 
ATOM     20  F   LIG    1      -20.625  82.422  35.876  0.00  0.00    -0.205 F 
ATOM     21  C   LIG    1      -22.960  82.506  36.165  0.00  0.00    +0.041 A 
ATOM     22  C   LIG    1      -24.190  81.853  36.220  0.00  0.00    +0.041 A 
ENDBRANCH  10  18
ENDBRANCH   1  11
BRANCH   4  23
ATOM     23  C   LIG    1      -24.635  77.075  31.078  0.00  0.00    +0.249 C 
ATOM     24  N   LIG    1      -24.884  76.974  32.431  0.00  0.00    -0.308 N 
ATOM     25  H   LIG    1      -24.096  77.188  33.043  0.00  0.00    +0.149 HD
ATOM     26  O   LIG    1      -25.497  76.989  30.220  0.00  0.00    -0.270 OA
BRANCH  24  27
ATOM     27  C   LIG    1      -26.205  76.756  33.006  0.00  0.00    +0.078 C 
ATOM     28  C   LIG    1      -26.279  77.361  34.413  0.00  0.00    +0.050 C 
ATOM     29  C   LIG    1      -25.510  76.517  35.427  0.00  0.00    +0.161 C 
ATOM     30  O   LIG    1      -25.931  75.155  35.401  0.00  0.00    -0.380 OA
ATOM     31  C   LIG    1      -25.733  74.557  34.119  0.00  0.00    +0.161 C 
ATOM     32  C   LIG    1      -26.585  75.271  33.081  0.00  0.00    +0.050 C 
ENDBRANCH  24  27
ENDBRANCH   4  23
TORSDOF 4
ENDMDL
MODEL 9
REMARK VINA RESULT:      -5.8      3.297      7.187
REMARK  Name = pdb/CHEMBL3671148.pdb
REMARK                            x       y       z     vdW  Elec       q    Type
REMARK                         _______ _______ _______ _____ _____    ______ ____
ROOT
ATOM      1  C   LIG    1      -20.156  81.884  13.859  0.00  0.00    +0.126 A 
ATOM      2  N   LIG    1      -19.810  83.158  13.876  0.00  0.00    -0.212 NA
ATOM      3  C   LIG    1      -18.709  83.546  13.148  0.00  0.00    +0.170 A 
ATOM      4  C   LIG    1      -18.136  84.788  12.914  0.00  0.00    +0.100 A 
ATOM      5  C   LIG    1      -17.013  84.510  12.111  0.00  0.00    +0.150 A 
ATOM      6  N   LIG    1      -16.876  83.215  11.828  0.00  0.00    -0.173 NA
ATOM      7  N   LIG    1      -17.930  82.630  12.442  0.00  0.00    -0.221 N 
ATOM      8  C   LIG    1      -18.278  81.293  12.416  0.00  0.00    +0.118 A 
ATOM      9  C   LIG    1      -19.363  80.866  13.070  0.00  0.00    +0.063 A 
ENDROOT
BRANCH   1  11
ATOM     10  C   LIG    1      -22.447  82.305  14.855  0.00  0.00    +0.108 C 
ATOM     11  N   LIG    1      -21.258  81.470  14.595  0.00  0.00    -0.308 N 
ATOM     12  C   LIG    1      -21.221  80.357  15.537  0.00  0.00    +0.107 C 
ATOM     13  C   LIG    1      -21.899  80.915  16.774  0.00  0.00    +0.021 C 
ATOM     14  C   LIG    1      -22.995  81.806  16.209  0.00  0.00    +0.029 C 
BRANCH  10  18
ATOM     15  F   LIG    1      -26.402  80.127  12.932  0.00  0.00    -0.205 F 
ATOM     16  C   LIG    1      -25.462  81.076  12.844  0.00  0.00    +0.124 A 
ATOM     17  C   LIG    1      -24.467  81.139  13.813  0.00  0.00    +0.046 A 
ATOM     18  C   LIG    1      -23.495  82.153  13.773  0.00  0.00    +0.011 A 
ATOM     19  C   LIG    1      -23.558  83.079  12.723  0.00  0.00    +0.129 A 
ATOM     20  F   LIG    1      -22.665  84.075  12.661  0.00  0.00    -0.205 F 
ATOM     21  C   LIG    1      -24.542  82.997  11.736  0.00  0.00    +0.041 A 
ATOM     22  C   LIG    1      -25.506  81.992  11.801  0.00  0.00    +0.041 A 
ENDBRANCH  10  18
ENDBRANCH   1  11
BRANCH   4  23
ATOM     23  C   LIG    1      -18.570  86.097  13.365  0.00  0.00    +0.249 C 
ATOM     24  N   LIG    1      -19.775  86.087  14.037  0.00  0.00    -0.308 N 
ATOM     25  H   LIG    1      -20.141  85.166  14.276  0.00  0.00    +0.149 HD
ATOM     26  O   LIG    1      -17.931  87.108  13.130  0.00  0.00    -0.270 OA
BRANCH  24  27
ATOM     27  C   LIG    1      -20.434  87.281  14.552  0.00  0.00    +0.078 C 
ATOM     28  C   LIG    1      -21.526  86.894  15.555  0.00  0.00    +0.050 C 
ATOM     29  C   LIG    1      -22.752  86.312  14.853  0.00  0.00    +0.161 C 
ATOM     30  O   LIG    1      -23.236  87.187  13.835  0.00  0.00    -0.380 OA
ATOM     31  C   LIG    1      -22.252  87.436  12.830  0.00  0.00    +0.161 C 
ATOM     32  C   LIG    1      -21.055  88.143  13.445  0.00  0.00    +0.050 C 
ENDBRANCH  24  27
ENDBRANCH   4  23
TORSDOF 4
ENDMDL
