MODEL 1
REMARK VINA RESULT:      -6.7      0.000      0.000
REMARK  Name = pdb/CHEMBL3890123.pdb
REMARK                            x       y       z     vdW  Elec       q    Type
REMARK                         _______ _______ _______ _____ _____    ______ ____
ROOT
ATOM      1  C   LIG    1      -39.738  82.355  24.734  0.00  0.00    +0.323 A 
ATOM      2  N   LIG    1      -39.464  82.516  26.037  0.00  0.00    -0.201 NA
ATOM      3  C   LIG    1      -38.626  83.534  26.358  0.00  0.00    +0.145 A 
ATOM      4  C   LIG    1      -37.948  84.337  25.444  0.00  0.00    +0.105 A 
ATOM      5  C   LIG    1      -38.309  84.037  24.145  0.00  0.00    +0.145 A 
ATOM      6  N   LIG    1      -39.191  83.080  23.754  0.00  0.00    -0.201 NA
ENDROOT
BRANCH   4   7
ATOM      7  N   LIG    1      -36.918  85.220  25.890  0.00  0.00    -0.196 NA
ATOM      8  C   LIG    1      -35.692  84.853  26.043  0.00  0.00    +0.285 C 
BRANCH   8   9
ATOM      9  N   LIG    1      -34.712  85.599  26.686  0.00  0.00    -0.267 N 
ATOM     10  H   LIG    1      -33.815  85.497  26.226  0.00  0.00    +0.157 HD
BRANCH   9  11
ATOM     11  C   LIG    1      -34.606  86.008  28.048  0.00  0.00    +0.061 A 
ATOM     12  C   LIG    1      -34.960  85.205  29.169  0.00  0.00    +0.087 A 
ATOM     13  C   LIG    1      -34.797  85.724  30.478  0.00  0.00    +0.030 A 
ATOM     14  C   LIG    1      -34.254  86.985  30.710  0.00  0.00    +0.014 A 
ATOM     15  C   LIG    1      -33.885  87.791  29.632  0.00  0.00    +0.057 A 
ATOM     16  C   LIG    1      -34.086  87.297  28.324  0.00  0.00    +0.037 A 
BRANCH  12  17
ATOM     17  N   LIG    1      -35.423  83.848  29.109  0.00  0.00    -0.238 N 
ATOM     18  N   LIG    1      -34.607  82.861  28.621  0.00  0.00    -0.162 NA
ATOM     19  C   LIG    1      -35.338  81.731  28.639  0.00  0.00    +0.166 A 
ATOM     20  C   LIG    1      -36.639  81.995  29.118  0.00  0.00    +0.054 A 
ATOM     21  C   LIG    1      -36.634  83.318  29.479  0.00  0.00    +0.115 A 
BRANCH  19  22
ATOM     22  C   LIG    1      -34.798  80.373  28.256  0.00  0.00    +0.436 C 
ATOM     23  F   LIG    1      -35.792  79.486  27.982  0.00  0.00    -0.164 F 
ATOM     24  F   LIG    1      -34.015  79.815  29.215  0.00  0.00    -0.164 F 
ATOM     25  F   LIG    1      -34.035  80.447  27.129  0.00  0.00    -0.164 F 
ENDBRANCH  19  22
ENDBRANCH  12  17
BRANCH  15  26
ATOM     26  C   LIG    1      -33.278  89.158  29.881  0.00  0.00    +0.417 C 
ATOM     27  F   LIG    1      -32.856  89.753  28.730  0.00  0.00    -0.166 F 
ATOM     28  F   LIG    1      -32.188  89.119  30.701  0.00  0.00    -0.166 F 
ATOM     29  F   LIG    1      -34.142  90.041  30.454  0.00  0.00    -0.166 F 
ENDBRANCH  15  26
ENDBRANCH   9  11
ENDBRANCH   8   9
BRANCH   8  30
ATOM     30  O   LIG    1      -35.262  83.641  25.658  0.00  0.00    -0.481 OA
ATOM     31  H   LIG    1      -34.283  83.622  25.612  0.00  0.00    +0.295 HD
ENDBRANCH   8  30
ENDBRANCH   4   7
BRANCH   1  32
ATOM     32  O   LIG    1      -40.688  81.430  24.327  0.00  0.00    -0.424 OA
BRANCH  32  36
ATOM     33  C   LIG    1      -39.699  77.321  24.389  0.00  0.00    -0.014 A 
ATOM     34  C   LIG    1      -40.651  77.903  25.249  0.00  0.00    +0.012 A 
ATOM     35  C   LIG    1      -40.974  79.267  25.189  0.00  0.00    +0.047 A 
ATOM     36  C   LIG    1      -40.341  80.099  24.272  0.00  0.00    +0.132 A 
ATOM     37  C   LIG    1      -39.373  79.559  23.431  0.00  0.00    +0.047 A 
ATOM     38  C   LIG    1      -39.094  78.187  23.461  0.00  0.00    +0.012 A 
BRANCH  33  40
ATOM     39  C   LIG    1      -38.129  75.363  24.945  0.00  0.00    +0.124 A 
ATOM     40  C   LIG    1      -39.352  75.870  24.454  0.00  0.00    +0.022 A 
ATOM     41  C   LIG    1      -40.269  74.895  24.009  0.00  0.00    +0.025 A 
ATOM     42  C   LIG    1      -39.971  73.525  24.059  0.00  0.00    +0.074 A 
ATOM     43  C   LIG    1      -38.728  73.165  24.535  0.00  0.00    +0.125 A 
ATOM     44  N   LIG    1      -37.811  74.051  24.972  0.00  0.00    -0.240 NA
BRANCH  42  45
ATOM     45  C   LIG    1      -40.949  72.482  23.619  0.00  0.00    +0.419 C 
ATOM     46  F   LIG    1      -41.731  72.036  24.640  0.00  0.00    -0.166 F 
ATOM     47  F   LIG    1      -40.337  71.377  23.110  0.00  0.00    -0.166 F 
ATOM     48  F   LIG    1      -41.806  72.909  22.652  0.00  0.00    -0.166 F 
ENDBRANCH  42  45
BRANCH  39  49
ATOM     49  N   LIG    1      -37.120  76.166  25.473  0.00  0.00    -0.343 N 
ATOM     50  H   LIG    1      -36.953  76.970  24.877  0.00  0.00    +0.144 HD
ATOM     51  H   LIG    1      -37.429  76.443  26.401  0.00  0.00    +0.144 HD
ENDBRANCH  39  49
ENDBRANCH  33  40
ENDBRANCH  32  36
ENDBRANCH   1  32
TORSDOF 12
ENDMDL
MODEL 2
REMARK VINA RESULT:      -6.7     10.587     14.593
REMARK  Name = pdb/CHEMBL3890123.pdb
REMARK                            x       y       z     vdW  Elec       q    Type
REMARK                         _______ _______ _______ _____ _____    ______ ____
ROOT
ATOM      1  C   LIG    1      -26.173  81.333  36.980  0.00  0.00    +0.323 A 
ATOM      2  N   LIG    1      -25.680  82.571  36.828  0.00  0.00    -0.201 NA
ATOM      3  C   LIG    1      -26.567  83.593  36.931  0.00  0.00    +0.145 A 
ATOM      4  C   LIG    1      -27.946  83.450  37.064  0.00  0.00    +0.105 A 
ATOM      5  C   LIG    1      -28.306  82.122  37.181  0.00  0.00    +0.145 A 
ATOM      6  N   LIG    1      -27.467  81.054  37.155  0.00  0.00    -0.201 NA
ENDROOT
BRANCH   4   7
ATOM      7  N   LIG    1      -28.801  84.586  36.930  0.00  0.00    -0.196 NA
ATOM      8  C   LIG    1      -29.088  85.123  35.794  0.00  0.00    +0.285 C 
BRANCH   8   9
ATOM      9  N   LIG    1      -29.718  86.350  35.629  0.00  0.00    -0.267 N 
ATOM     10  H   LIG    1      -30.683  86.230  35.344  0.00  0.00    +0.157 HD
BRANCH   9  11
ATOM     11  C   LIG    1      -29.181  87.626  35.286  0.00  0.00    +0.061 A 
ATOM     12  C   LIG    1      -29.517  88.362  34.115  0.00  0.00    +0.087 A 
ATOM     13  C   LIG    1      -28.922  89.629  33.892  0.00  0.00    +0.030 A 
ATOM     14  C   LIG    1      -28.047  90.205  34.810  0.00  0.00    +0.014 A 
ATOM     15  C   LIG    1      -27.708  89.515  35.974  0.00  0.00    +0.057 A 
ATOM     16  C   LIG    1      -28.265  88.232  36.180  0.00  0.00    +0.037 A 
BRANCH  12  17
ATOM     17  N   LIG    1      -30.483  87.966  33.130  0.00  0.00    -0.238 N 
ATOM     18  N   LIG    1      -30.433  86.713  32.577  0.00  0.00    -0.162 NA
ATOM     19  C   LIG    1      -31.417  86.671  31.660  0.00  0.00    +0.166 A 
ATOM     20  C   LIG    1      -32.091  87.910  31.605  0.00  0.00    +0.054 A 
ATOM     21  C   LIG    1      -31.530  88.674  32.596  0.00  0.00    +0.115 A 
BRANCH  19  22
ATOM     22  C   LIG    1      -31.772  85.438  30.863  0.00  0.00    +0.436 C 
ATOM     23  F   LIG    1      -33.093  85.129  30.959  0.00  0.00    -0.164 F 
ATOM     24  F   LIG    1      -31.074  84.334  31.239  0.00  0.00    -0.164 F 
ATOM     25  F   LIG    1      -31.520  85.620  29.536  0.00  0.00    -0.164 F 
ENDBRANCH  19  22
ENDBRANCH  12  17
BRANCH  15  26
ATOM     26  C   LIG    1      -26.770  90.146  36.984  0.00  0.00    +0.417 C 
ATOM     27  F   LIG    1      -27.403  91.050  37.784  0.00  0.00    -0.166 F 
ATOM     28  F   LIG    1      -25.735  90.821  36.405  0.00  0.00    -0.166 F 
ATOM     29  F   LIG    1      -26.198  89.246  37.831  0.00  0.00    -0.166 F 
ENDBRANCH  15  26
ENDBRANCH   9  11
ENDBRANCH   8   9
BRANCH   8  30
ATOM     30  O   LIG    1      -28.713  84.564  34.633  0.00  0.00    -0.481 OA
ATOM     31  H   LIG    1      -28.540  85.255  33.958  0.00  0.00    +0.295 HD
ENDBRANCH   8  30
ENDBRANCH   4   7
BRANCH   1  32
ATOM     32  O   LIG    1      -25.319  80.241  37.025  0.00  0.00    -0.424 OA
BRANCH  32  36
ATOM     33  C   LIG    1      -24.244  78.449  33.352  0.00  0.00    -0.014 A 
ATOM     34  C   LIG    1      -23.557  79.545  33.911  0.00  0.00    +0.012 A 
ATOM     35  C   LIG    1      -23.925  80.104  35.144  0.00  0.00    +0.047 A 
ATOM     36  C   LIG    1      -25.005  79.591  35.854  0.00  0.00    +0.132 A 
ATOM     37  C   LIG    1      -25.722  78.529  35.311  0.00  0.00    +0.047 A 
ATOM     38  C   LIG    1      -25.317  77.942  34.106  0.00  0.00    +0.012 A 
BRANCH  33  40
ATOM     39  C   LIG    1      -24.771  77.457  31.039  0.00  0.00    +0.124 A 
ATOM     40  C   LIG    1      -23.855  77.855  32.037  0.00  0.00    +0.022 A 
ATOM     41  C   LIG    1      -22.496  77.655  31.717  0.00  0.00    +0.025 A 
ATOM     42  C   LIG    1      -22.102  77.100  30.491  0.00  0.00    +0.074 A 
ATOM     43  C   LIG    1      -23.099  76.727  29.615  0.00  0.00    +0.125 A 
ATOM     44  N   LIG    1      -24.413  76.893  29.866  0.00  0.00    -0.240 NA
BRANCH  42  45
ATOM     45  C   LIG    1      -20.662  76.913  30.128  0.00  0.00    +0.419 C 
ATOM     46  F   LIG    1      -20.150  75.748  30.610  0.00  0.00    -0.166 F 
ATOM     47  F   LIG    1      -19.868  77.902  30.623  0.00  0.00    -0.166 F 
ATOM     48  F   LIG    1      -20.435  76.893  28.786  0.00  0.00    -0.166 F 
ENDBRANCH  42  45
BRANCH  39  49
ATOM     49  N   LIG    1      -26.150  77.621  31.151  0.00  0.00    -0.343 N 
ATOM     50  H   LIG    1      -26.628  77.200  30.361  0.00  0.00    +0.144 HD
ATOM     51  H   LIG    1      -26.421  77.185  32.029  0.00  0.00    +0.144 HD
ENDBRANCH  39  49
ENDBRANCH  33  40
ENDBRANCH  32  36
ENDBRANCH   1  32
TORSDOF 12
ENDMDL
MODEL 3
REMARK VINA RESULT:      -6.6     10.006     15.047
REMARK  Name = pdb/CHEMBL3890123.pdb
REMARK                            x       y       z     vdW  Elec       q    Type
REMARK                         _______ _______ _______ _____ _____    ______ ____
ROOT
ATOM      1  C   LIG    1      -36.177  66.791  19.614  0.00  0.00    +0.323 A 
ATOM      2  N   LIG    1      -36.494  66.274  20.811  0.00  0.00    -0.201 NA
ATOM      3  C   LIG    1      -37.434  66.939  21.528  0.00  0.00    +0.145 A 
ATOM      4  C   LIG    1      -37.999  68.162  21.174  0.00  0.00    +0.105 A 
ATOM      5  C   LIG    1      -37.558  68.581  19.935  0.00  0.00    +0.145 A 
ATOM      6  N   LIG    1      -36.673  67.934  19.133  0.00  0.00    -0.201 NA
ENDROOT
BRANCH   4   7
ATOM      7  N   LIG    1      -38.801  68.880  22.113  0.00  0.00    -0.196 NA
ATOM      8  C   LIG    1      -38.310  69.688  22.989  0.00  0.00    +0.285 C 
BRANCH   8   9
ATOM      9  N   LIG    1      -39.013  70.225  24.059  0.00  0.00    -0.267 N 
ATOM     10  H   LIG    1      -39.956  69.858  24.099  0.00  0.00    +0.157 HD
BRANCH   9  11
ATOM     11  C   LIG    1      -38.865  71.477  24.727  0.00  0.00    +0.061 A 
ATOM     12  C   LIG    1      -38.007  71.711  25.837  0.00  0.00    +0.087 A 
ATOM     13  C   LIG    1      -37.940  73.008  26.407  0.00  0.00    +0.030 A 
ATOM     14  C   LIG    1      -38.657  74.081  25.884  0.00  0.00    +0.014 A 
ATOM     15  C   LIG    1      -39.498  73.887  24.788  0.00  0.00    +0.057 A 
ATOM     16  C   LIG    1      -39.602  72.587  24.243  0.00  0.00    +0.037 A 
BRANCH  12  17
ATOM     17  N   LIG    1      -37.118  70.748  26.422  0.00  0.00    -0.238 N 
ATOM     18  N   LIG    1      -36.078  70.236  25.692  0.00  0.00    -0.162 NA
ATOM     19  C   LIG    1      -35.477  69.328  26.485  0.00  0.00    +0.166 A 
ATOM     20  C   LIG    1      -36.148  69.238  27.723  0.00  0.00    +0.054 A 
ATOM     21  C   LIG    1      -37.125  70.200  27.680  0.00  0.00    +0.115 A 
BRANCH  19  22
ATOM     22  C   LIG    1      -34.225  68.575  26.102  0.00  0.00    +0.436 C 
ATOM     23  F   LIG    1      -33.956  67.559  26.966  0.00  0.00    -0.164 F 
ATOM     24  F   LIG    1      -33.118  69.361  26.050  0.00  0.00    -0.164 F 
ATOM     25  F   LIG    1      -34.351  68.003  24.871  0.00  0.00    -0.164 F 
ENDBRANCH  19  22
ENDBRANCH  12  17
BRANCH  15  26
ATOM     26  C   LIG    1      -40.267  75.056  24.205  0.00  0.00    +0.417 C 
ATOM     27  F   LIG    1      -39.444  76.052  23.770  0.00  0.00    -0.166 F 
ATOM     28  F   LIG    1      -41.115  75.639  25.101  0.00  0.00    -0.166 F 
ATOM     29  F   LIG    1      -41.035  74.721  23.132  0.00  0.00    -0.166 F 
ENDBRANCH  15  26
ENDBRANCH   9  11
ENDBRANCH   8   9
BRANCH   8  30
ATOM     30  O   LIG    1      -37.010  70.023  22.991  0.00  0.00    -0.481 OA
ATOM     31  H   LIG    1      -36.781  70.518  22.176  0.00  0.00    +0.295 HD
ENDBRANCH   8  30
ENDBRANCH   4   7
BRANCH   1  32
ATOM     32  O   LIG    1      -35.329  66.105  18.758  0.00  0.00    -0.424 OA
BRANCH  32  36
ATOM     33  C   LIG    1      -31.216  67.053  18.540  0.00  0.00    -0.014 A 
ATOM     34  C   LIG    1      -32.151  67.422  17.552  0.00  0.00    +0.012 A 
ATOM     35  C   LIG    1      -33.514  67.111  17.664  0.00  0.00    +0.047 A 
ATOM     36  C   LIG    1      -33.987  66.406  18.766  0.00  0.00    +0.132 A 
ATOM     37  C   LIG    1      -33.081  66.001  19.742  0.00  0.00    +0.047 A 
ATOM     38  C   LIG    1      -31.731  66.360  19.650  0.00  0.00    +0.012 A 
BRANCH  33  40
ATOM     39  C   LIG    1      -28.807  66.547  17.799  0.00  0.00    +0.124 A 
ATOM     40  C   LIG    1      -29.764  67.380  18.420  0.00  0.00    +0.022 A 
ATOM     41  C   LIG    1      -29.257  68.588  18.943  0.00  0.00    +0.025 A 
ATOM     42  C   LIG    1      -27.898  68.922  18.844  0.00  0.00    +0.074 A 
ATOM     43  C   LIG    1      -27.064  68.006  18.239  0.00  0.00    +0.125 A 
ATOM     44  N   LIG    1      -27.490  66.836  17.722  0.00  0.00    -0.240 NA
BRANCH  42  45
ATOM     45  C   LIG    1      -27.356  70.214  19.367  0.00  0.00    +0.419 C 
ATOM     46  F   LIG    1      -27.010  70.142  20.681  0.00  0.00    -0.166 F 
ATOM     47  F   LIG    1      -28.257  71.231  19.275  0.00  0.00    -0.166 F 
ATOM     48  F   LIG    1      -26.243  70.645  18.712  0.00  0.00    -0.166 F 
ENDBRANCH  42  45
BRANCH  39  49
ATOM     49  N   LIG    1      -29.123  65.339  17.182  0.00  0.00    -0.343 N 
ATOM     50  H   LIG    1      -28.622  64.571  17.617  0.00  0.00    +0.144 HD
ATOM     51  H   LIG    1      -30.130  65.227  17.269  0.00  0.00    +0.144 HD
ENDBRANCH  39  49
ENDBRANCH  33  40
ENDBRANCH  32  36
ENDBRANCH   1  32
TORSDOF 12
ENDMDL
MODEL 4
REMARK VINA RESULT:      -6.6     11.821     14.881
REMARK  Name = pdb/CHEMBL3890123.pdb
REMARK                            x       y       z     vdW  Elec       q    Type
REMARK                         _______ _______ _______ _____ _____    ______ ____
ROOT
ATOM      1  C   LIG    1      -27.549  73.880  32.923  0.00  0.00    +0.323 A 
ATOM      2  N   LIG    1      -27.500  74.365  34.173  0.00  0.00    -0.201 NA
ATOM      3  C   LIG    1      -26.471  75.203  34.457  0.00  0.00    +0.145 A 
ATOM      4  C   LIG    1      -25.415  75.500  33.599  0.00  0.00    +0.105 A 
ATOM      5  C   LIG    1      -25.589  74.909  32.363  0.00  0.00    +0.145 A 
ATOM      6  N   LIG    1      -26.626  74.116  31.987  0.00  0.00    -0.201 NA
ENDROOT
BRANCH   4   7
ATOM      7  N   LIG    1      -24.273  76.207  34.084  0.00  0.00    -0.196 NA
ATOM      8  C   LIG    1      -24.131  77.482  33.968  0.00  0.00    +0.285 C 
BRANCH   8   9
ATOM      9  N   LIG    1      -22.954  78.178  34.212  0.00  0.00    -0.267 N 
ATOM     10  H   LIG    1      -23.125  78.995  34.788  0.00  0.00    +0.157 HD
BRANCH   9  11
ATOM     11  C   LIG    1      -21.757  78.270  33.442  0.00  0.00    +0.061 A 
ATOM     12  C   LIG    1      -20.623  79.057  33.790  0.00  0.00    +0.087 A 
ATOM     13  C   LIG    1      -19.486  79.055  32.944  0.00  0.00    +0.030 A 
ATOM     14  C   LIG    1      -19.421  78.266  31.797  0.00  0.00    +0.014 A 
ATOM     15  C   LIG    1      -20.511  77.474  31.436  0.00  0.00    +0.057 A 
ATOM     16  C   LIG    1      -21.664  77.506  32.252  0.00  0.00    +0.037 A 
BRANCH  12  17
ATOM     17  N   LIG    1      -20.483  79.832  34.989  0.00  0.00    -0.238 N 
ATOM     18  N   LIG    1      -21.318  80.891  35.229  0.00  0.00    -0.162 NA
ATOM     19  C   LIG    1      -20.900  81.442  36.385  0.00  0.00    +0.166 A 
ATOM     20  C   LIG    1      -19.775  80.747  36.880  0.00  0.00    +0.054 A 
ATOM     21  C   LIG    1      -19.589  79.695  36.021  0.00  0.00    +0.115 A 
BRANCH  19  22
ATOM     22  C   LIG    1      -21.594  82.597  37.066  0.00  0.00    +0.436 C 
ATOM     23  F   LIG    1      -21.864  82.333  38.372  0.00  0.00    -0.164 F 
ATOM     24  F   LIG    1      -22.768  82.944  36.476  0.00  0.00    -0.164 F 
ATOM     25  F   LIG    1      -20.814  83.714  37.058  0.00  0.00    -0.164 F 
ENDBRANCH  19  22
ENDBRANCH  12  17
BRANCH  15  26
ATOM     26  C   LIG    1      -20.437  76.602  30.198  0.00  0.00    +0.417 C 
ATOM     27  F   LIG    1      -20.512  75.274  30.496  0.00  0.00    -0.166 F 
ATOM     28  F   LIG    1      -19.277  76.761  29.498  0.00  0.00    -0.166 F 
ATOM     29  F   LIG    1      -21.441  76.835  29.308  0.00  0.00    -0.166 F 
ENDBRANCH  15  26
ENDBRANCH   9  11
ENDBRANCH   8   9
BRANCH   8  30
ATOM     30  O   LIG    1      -25.117  78.264  33.502  0.00  0.00    -0.481 OA
ATOM     31  H   LIG    1      -25.139  78.245  32.522  0.00  0.00    +0.295 HD
ENDBRANCH   8  30
ENDBRANCH   4   7
BRANCH   1  32
ATOM     32  O   LIG    1      -28.637  73.127  32.507  0.00  0.00    -0.424 OA
BRANCH  32  36
ATOM     33  C   LIG    1      -31.398  74.996  29.911  0.00  0.00    -0.014 A 
ATOM     34  C   LIG    1      -30.672  75.689  30.901  0.00  0.00    +0.012 A 
ATOM     35  C   LIG    1      -29.746  75.043  31.733  0.00  0.00    +0.047 A 
ATOM     36  C   LIG    1      -29.525  73.676  31.611  0.00  0.00    +0.132 A 
ATOM     37  C   LIG    1      -30.251  72.960  30.663  0.00  0.00    +0.047 A 
ATOM     38  C   LIG    1      -31.135  73.619  29.801  0.00  0.00    +0.012 A 
BRANCH  33  40
ATOM     39  C   LIG    1      -33.691  75.205  28.767  0.00  0.00    +0.124 A 
ATOM     40  C   LIG    1      -32.387  75.682  29.026  0.00  0.00    +0.022 A 
ATOM     41  C   LIG    1      -32.052  76.891  28.381  0.00  0.00    +0.025 A 
ATOM     42  C   LIG    1      -32.961  77.557  27.546  0.00  0.00    +0.074 A 
ATOM     43  C   LIG    1      -34.193  76.968  27.353  0.00  0.00    +0.125 A 
ATOM     44  N   LIG    1      -34.569  75.815  27.942  0.00  0.00    -0.240 NA
BRANCH  42  45
ATOM     45  C   LIG    1      -32.627  78.856  26.882  0.00  0.00    +0.419 C 
ATOM     46  F   LIG    1      -31.563  79.478  27.459  0.00  0.00    -0.166 F 
ATOM     47  F   LIG    1      -33.654  79.747  26.936  0.00  0.00    -0.166 F 
ATOM     48  F   LIG    1      -32.315  78.730  25.562  0.00  0.00    -0.166 F 
ENDBRANCH  42  45
BRANCH  39  49
ATOM     49  N   LIG    1      -34.220  74.056  29.351  0.00  0.00    -0.343 N 
ATOM     50  H   LIG    1      -33.560  73.288  29.294  0.00  0.00    +0.144 HD
ATOM     51  H   LIG    1      -34.435  74.296  30.315  0.00  0.00    +0.144 HD
ENDBRANCH  39  49
ENDBRANCH  33  40
ENDBRANCH  32  36
ENDBRANCH   1  32
TORSDOF 12
ENDMDL
MODEL 5
REMARK VINA RESULT:      -6.6      9.857     14.803
REMARK  Name = pdb/CHEMBL3890123.pdb
REMARK                            x       y       z     vdW  Elec       q    Type
REMARK                         _______ _______ _______ _____ _____    ______ ____
ROOT
ATOM      1  C   LIG    1      -26.401  82.943  37.079  0.00  0.00    +0.323 A 
ATOM      2  N   LIG    1      -27.643  82.546  37.396  0.00  0.00    -0.201 NA
ATOM      3  C   LIG    1      -28.663  83.253  36.849  0.00  0.00    +0.145 A 
ATOM      4  C   LIG    1      -28.522  84.413  36.090  0.00  0.00    +0.105 A 
ATOM      5  C   LIG    1      -27.192  84.712  35.870  0.00  0.00    +0.145 A 
ATOM      6  N   LIG    1      -26.122  84.012  36.329  0.00  0.00    -0.201 NA
ENDROOT
BRANCH   4   7
ATOM      7  N   LIG    1      -29.668  85.200  35.762  0.00  0.00    -0.196 NA
ATOM      8  C   LIG    1      -30.254  85.150  34.615  0.00  0.00    +0.285 C 
BRANCH   8   9
ATOM      9  N   LIG    1      -31.216  86.049  34.173  0.00  0.00    -0.267 N 
ATOM     10  H   LIG    1      -32.068  85.969  34.715  0.00  0.00    +0.157 HD
BRANCH   9  11
ATOM     11  C   LIG    1      -31.418  86.626  32.885  0.00  0.00    +0.061 A 
ATOM     12  C   LIG    1      -30.840  87.849  32.441  0.00  0.00    +0.087 A 
ATOM     13  C   LIG    1      -31.110  88.313  31.128  0.00  0.00    +0.030 A 
ATOM     14  C   LIG    1      -31.891  87.584  30.234  0.00  0.00    +0.014 A 
ATOM     15  C   LIG    1      -32.461  86.376  30.635  0.00  0.00    +0.057 A 
ATOM     16  C   LIG    1      -32.231  85.930  31.956  0.00  0.00    +0.037 A 
BRANCH  12  17
ATOM     17  N   LIG    1      -29.924  88.659  33.192  0.00  0.00    -0.238 N 
ATOM     18  N   LIG    1      -28.964  88.072  33.974  0.00  0.00    -0.162 NA
ATOM     19  C   LIG    1      -28.315  89.080  34.587  0.00  0.00    +0.166 A 
ATOM     20  C   LIG    1      -28.876  90.322  34.216  0.00  0.00    +0.054 A 
ATOM     21  C   LIG    1      -29.831  90.025  33.279  0.00  0.00    +0.115 A 
BRANCH  19  22
ATOM     22  C   LIG    1      -27.119  88.886  35.488  0.00  0.00    +0.436 C 
ATOM     23  F   LIG    1      -26.348  87.837  35.095  0.00  0.00    -0.164 F 
ATOM     24  F   LIG    1      -27.452  88.674  36.788  0.00  0.00    -0.164 F 
ATOM     25  F   LIG    1      -26.307  89.981  35.472  0.00  0.00    -0.164 F 
ENDBRANCH  19  22
ENDBRANCH  12  17
BRANCH  15  26
ATOM     26  C   LIG    1      -33.298  85.572  29.659  0.00  0.00    +0.417 C 
ATOM     27  F   LIG    1      -34.630  85.828  29.787  0.00  0.00    -0.166 F 
ATOM     28  F   LIG    1      -33.162  84.224  29.821  0.00  0.00    -0.166 F 
ATOM     29  F   LIG    1      -33.000  85.820  28.354  0.00  0.00    -0.166 F 
ENDBRANCH  15  26
ENDBRANCH   9  11
ENDBRANCH   8   9
BRANCH   8  30
ATOM     30  O   LIG    1      -29.911  84.246  33.685  0.00  0.00    -0.481 OA
ATOM     31  H   LIG    1      -30.087  84.594  32.785  0.00  0.00    +0.295 HD
ENDBRANCH   8  30
ENDBRANCH   4   7
BRANCH   1  32
ATOM     32  O   LIG    1      -25.304  82.198  37.483  0.00  0.00    -0.424 OA
BRANCH  32  36
ATOM     33  C   LIG    1      -23.504  79.576  34.700  0.00  0.00    -0.014 A 
ATOM     34  C   LIG    1      -22.934  80.805  35.089  0.00  0.00    +0.012 A 
ATOM     35  C   LIG    1      -23.546  81.643  36.033  0.00  0.00    +0.047 A 
ATOM     36  C   LIG    1      -24.759  81.286  36.610  0.00  0.00    +0.132 A 
ATOM     37  C   LIG    1      -25.362  80.093  36.220  0.00  0.00    +0.047 A 
ATOM     38  C   LIG    1      -24.721  79.236  35.317  0.00  0.00    +0.012 A 
BRANCH  33  40
ATOM     39  C   LIG    1      -21.556  78.147  33.821  0.00  0.00    +0.124 A 
ATOM     40  C   LIG    1      -22.856  78.684  33.692  0.00  0.00    +0.022 A 
ATOM     41  C   LIG    1      -23.540  78.320  32.514  0.00  0.00    +0.025 A 
ATOM     42  C   LIG    1      -22.956  77.484  31.551  0.00  0.00    +0.074 A 
ATOM     43  C   LIG    1      -21.668  77.051  31.786  0.00  0.00    +0.125 A 
ATOM     44  N   LIG    1      -20.965  77.366  32.891  0.00  0.00    -0.240 NA
BRANCH  42  45
ATOM     45  C   LIG    1      -23.684  77.066  30.313  0.00  0.00    +0.419 C 
ATOM     46  F   LIG    1      -24.877  77.706  30.168  0.00  0.00    -0.166 F 
ATOM     47  F   LIG    1      -23.972  75.736  30.302  0.00  0.00    -0.166 F 
ATOM     48  F   LIG    1      -22.992  77.304  29.165  0.00  0.00    -0.166 F 
ENDBRANCH  42  45
BRANCH  39  49
ATOM     49  N   LIG    1      -20.746  78.353  34.936  0.00  0.00    -0.343 N 
ATOM     50  H   LIG    1      -20.108  77.575  35.065  0.00  0.00    +0.144 HD
ATOM     51  H   LIG    1      -20.247  79.224  34.772  0.00  0.00    +0.144 HD
ENDBRANCH  39  49
ENDBRANCH  33  40
ENDBRANCH  32  36
ENDBRANCH   1  32
TORSDOF 12
ENDMDL
MODEL 6
REMARK VINA RESULT:      -6.6     17.518     21.681
REMARK  Name = pdb/CHEMBL3890123.pdb
REMARK                            x       y       z     vdW  Elec       q    Type
REMARK                         _______ _______ _______ _____ _____    ______ ____
ROOT
ATOM      1  C   LIG    1      -25.279  89.299   9.946  0.00  0.00    +0.323 A 
ATOM      2  N   LIG    1      -23.977  89.001  10.070  0.00  0.00    -0.201 NA
ATOM      3  C   LIG    1      -23.656  87.683  10.084  0.00  0.00    +0.145 A 
ATOM      4  C   LIG    1      -24.571  86.632  10.098  0.00  0.00    +0.105 A 
ATOM      5  C   LIG    1      -25.868  87.092   9.993  0.00  0.00    +0.145 A 
ATOM      6  N   LIG    1      -26.258  88.391   9.907  0.00  0.00    -0.201 NA
ENDROOT
BRANCH   4   7
ATOM      7  N   LIG    1      -24.127  85.298  10.346  0.00  0.00    -0.196 NA
ATOM      8  C   LIG    1      -24.259  84.711  11.486  0.00  0.00    +0.285 C 
BRANCH   8   9
ATOM      9  N   LIG    1      -23.646  83.517  11.843  0.00  0.00    -0.267 N 
ATOM     10  H   LIG    1      -23.750  82.820  11.114  0.00  0.00    +0.157 HD
BRANCH   9  11
ATOM     11  C   LIG    1      -23.395  82.955  13.130  0.00  0.00    +0.061 A 
ATOM     12  C   LIG    1      -22.577  83.549  14.132  0.00  0.00    +0.087 A 
ATOM     13  C   LIG    1      -22.415  82.895  15.379  0.00  0.00    +0.030 A 
ATOM     14  C   LIG    1      -23.071  81.703  15.678  0.00  0.00    +0.014 A 
ATOM     15  C   LIG    1      -23.890  81.102  14.721  0.00  0.00    +0.057 A 
ATOM     16  C   LIG    1      -24.020  81.728  13.461  0.00  0.00    +0.037 A 
BRANCH  12  17
ATOM     17  N   LIG    1      -21.926  84.824  14.028  0.00  0.00    -0.238 N 
ATOM     18  N   LIG    1      -22.651  85.981  14.147  0.00  0.00    -0.162 NA
ATOM     19  C   LIG    1      -21.780  86.988  13.946  0.00  0.00    +0.166 A 
ATOM     20  C   LIG    1      -20.493  86.477  13.673  0.00  0.00    +0.054 A 
ATOM     21  C   LIG    1      -20.604  85.118  13.811  0.00  0.00    +0.115 A 
BRANCH  19  22
ATOM     22  C   LIG    1      -22.143  88.450  14.066  0.00  0.00    +0.436 C 
ATOM     23  F   LIG    1      -23.171  88.790  13.244  0.00  0.00    -0.164 F 
ATOM     24  F   LIG    1      -21.109  89.286  13.783  0.00  0.00    -0.164 F 
ATOM     25  F   LIG    1      -22.550  88.754  15.330  0.00  0.00    -0.164 F 
ENDBRANCH  19  22
ENDBRANCH  12  17
BRANCH  15  26
ATOM     26  C   LIG    1      -24.619  79.814  15.049  0.00  0.00    +0.417 C 
ATOM     27  F   LIG    1      -24.256  79.308  16.261  0.00  0.00    -0.166 F 
ATOM     28  F   LIG    1      -24.383  78.820  14.145  0.00  0.00    -0.166 F 
ATOM     29  F   LIG    1      -25.972  79.953  15.101  0.00  0.00    -0.166 F 
ENDBRANCH  15  26
ENDBRANCH   9  11
ENDBRANCH   8   9
BRANCH   8  30
ATOM     30  O   LIG    1      -24.955  85.266  12.491  0.00  0.00    -0.481 OA
ATOM     31  H   LIG    1      -25.851  85.526  12.186  0.00  0.00    +0.295 HD
ENDBRANCH   8  30
ENDBRANCH   4   7
BRANCH   1  32
ATOM     32  O   LIG    1      -25.684  90.616   9.788  0.00  0.00    -0.424 OA
BRANCH  32  36
ATOM     33  C   LIG    1      -27.298  92.877  12.972  0.00  0.00    -0.014 A 
ATOM     34  C   LIG    1      -27.735  92.995  11.637  0.00  0.00    +0.012 A 
ATOM     35  C   LIG    1      -27.193  92.214  10.605  0.00  0.00    +0.047 A 
ATOM     36  C   LIG    1      -26.185  91.295  10.874  0.00  0.00    +0.132 A 
ATOM     37  C   LIG    1      -25.711  91.179  12.178  0.00  0.00    +0.047 A 
ATOM     38  C   LIG    1      -26.292  91.924  13.211  0.00  0.00    +0.012 A 
BRANCH  33  40
ATOM     39  C   LIG    1      -27.320  94.932  14.516  0.00  0.00    +0.124 A 
ATOM     40  C   LIG    1      -27.871  93.711  14.071  0.00  0.00    +0.022 A 
ATOM     41  C   LIG    1      -29.040  93.300  14.745  0.00  0.00    +0.025 A 
ATOM     42  C   LIG    1      -29.601  94.063  15.780  0.00  0.00    +0.074 A 
ATOM     43  C   LIG    1      -28.946  95.223  16.137  0.00  0.00    +0.125 A 
ATOM     44  N   LIG    1      -27.826  95.665  15.531  0.00  0.00    -0.240 NA
BRANCH  42  45
ATOM     45  C   LIG    1      -30.858  93.653  16.480  0.00  0.00    +0.419 C 
ATOM     46  F   LIG    1      -31.895  94.497  16.227  0.00  0.00    -0.166 F 
ATOM     47  F   LIG    1      -30.717  93.631  17.833  0.00  0.00    -0.166 F 
ATOM     48  F   LIG    1      -31.295  92.411  16.133  0.00  0.00    -0.166 F 
ENDBRANCH  42  45
BRANCH  39  49
ATOM     49  N   LIG    1      -26.197  95.524  13.942  0.00  0.00    -0.343 N 
ATOM     50  H   LIG    1      -26.277  95.541  12.930  0.00  0.00    +0.144 HD
ATOM     51  H   LIG    1      -26.136  96.462  14.329  0.00  0.00    +0.144 HD
ENDBRANCH  39  49
ENDBRANCH  33  40
ENDBRANCH  32  36
ENDBRANCH   1  32
TORSDOF 12
ENDMDL
MODEL 7
REMARK VINA RESULT:      -6.5     10.314     15.599
REMARK  Name = pdb/CHEMBL3890123.pdb
REMARK                            x       y       z     vdW  Elec       q    Type
REMARK                         _______ _______ _______ _____ _____    ______ ____
ROOT
ATOM      1  C   LIG    1      -36.775  66.983  19.650  0.00  0.00    +0.323 A 
ATOM      2  N   LIG    1      -37.554  66.255  20.464  0.00  0.00    -0.201 NA
ATOM      3  C   LIG    1      -38.434  66.942  21.235  0.00  0.00    +0.145 A 
ATOM      4  C   LIG    1      -38.506  68.330  21.331  0.00  0.00    +0.105 A 
ATOM      5  C   LIG    1      -37.628  68.941  20.458  0.00  0.00    +0.145 A 
ATOM      6  N   LIG    1      -36.769  68.318  19.610  0.00  0.00    -0.201 NA
ENDROOT
BRANCH   4   7
ATOM      7  N   LIG    1      -39.309  68.938  22.343  0.00  0.00    -0.196 NA
ATOM      8  C   LIG    1      -40.371  69.621  22.086  0.00  0.00    +0.285 C 
BRANCH   8   9
ATOM      9  N   LIG    1      -41.049  70.415  23.002  0.00  0.00    -0.267 N 
ATOM     10  H   LIG    1      -41.954  70.020  23.230  0.00  0.00    +0.157 HD
BRANCH   9  11
ATOM     11  C   LIG    1      -40.966  71.817  23.249  0.00  0.00    +0.061 A 
ATOM     12  C   LIG    1      -41.928  72.777  22.824  0.00  0.00    +0.087 A 
ATOM     13  C   LIG    1      -41.737  74.145  23.143  0.00  0.00    +0.030 A 
ATOM     14  C   LIG    1      -40.656  74.581  23.905  0.00  0.00    +0.014 A 
ATOM     15  C   LIG    1      -39.703  73.663  24.348  0.00  0.00    +0.057 A 
ATOM     16  C   LIG    1      -39.865  72.304  23.995  0.00  0.00    +0.037 A 
BRANCH  12  17
ATOM     17  N   LIG    1      -43.151  72.482  22.134  0.00  0.00    -0.238 N 
ATOM     18  N   LIG    1      -43.125  71.823  20.932  0.00  0.00    -0.162 NA
ATOM     19  C   LIG    1      -44.404  71.753  20.518  0.00  0.00    +0.166 A 
ATOM     20  C   LIG    1      -45.256  72.390  21.446  0.00  0.00    +0.054 A 
ATOM     21  C   LIG    1      -44.446  72.766  22.487  0.00  0.00    +0.115 A 
BRANCH  19  22
ATOM     22  C   LIG    1      -44.845  71.031  19.267  0.00  0.00    +0.436 C 
ATOM     23  F   LIG    1      -45.792  71.727  18.582  0.00  0.00    -0.164 F 
ATOM     24  F   LIG    1      -45.353  69.794  19.508  0.00  0.00    -0.164 F 
ATOM     25  F   LIG    1      -43.803  70.859  18.405  0.00  0.00    -0.164 F 
ENDBRANCH  19  22
ENDBRANCH  12  17
BRANCH  15  26
ATOM     26  C   LIG    1      -38.533  74.131  25.192  0.00  0.00    +0.417 C 
ATOM     27  F   LIG    1      -37.559  73.184  25.295  0.00  0.00    -0.166 F 
ATOM     28  F   LIG    1      -38.887  74.442  26.472  0.00  0.00    -0.166 F 
ATOM     29  F   LIG    1      -37.916  75.239  24.698  0.00  0.00    -0.166 F 
ENDBRANCH  15  26
ENDBRANCH   9  11
ENDBRANCH   8   9
BRANCH   8  30
ATOM     30  O   LIG    1      -40.883  69.693  20.847  0.00  0.00    -0.481 OA
ATOM     31  H   LIG    1      -41.268  68.830  20.583  0.00  0.00    +0.295 HD
ENDBRANCH   8  30
ENDBRANCH   4   7
BRANCH   1  32
ATOM     32  O   LIG    1      -35.945  66.358  18.732  0.00  0.00    -0.424 OA
BRANCH  32  36
ATOM     33  C   LIG    1      -31.830  67.286  18.485  0.00  0.00    -0.014 A 
ATOM     34  C   LIG    1      -32.747  67.548  17.448  0.00  0.00    +0.012 A 
ATOM     35  C   LIG    1      -34.112  67.248  17.570  0.00  0.00    +0.047 A 
ATOM     36  C   LIG    1      -34.603  66.661  18.731  0.00  0.00    +0.132 A 
ATOM     37  C   LIG    1      -33.714  66.362  19.759  0.00  0.00    +0.047 A 
ATOM     38  C   LIG    1      -32.363  66.712  19.653  0.00  0.00    +0.012 A 
BRANCH  33  40
ATOM     39  C   LIG    1      -29.409  66.714  17.835  0.00  0.00    +0.124 A 
ATOM     40  C   LIG    1      -30.375  67.602  18.356  0.00  0.00    +0.022 A 
ATOM     41  C   LIG    1      -29.877  68.856  18.766  0.00  0.00    +0.025 A 
ATOM     42  C   LIG    1      -28.516  69.181  18.657  0.00  0.00    +0.074 A 
ATOM     43  C   LIG    1      -27.673  68.211  18.156  0.00  0.00    +0.125 A 
ATOM     44  N   LIG    1      -28.091  66.996  17.750  0.00  0.00    -0.240 NA
BRANCH  42  45
ATOM     45  C   LIG    1      -27.983  70.519  19.059  0.00  0.00    +0.419 C 
ATOM     46  F   LIG    1      -28.410  71.519  18.241  0.00  0.00    -0.166 F 
ATOM     47  F   LIG    1      -26.623  70.568  19.027  0.00  0.00    -0.166 F 
ATOM     48  F   LIG    1      -28.337  70.892  20.320  0.00  0.00    -0.166 F 
ENDBRANCH  42  45
BRANCH  39  49
ATOM     49  N   LIG    1      -29.716  65.451  17.334  0.00  0.00    -0.343 N 
ATOM     50  H   LIG    1      -29.403  65.360  16.373  0.00  0.00    +0.144 HD
ATOM     51  H   LIG    1      -29.256  64.780  17.944  0.00  0.00    +0.144 HD
ENDBRANCH  39  49
ENDBRANCH  33  40
ENDBRANCH  32  36
ENDBRANCH   1  32
TORSDOF 12
ENDMDL
MODEL 8
REMARK VINA RESULT:      -6.5     17.306     18.552
REMARK  Name = pdb/CHEMBL3890123.pdb
REMARK                            x       y       z     vdW  Elec       q    Type
REMARK                         _______ _______ _______ _____ _____    ______ ____
ROOT
ATOM      1  C   LIG    1      -24.767  77.503  13.673  0.00  0.00    +0.323 A 
ATOM      2  N   LIG    1      -23.601  78.060  13.313  0.00  0.00    -0.201 NA
ATOM      3  C   LIG    1      -23.164  79.094  14.075  0.00  0.00    +0.145 A 
ATOM      4  C   LIG    1      -23.879  79.688  15.113  0.00  0.00    +0.105 A 
ATOM      5  C   LIG    1      -25.067  79.026  15.349  0.00  0.00    +0.145 A 
ATOM      6  N   LIG    1      -25.536  77.945  14.672  0.00  0.00    -0.201 NA
ENDROOT
BRANCH   4   7
ATOM      7  N   LIG    1      -23.422  80.912  15.690  0.00  0.00    -0.196 NA
ATOM      8  C   LIG    1      -23.678  82.069  15.183  0.00  0.00    +0.285 C 
BRANCH   8   9
ATOM      9  N   LIG    1      -23.074  83.259  15.569  0.00  0.00    -0.267 N 
ATOM     10  H   LIG    1      -23.617  83.731  16.282  0.00  0.00    +0.157 HD
BRANCH   9  11
ATOM     11  C   LIG    1      -22.210  84.134  14.846  0.00  0.00    +0.061 A 
ATOM     12  C   LIG    1      -21.011  83.735  14.190  0.00  0.00    +0.087 A 
ATOM     13  C   LIG    1      -20.242  84.700  13.492  0.00  0.00    +0.030 A 
ATOM     14  C   LIG    1      -20.648  86.029  13.386  0.00  0.00    +0.014 A 
ATOM     15  C   LIG    1      -21.824  86.448  14.007  0.00  0.00    +0.057 A 
ATOM     16  C   LIG    1      -22.572  85.499  14.740  0.00  0.00    +0.037 A 
BRANCH  12  17
ATOM     17  N   LIG    1      -20.515  82.391  14.105  0.00  0.00    -0.238 N 
ATOM     18  N   LIG    1      -20.038  81.758  15.223  0.00  0.00    -0.162 NA
ATOM     19  C   LIG    1      -19.598  80.554  14.811  0.00  0.00    +0.166 A 
ATOM     20  C   LIG    1      -19.770  80.420  13.416  0.00  0.00    +0.054 A 
ATOM     21  C   LIG    1      -20.421  81.559  13.017  0.00  0.00    +0.115 A 
BRANCH  19  22
ATOM     22  C   LIG    1      -19.060  79.492  15.740  0.00  0.00    +0.436 C 
ATOM     23  F   LIG    1      -19.867  79.299  16.817  0.00  0.00    -0.164 F 
ATOM     24  F   LIG    1      -17.818  79.771  16.215  0.00  0.00    -0.164 F 
ATOM     25  F   LIG    1      -18.971  78.287  15.111  0.00  0.00    -0.164 F 
ENDBRANCH  19  22
ENDBRANCH  12  17
BRANCH  15  26
ATOM     26  C   LIG    1      -22.277  87.890  13.879  0.00  0.00    +0.417 C 
ATOM     27  F   LIG    1      -21.244  88.733  13.598  0.00  0.00    -0.166 F 
ATOM     28  F   LIG    1      -22.853  88.373  15.017  0.00  0.00    -0.166 F 
ATOM     29  F   LIG    1      -23.191  88.087  12.889  0.00  0.00    -0.166 F 
ENDBRANCH  15  26
ENDBRANCH   9  11
ENDBRANCH   8   9
BRANCH   8  30
ATOM     30  O   LIG    1      -24.517  82.217  14.145  0.00  0.00    -0.481 OA
ATOM     31  H   LIG    1      -25.153  82.943  14.318  0.00  0.00    +0.295 HD
ENDBRANCH   8  30
ENDBRANCH   4   7
BRANCH   1  32
ATOM     32  O   LIG    1      -25.222  76.358  13.036  0.00  0.00    -0.424 OA
BRANCH  32  36
ATOM     33  C   LIG    1      -25.531  72.745  15.205  0.00  0.00    -0.014 A 
ATOM     34  C   LIG    1      -26.615  73.337  14.526  0.00  0.00    +0.012 A 
ATOM     35  C   LIG    1      -26.474  74.527  13.796  0.00  0.00    +0.047 A 
ATOM     36  C   LIG    1      -25.245  75.172  13.732  0.00  0.00    +0.132 A 
ATOM     37  C   LIG    1      -24.164  74.627  14.420  0.00  0.00    +0.047 A 
ATOM     38  C   LIG    1      -24.298  73.413  15.103  0.00  0.00    +0.012 A 
BRANCH  33  40
ATOM     39  C   LIG    1      -25.020  70.271  15.680  0.00  0.00    +0.124 A 
ATOM     40  C   LIG    1      -25.680  71.480  15.987  0.00  0.00    +0.022 A 
ATOM     41  C   LIG    1      -26.524  71.432  17.116  0.00  0.00    +0.025 A 
ATOM     42  C   LIG    1      -26.683  70.259  17.868  0.00  0.00    +0.074 A 
ATOM     43  C   LIG    1      -26.002  69.138  17.443  0.00  0.00    +0.125 A 
ATOM     44  N   LIG    1      -25.183  69.123  16.373  0.00  0.00    -0.240 NA
BRANCH  42  45
ATOM     45  C   LIG    1      -27.550  70.206  19.086  0.00  0.00    +0.419 C 
ATOM     46  F   LIG    1      -28.397  69.141  19.078  0.00  0.00    -0.166 F 
ATOM     47  F   LIG    1      -28.339  71.308  19.211  0.00  0.00    -0.166 F 
ATOM     48  F   LIG    1      -26.850  70.118  20.251  0.00  0.00    -0.166 F 
ENDBRANCH  42  45
BRANCH  39  49
ATOM     49  N   LIG    1      -24.110  70.135  14.633  0.00  0.00    -0.343 N 
ATOM     50  H   LIG    1      -23.649  71.018  14.441  0.00  0.00    +0.144 HD
ATOM     51  H   LIG    1      -23.446  69.419  14.920  0.00  0.00    +0.144 HD
ENDBRANCH  39  49
ENDBRANCH  33  40
ENDBRANCH  32  36
ENDBRANCH   1  32
TORSDOF 12
ENDMDL
MODEL 9
REMARK VINA RESULT:      -6.4     17.568     18.778
REMARK  Name = pdb/CHEMBL3890123.pdb
REMARK                            x       y       z     vdW  Elec       q    Type
REMARK                         _______ _______ _______ _____ _____    ______ ____
ROOT
ATOM      1  C   LIG    1      -24.594  77.386  14.426  0.00  0.00    +0.323 A 
ATOM      2  N   LIG    1      -25.401  78.095  15.229  0.00  0.00    -0.201 NA
ATOM      3  C   LIG    1      -25.005  79.360  15.521  0.00  0.00    +0.145 A 
ATOM      4  C   LIG    1      -23.788  79.927  15.151  0.00  0.00    +0.105 A 
ATOM      5  C   LIG    1      -23.055  79.071  14.353  0.00  0.00    +0.145 A 
ATOM      6  N   LIG    1      -23.419  77.821  13.965  0.00  0.00    -0.201 NA
ENDROOT
BRANCH   4   7
ATOM      7  N   LIG    1      -23.381  81.178  15.708  0.00  0.00    -0.196 NA
ATOM      8  C   LIG    1      -23.622  82.312  15.146  0.00  0.00    +0.285 C 
BRANCH   8   9
ATOM      9  N   LIG    1      -23.056  83.523  15.521  0.00  0.00    -0.267 N 
ATOM     10  H   LIG    1      -23.631  83.999  16.206  0.00  0.00    +0.157 HD
BRANCH   9  11
ATOM     11  C   LIG    1      -22.189  84.400  14.805  0.00  0.00    +0.061 A 
ATOM     12  C   LIG    1      -21.013  83.995  14.112  0.00  0.00    +0.087 A 
ATOM     13  C   LIG    1      -20.238  84.964  13.425  0.00  0.00    +0.030 A 
ATOM     14  C   LIG    1      -20.617  86.303  13.366  0.00  0.00    +0.014 A 
ATOM     15  C   LIG    1      -21.771  86.729  14.024  0.00  0.00    +0.057 A 
ATOM     16  C   LIG    1      -22.523  85.776  14.746  0.00  0.00    +0.037 A 
BRANCH  12  17
ATOM     17  N   LIG    1      -20.548  82.644  13.978  0.00  0.00    -0.238 N 
ATOM     18  N   LIG    1      -20.108  81.953  15.076  0.00  0.00    -0.162 NA
ATOM     19  C   LIG    1      -19.689  80.757  14.620  0.00  0.00    +0.166 A 
ATOM     20  C   LIG    1      -19.838  80.687  13.218  0.00  0.00    +0.054 A 
ATOM     21  C   LIG    1      -20.453  81.858  12.857  0.00  0.00    +0.115 A 
BRANCH  19  22
ATOM     22  C   LIG    1      -19.195  79.643  15.512  0.00  0.00    +0.436 C 
ATOM     23  F   LIG    1      -18.182  78.940  14.938  0.00  0.00    -0.164 F 
ATOM     24  F   LIG    1      -20.163  78.751  15.847  0.00  0.00    -0.164 F 
ATOM     25  F   LIG    1      -18.700  80.133  16.684  0.00  0.00    -0.164 F 
ENDBRANCH  19  22
ENDBRANCH  12  17
BRANCH  15  26
ATOM     26  C   LIG    1      -22.195  88.183  13.947  0.00  0.00    +0.417 C 
ATOM     27  F   LIG    1      -21.130  89.028  13.853  0.00  0.00    -0.166 F 
ATOM     28  F   LIG    1      -22.901  88.594  15.040  0.00  0.00    -0.166 F 
ATOM     29  F   LIG    1      -22.981  88.464  12.871  0.00  0.00    -0.166 F 
ENDBRANCH  15  26
ENDBRANCH   9  11
ENDBRANCH   8   9
BRANCH   8  30
ATOM     30  O   LIG    1      -24.401  82.411  14.058  0.00  0.00    -0.481 OA
ATOM     31  H   LIG    1      -23.864  82.637  13.268  0.00  0.00    +0.295 HD
ENDBRANCH   8  30
ENDBRANCH   4   7
BRANCH   1  32
ATOM     32  O   LIG    1      -24.986  76.137  13.967  0.00  0.00    -0.424 OA
BRANCH  32  36
ATOM     33  C   LIG    1      -28.384  76.036  11.456  0.00  0.00    -0.014 A 
ATOM     34  C   LIG    1      -27.199  76.727  11.132  0.00  0.00    +0.012 A 
ATOM     35  C   LIG    1      -26.080  76.723  11.977  0.00  0.00    +0.047 A 
ATOM     36  C   LIG    1      -26.113  76.036  13.186  0.00  0.00    +0.132 A 
ATOM     37  C   LIG    1      -27.281  75.371  13.547  0.00  0.00    +0.047 A 
ATOM     38  C   LIG    1      -28.376  75.335  12.675  0.00  0.00    +0.012 A 
BRANCH  33  40
ATOM     39  C   LIG    1      -29.691  75.278   9.377  0.00  0.00    +0.124 A 
ATOM     40  C   LIG    1      -29.578  76.042  10.558  0.00  0.00    +0.022 A 
ATOM     41  C   LIG    1      -30.696  76.846  10.862  0.00  0.00    +0.025 A 
ATOM     42  C   LIG    1      -31.831  76.872  10.038  0.00  0.00    +0.074 A 
ATOM     43  C   LIG    1      -31.801  76.099   8.896  0.00  0.00    +0.125 A 
ATOM     44  N   LIG    1      -30.762  75.313   8.554  0.00  0.00    -0.240 NA
BRANCH  42  45
ATOM     45  C   LIG    1      -33.035  77.697  10.367  0.00  0.00    +0.419 C 
ATOM     46  F   LIG    1      -33.153  77.938  11.701  0.00  0.00    -0.166 F 
ATOM     47  F   LIG    1      -34.196  77.094   9.993  0.00  0.00    -0.166 F 
ATOM     48  F   LIG    1      -33.041  78.918   9.765  0.00  0.00    -0.166 F 
ENDBRANCH  42  45
BRANCH  39  49
ATOM     49  N   LIG    1      -28.712  74.388   8.938  0.00  0.00    -0.343 N 
ATOM     50  H   LIG    1      -29.003  73.429   9.096  0.00  0.00    +0.144 HD
ATOM     51  H   LIG    1      -28.571  74.580   7.950  0.00  0.00    +0.144 HD
ENDBRANCH  39  49
ENDBRANCH  33  40
ENDBRANCH  32  36
ENDBRANCH   1  32
TORSDOF 12
ENDMDL
