MODEL 1
REMARK VINA RESULT:      -7.0      0.000      0.000
REMARK  Name = pdb/CHEMBL3966169.pdb
REMARK                            x       y       z     vdW  Elec       q    Type
REMARK                         _______ _______ _______ _____ _____    ______ ____
ROOT
ATOM      1  C   LIG    1      -31.264  87.080  30.957  0.00  0.00    +0.149 A 
ATOM      2  N   LIG    1      -32.416  87.769  30.927  0.00  0.00    -0.160 NA
ATOM      3  N   LIG    1      -33.242  87.049  30.126  0.00  0.00    -0.218 N 
ATOM      4  C   LIG    1      -32.711  85.795  29.833  0.00  0.00    +0.129 A 
ATOM      5  C   LIG    1      -31.409  85.847  30.278  0.00  0.00    +0.078 A 
ENDROOT
BRANCH   3   6
ATOM      6  C   LIG    1      -34.477  87.600  29.684  0.00  0.00    +0.067 A 
ATOM      7  C   LIG    1      -34.506  88.374  28.514  0.00  0.00    +0.028 A 
ATOM      8  C   LIG    1      -35.707  88.927  28.070  0.00  0.00    +0.002 A 
ATOM      9  C   LIG    1      -36.889  88.684  28.765  0.00  0.00    +0.000 A 
ATOM     10  C   LIG    1      -36.875  87.883  29.907  0.00  0.00    +0.002 A 
ATOM     11  C   LIG    1      -35.674  87.342  30.371  0.00  0.00    +0.028 A 
ENDBRANCH   3   6
BRANCH   4  12
ATOM     12  N   LIG    1      -33.383  84.686  29.282  0.00  0.00    -0.266 N 
ATOM     13  H   LIG    1      -33.273  84.530  28.286  0.00  0.00    +0.157 HD
ATOM     14  C   LIG    1      -34.234  83.833  30.072  0.00  0.00    +0.251 C 
ATOM     15  O   LIG    1      -34.303  84.002  31.278  0.00  0.00    -0.270 OA
BRANCH  14  16
ATOM     16  C   LIG    1      -34.911  82.684  29.421  0.00  0.00    +0.056 A 
ATOM     17  C   LIG    1      -36.308  82.606  29.420  0.00  0.00    +0.054 A 
ATOM     18 CL   LIG    1      -37.339  83.937  29.811  0.00  0.00    -0.083 Cl
ATOM     19  C   LIG    1      -36.937  81.428  29.021  0.00  0.00    +0.041 A 
ATOM     20  C   LIG    1      -36.197  80.328  28.566  0.00  0.00    +0.052 A 
ATOM     21 CL   LIG    1      -37.148  78.988  28.024  0.00  0.00    -0.083 Cl
ATOM     22  C   LIG    1      -34.788  80.380  28.498  0.00  0.00    +0.022 A 
ATOM     23  C   LIG    1      -34.170  81.586  28.939  0.00  0.00    +0.026 A 
BRANCH  22  24
ATOM     24  C   LIG    1      -33.916  79.300  27.963  0.00  0.00    +0.107 A 
ATOM     25  C   LIG    1      -33.722  78.044  28.549  0.00  0.00    +0.149 A 
ATOM     26  F   LIG    1      -34.245  77.730  29.741  0.00  0.00    -0.203 F 
ATOM     27  C   LIG    1      -32.914  77.099  27.922  0.00  0.00    +0.042 A 
ATOM     28  C   LIG    1      -32.263  77.435  26.744  0.00  0.00    +0.023 A 
ATOM     29  C   LIG    1      -32.450  78.711  26.243  0.00  0.00    +0.111 A 
ATOM     30  N   LIG    1      -33.252  79.643  26.818  0.00  0.00    -0.252 NA
ENDBRANCH  22  24
ENDBRANCH  14  16
ENDBRANCH   4  12
BRANCH   1  31
ATOM     31  C   LIG    1      -30.060  87.540  31.658  0.00  0.00    +0.236 C 
ATOM     32  N   LIG    1      -30.058  87.603  32.934  0.00  0.00    -0.243 NA
BRANCH  31  33
ATOM     33  O   LIG    1      -29.021  87.886  30.862  0.00  0.00    -0.491 OA
ATOM     34  H   LIG    1      -28.798  87.208  30.215  0.00  0.00    +0.294 HD
ENDBRANCH  31  33
BRANCH  32  35
ATOM     35  C   LIG    1      -28.887  88.077  33.653  0.00  0.00    +0.201 C 
BRANCH  35  36
ATOM     36  C   LIG    1      -28.295  86.949  34.401  0.00  0.00    +0.077 A 
ATOM     37  N   LIG    1      -28.744  85.662  34.300  0.00  0.00    -0.260 N 
ATOM     38  H   LIG    1      -29.514  85.289  33.762  0.00  0.00    +0.190 HD
ATOM     39  N   LIG    1      -28.015  84.827  35.061  0.00  0.00    -0.068 NA
ATOM     40  N   LIG    1      -27.095  85.551  35.678  0.00  0.00    -0.138 NA
ATOM     41  C   LIG    1      -27.250  86.852  35.290  0.00  0.00    +0.161 A 
ENDBRANCH  35  36
ENDBRANCH  32  35
ENDBRANCH   1  31
TORSDOF 8
ENDMDL
MODEL 2
REMARK VINA RESULT:      -6.8      8.554     11.323
REMARK  Name = pdb/CHEMBL3966169.pdb
REMARK                            x       y       z     vdW  Elec       q    Type
REMARK                         _______ _______ _______ _____ _____    ______ ____
ROOT
ATOM      1  C   LIG    1      -31.714  74.114  29.933  0.00  0.00    +0.149 A 
ATOM      2  N   LIG    1      -31.848  75.448  29.853  0.00  0.00    -0.160 NA
ATOM      3  N   LIG    1      -32.712  75.658  28.828  0.00  0.00    -0.218 N 
ATOM      4  C   LIG    1      -33.311  74.473  28.407  0.00  0.00    +0.129 A 
ATOM      5  C   LIG    1      -32.607  73.474  29.041  0.00  0.00    +0.078 A 
ENDROOT
BRANCH   3   6
ATOM      6  C   LIG    1      -32.910  76.969  28.310  0.00  0.00    +0.067 A 
ATOM      7  C   LIG    1      -32.231  77.357  27.145  0.00  0.00    +0.028 A 
ATOM      8  C   LIG    1      -32.407  78.640  26.627  0.00  0.00    +0.002 A 
ATOM      9  C   LIG    1      -33.286  79.529  27.242  0.00  0.00    +0.000 A 
ATOM     10  C   LIG    1      -33.994  79.137  28.378  0.00  0.00    +0.002 A 
ATOM     11  C   LIG    1      -33.807  77.861  28.916  0.00  0.00    +0.028 A 
ENDBRANCH   3   6
BRANCH   4  12
ATOM     12  N   LIG    1      -34.444  74.330  27.582  0.00  0.00    -0.266 N 
ATOM     13  H   LIG    1      -34.278  74.118  26.605  0.00  0.00    +0.157 HD
ATOM     14  C   LIG    1      -35.783  74.524  28.076  0.00  0.00    +0.251 C 
ATOM     15  O   LIG    1      -35.964  74.717  29.267  0.00  0.00    -0.270 OA
BRANCH  14  16
ATOM     16  C   LIG    1      -36.929  74.357  27.147  0.00  0.00    +0.056 A 
ATOM     17  C   LIG    1      -37.274  73.083  26.686  0.00  0.00    +0.054 A 
ATOM     18 CL   LIG    1      -36.689  71.619  27.396  0.00  0.00    -0.083 Cl
ATOM     19  C   LIG    1      -38.190  72.945  25.644  0.00  0.00    +0.041 A 
ATOM     20  C   LIG    1      -38.819  74.063  25.079  0.00  0.00    +0.052 A 
ATOM     21 CL   LIG    1      -39.994  73.697  23.864  0.00  0.00    -0.083 Cl
ATOM     22  C   LIG    1      -38.543  75.365  25.549  0.00  0.00    +0.022 A 
ATOM     23  C   LIG    1      -37.581  75.478  26.596  0.00  0.00    +0.026 A 
BRANCH  22  24
ATOM     24  C   LIG    1      -39.208  76.607  25.070  0.00  0.00    +0.107 A 
ATOM     25  C   LIG    1      -38.746  77.434  24.041  0.00  0.00    +0.149 A 
ATOM     26  F   LIG    1      -37.567  77.226  23.440  0.00  0.00    -0.203 F 
ATOM     27  C   LIG    1      -39.488  78.547  23.653  0.00  0.00    +0.042 A 
ATOM     28  C   LIG    1      -40.656  78.856  24.334  0.00  0.00    +0.023 A 
ATOM     29  C   LIG    1      -41.032  78.032  25.381  0.00  0.00    +0.111 A 
ATOM     30  N   LIG    1      -40.344  76.927  25.762  0.00  0.00    -0.252 NA
ENDBRANCH  22  24
ENDBRANCH  14  16
ENDBRANCH   4  12
BRANCH   1  31
ATOM     31  C   LIG    1      -30.808  73.443  30.872  0.00  0.00    +0.236 C 
ATOM     32  N   LIG    1      -30.785  72.167  30.926  0.00  0.00    -0.243 NA
BRANCH  31  33
ATOM     33  O   LIG    1      -30.057  74.266  31.642  0.00  0.00    -0.491 OA
ATOM     34  H   LIG    1      -30.333  75.188  31.590  0.00  0.00    +0.294 HD
ENDBRANCH  31  33
BRANCH  32  35
ATOM     35  C   LIG    1      -29.914  71.478  31.863  0.00  0.00    +0.201 C 
BRANCH  35  36
ATOM     36  C   LIG    1      -28.616  71.218  31.208  0.00  0.00    +0.077 A 
ATOM     37  N   LIG    1      -28.469  70.388  30.132  0.00  0.00    -0.260 N 
ATOM     38  H   LIG    1      -29.160  69.829  29.651  0.00  0.00    +0.190 HD
ATOM     39  N   LIG    1      -27.193  70.350  29.712  0.00  0.00    -0.068 NA
ATOM     40  N   LIG    1      -26.487  71.138  30.508  0.00  0.00    -0.138 NA
ATOM     41  C   LIG    1      -27.338  71.676  31.432  0.00  0.00    +0.161 A 
ENDBRANCH  35  36
ENDBRANCH  32  35
ENDBRANCH   1  31
TORSDOF 8
ENDMDL
MODEL 3
REMARK VINA RESULT:      -6.6      7.786      9.911
REMARK  Name = pdb/CHEMBL3966169.pdb
REMARK                            x       y       z     vdW  Elec       q    Type
REMARK                         _______ _______ _______ _____ _____    ______ ____
ROOT
ATOM      1  C   LIG    1      -31.762  75.168  29.869  0.00  0.00    +0.149 A 
ATOM      2  N   LIG    1      -32.203  76.432  29.963  0.00  0.00    -0.160 NA
ATOM      3  N   LIG    1      -33.125  76.563  28.976  0.00  0.00    -0.218 N 
ATOM      4  C   LIG    1      -33.445  75.334  28.404  0.00  0.00    +0.129 A 
ATOM      5  C   LIG    1      -32.509  74.455  28.901  0.00  0.00    +0.078 A 
ENDROOT
BRANCH   3   6
ATOM      6  C   LIG    1      -33.637  77.846  28.634  0.00  0.00    +0.067 A 
ATOM      7  C   LIG    1      -33.061  78.555  27.569  0.00  0.00    +0.028 A 
ATOM      8  C   LIG    1      -33.545  79.817  27.225  0.00  0.00    +0.002 A 
ATOM      9  C   LIG    1      -34.628  80.362  27.912  0.00  0.00    +0.000 A 
ATOM     10  C   LIG    1      -35.232  79.646  28.945  0.00  0.00    +0.002 A 
ATOM     11  C   LIG    1      -34.739  78.391  29.311  0.00  0.00    +0.028 A 
ENDBRANCH   3   6
BRANCH   4  12
ATOM     12  N   LIG    1      -34.540  75.036  27.568  0.00  0.00    -0.266 N 
ATOM     13  H   LIG    1      -34.383  75.088  26.568  0.00  0.00    +0.157 HD
ATOM     14  C   LIG    1      -35.843  74.719  28.094  0.00  0.00    +0.251 C 
ATOM     15  O   LIG    1      -35.995  74.601  29.298  0.00  0.00    -0.270 OA
BRANCH  14  16
ATOM     16  C   LIG    1      -36.950  74.417  27.152  0.00  0.00    +0.056 A 
ATOM     17  C   LIG    1      -37.181  73.098  26.746  0.00  0.00    +0.054 A 
ATOM     18 CL   LIG    1      -36.496  71.722  27.537  0.00  0.00    -0.083 Cl
ATOM     19  C   LIG    1      -38.057  72.838  25.695  0.00  0.00    +0.041 A 
ATOM     20  C   LIG    1      -38.761  73.874  25.064  0.00  0.00    +0.052 A 
ATOM     21 CL   LIG    1      -39.874  73.356  23.845  0.00  0.00    -0.083 Cl
ATOM     22  C   LIG    1      -38.602  75.214  25.476  0.00  0.00    +0.022 A 
ATOM     23  C   LIG    1      -37.678  75.454  26.534  0.00  0.00    +0.026 A 
BRANCH  22  24
ATOM     24  C   LIG    1      -39.354  76.373  24.925  0.00  0.00    +0.107 A 
ATOM     25  C   LIG    1      -38.887  77.255  23.944  0.00  0.00    +0.149 A 
ATOM     26  F   LIG    1      -37.636  77.190  23.470  0.00  0.00    -0.203 F 
ATOM     27  C   LIG    1      -39.709  78.278  23.477  0.00  0.00    +0.042 A 
ATOM     28  C   LIG    1      -40.969  78.445  24.033  0.00  0.00    +0.023 A 
ATOM     29  C   LIG    1      -41.353  77.576  25.039  0.00  0.00    +0.111 A 
ATOM     30  N   LIG    1      -40.584  76.555  25.494  0.00  0.00    -0.252 NA
ENDBRANCH  22  24
ENDBRANCH  14  16
ENDBRANCH   4  12
BRANCH   1  31
ATOM     31  C   LIG    1      -30.695  74.614  30.711  0.00  0.00    +0.236 C 
ATOM     32  N   LIG    1      -30.018  75.391  31.465  0.00  0.00    -0.243 NA
BRANCH  31  33
ATOM     33  O   LIG    1      -30.503  73.278  30.600  0.00  0.00    -0.491 OA
ATOM     34  H   LIG    1      -29.616  73.002  30.855  0.00  0.00    +0.294 HD
ENDBRANCH  31  33
BRANCH  32  35
ATOM     35  C   LIG    1      -28.941  74.873  32.291  0.00  0.00    +0.201 C 
BRANCH  35  36
ATOM     36  C   LIG    1      -27.754  75.737  32.129  0.00  0.00    +0.077 A 
ATOM     37  N   LIG    1      -27.740  76.857  31.345  0.00  0.00    -0.260 N 
ATOM     38  H   LIG    1      -28.471  77.245  30.764  0.00  0.00    +0.190 HD
ATOM     39  N   LIG    1      -26.549  77.477  31.395  0.00  0.00    -0.068 NA
ATOM     40  N   LIG    1      -25.765  76.771  32.195  0.00  0.00    -0.138 NA
ATOM     41  C   LIG    1      -26.482  75.701  32.652  0.00  0.00    +0.161 A 
ENDBRANCH  35  36
ENDBRANCH  32  35
ENDBRANCH   1  31
TORSDOF 8
ENDMDL
MODEL 4
REMARK VINA RESULT:      -6.5      8.952     16.651
REMARK  Name = pdb/CHEMBL3966169.pdb
REMARK                            x       y       z     vdW  Elec       q    Type
REMARK                         _______ _______ _______ _____ _____    ______ ____
ROOT
ATOM      1  C   LIG    1      -37.330  69.932  24.991  0.00  0.00    +0.149 A 
ATOM      2  N   LIG    1      -37.134  69.154  26.068  0.00  0.00    -0.160 NA
ATOM      3  N   LIG    1      -35.985  69.606  26.630  0.00  0.00    -0.218 N 
ATOM      4  C   LIG    1      -35.572  70.809  26.061  0.00  0.00    +0.129 A 
ATOM      5  C   LIG    1      -36.370  70.971  24.952  0.00  0.00    +0.078 A 
ENDROOT
BRANCH   3   6
ATOM      6  C   LIG    1      -35.350  68.865  27.666  0.00  0.00    +0.067 A 
ATOM      7  C   LIG    1      -34.282  68.014  27.345  0.00  0.00    +0.028 A 
ATOM      8  C   LIG    1      -33.651  67.275  28.347  0.00  0.00    +0.002 A 
ATOM      9  C   LIG    1      -34.055  67.407  29.674  0.00  0.00    +0.000 A 
ATOM     10  C   LIG    1      -35.090  68.281  30.005  0.00  0.00    +0.002 A 
ATOM     11  C   LIG    1      -35.741  69.009  29.006  0.00  0.00    +0.028 A 
ENDBRANCH   3   6
BRANCH   4  12
ATOM     12  N   LIG    1      -34.608  71.707  26.561  0.00  0.00    -0.266 N 
ATOM     13  H   LIG    1      -33.710  71.727  26.090  0.00  0.00    +0.157 HD
ATOM     14  C   LIG    1      -34.851  72.530  27.718  0.00  0.00    +0.251 C 
ATOM     15  O   LIG    1      -35.957  72.535  28.231  0.00  0.00    -0.270 OA
BRANCH  14  16
ATOM     16  C   LIG    1      -33.787  73.452  28.187  0.00  0.00    +0.056 A 
ATOM     17  C   LIG    1      -32.780  72.983  29.037  0.00  0.00    +0.054 A 
ATOM     18 CL   LIG    1      -32.466  71.305  29.310  0.00  0.00    -0.083 Cl
ATOM     19  C   LIG    1      -31.921  73.885  29.661  0.00  0.00    +0.041 A 
ATOM     20  C   LIG    1      -32.010  75.262  29.411  0.00  0.00    +0.052 A 
ATOM     21 CL   LIG    1      -30.803  76.221  30.198  0.00  0.00    -0.083 Cl
ATOM     22  C   LIG    1      -32.974  75.777  28.519  0.00  0.00    +0.022 A 
ATOM     23  C   LIG    1      -33.858  74.834  27.917  0.00  0.00    +0.026 A 
BRANCH  22  24
ATOM     24  C   LIG    1      -33.103  77.207  28.129  0.00  0.00    +0.107 A 
ATOM     25  C   LIG    1      -32.455  77.820  27.052  0.00  0.00    +0.149 A 
ATOM     26  F   LIG    1      -31.549  77.172  26.307  0.00  0.00    -0.203 F 
ATOM     27  C   LIG    1      -32.698  79.161  26.762  0.00  0.00    +0.042 A 
ATOM     28  C   LIG    1      -33.541  79.892  27.585  0.00  0.00    +0.023 A 
ATOM     29  C   LIG    1      -34.109  79.245  28.669  0.00  0.00    +0.111 A 
ATOM     30  N   LIG    1      -33.912  77.934  28.959  0.00  0.00    -0.252 NA
ENDBRANCH  22  24
ENDBRANCH  14  16
ENDBRANCH   4  12
BRANCH   1  31
ATOM     31  C   LIG    1      -38.434  69.744  24.043  0.00  0.00    +0.236 C 
ATOM     32  N   LIG    1      -38.201  69.238  22.894  0.00  0.00    -0.243 NA
BRANCH  31  33
ATOM     33  O   LIG    1      -39.649  70.155  24.478  0.00  0.00    -0.491 OA
ATOM     34  H   LIG    1      -40.370  69.592  24.174  0.00  0.00    +0.294 HD
ENDBRANCH  31  33
BRANCH  32  35
ATOM     35  C   LIG    1      -39.272  69.063  21.927  0.00  0.00    +0.201 C 
BRANCH  35  36
ATOM     36  C   LIG    1      -38.731  68.386  20.730  0.00  0.00    +0.077 A 
ATOM     37  N   LIG    1      -37.838  68.969  19.876  0.00  0.00    -0.260 N 
ATOM     38  H   LIG    1      -37.444  69.900  19.894  0.00  0.00    +0.190 HD
ATOM     39  N   LIG    1      -37.485  68.131  18.887  0.00  0.00    -0.068 NA
ATOM     40  N   LIG    1      -38.146  66.999  19.069  0.00  0.00    -0.138 NA
ATOM     41  C   LIG    1      -38.917  67.135  20.190  0.00  0.00    +0.161 A 
ENDBRANCH  35  36
ENDBRANCH  32  35
ENDBRANCH   1  31
TORSDOF 8
ENDMDL
MODEL 5
REMARK VINA RESULT:      -6.5      8.810     15.848
REMARK  Name = pdb/CHEMBL3966169.pdb
REMARK                            x       y       z     vdW  Elec       q    Type
REMARK                         _______ _______ _______ _____ _____    ______ ____
ROOT
ATOM      1  C   LIG    1      -36.291  69.122  25.164  0.00  0.00    +0.149 A 
ATOM      2  N   LIG    1      -37.200  70.096  24.997  0.00  0.00    -0.160 NA
ATOM      3  N   LIG    1      -36.716  71.158  25.689  0.00  0.00    -0.218 N 
ATOM      4  C   LIG    1      -35.401  70.950  26.099  0.00  0.00    +0.129 A 
ATOM      5  C   LIG    1      -35.158  69.617  25.853  0.00  0.00    +0.078 A 
ENDROOT
BRANCH   3   6
ATOM      6  C   LIG    1      -37.534  72.299  25.921  0.00  0.00    +0.067 A 
ATOM      7  C   LIG    1      -37.882  73.126  24.842  0.00  0.00    +0.028 A 
ATOM      8  C   LIG    1      -38.677  74.253  25.051  0.00  0.00    +0.002 A 
ATOM      9  C   LIG    1      -39.160  74.541  26.326  0.00  0.00    +0.000 A 
ATOM     10  C   LIG    1      -38.851  73.702  27.397  0.00  0.00    +0.002 A 
ATOM     11  C   LIG    1      -38.037  72.584  27.200  0.00  0.00    +0.028 A 
ENDBRANCH   3   6
BRANCH   4  12
ATOM     12  N   LIG    1      -34.490  71.911  26.580  0.00  0.00    -0.266 N 
ATOM     13  H   LIG    1      -33.883  72.351  25.898  0.00  0.00    +0.157 HD
ATOM     14  C   LIG    1      -34.377  72.229  27.981  0.00  0.00    +0.251 C 
ATOM     15  O   LIG    1      -35.157  71.734  28.776  0.00  0.00    -0.270 OA
BRANCH  14  16
ATOM     16  C   LIG    1      -33.393  73.252  28.413  0.00  0.00    +0.056 A 
ATOM     17  C   LIG    1      -32.304  72.882  29.210  0.00  0.00    +0.054 A 
ATOM     18 CL   LIG    1      -31.806  71.243  29.444  0.00  0.00    -0.083 Cl
ATOM     19  C   LIG    1      -31.514  73.863  29.807  0.00  0.00    +0.041 A 
ATOM     20  C   LIG    1      -31.756  75.225  29.580  0.00  0.00    +0.052 A 
ATOM     21 CL   LIG    1      -30.619  76.296  30.325  0.00  0.00    -0.083 Cl
ATOM     22  C   LIG    1      -32.809  75.646  28.740  0.00  0.00    +0.022 A 
ATOM     23  C   LIG    1      -33.618  74.622  28.167  0.00  0.00    +0.026 A 
BRANCH  22  24
ATOM     24  C   LIG    1      -33.103  77.058  28.378  0.00  0.00    +0.107 A 
ATOM     25  C   LIG    1      -32.553  77.753  27.295  0.00  0.00    +0.149 A 
ATOM     26  F   LIG    1      -31.601  77.219  26.520  0.00  0.00    -0.203 F 
ATOM     27  C   LIG    1      -32.947  79.063  27.033  0.00  0.00    +0.042 A 
ATOM     28  C   LIG    1      -33.845  79.686  27.888  0.00  0.00    +0.023 A 
ATOM     29  C   LIG    1      -34.311  78.966  28.974  0.00  0.00    +0.111 A 
ATOM     30  N   LIG    1      -33.966  77.680  29.237  0.00  0.00    -0.252 NA
ENDBRANCH  22  24
ENDBRANCH  14  16
ENDBRANCH   4  12
BRANCH   1  31
ATOM     31  C   LIG    1      -36.450  67.762  24.636  0.00  0.00    +0.236 C 
ATOM     32  N   LIG    1      -35.646  67.334  23.740  0.00  0.00    -0.243 NA
BRANCH  31  33
ATOM     33  O   LIG    1      -37.484  67.057  25.152  0.00  0.00    -0.491 OA
ATOM     34  H   LIG    1      -37.959  67.532  25.842  0.00  0.00    +0.294 HD
ENDBRANCH  31  33
BRANCH  32  35
ATOM     35  C   LIG    1      -35.796  66.000  23.183  0.00  0.00    +0.201 C 
BRANCH  35  36
ATOM     36  C   LIG    1      -34.835  65.835  22.072  0.00  0.00    +0.077 A 
ATOM     37  N   LIG    1      -33.962  66.810  21.681  0.00  0.00    -0.260 N 
ATOM     38  H   LIG    1      -33.847  67.751  22.035  0.00  0.00    +0.190 HD
ATOM     39  N   LIG    1      -33.181  66.394  20.670  0.00  0.00    -0.068 NA
ATOM     40  N   LIG    1      -33.538  65.153  20.376  0.00  0.00    -0.138 NA
ATOM     41  C   LIG    1      -34.550  64.793  21.220  0.00  0.00    +0.161 A 
ENDBRANCH  35  36
ENDBRANCH  32  35
ENDBRANCH   1  31
TORSDOF 8
ENDMDL
MODEL 6
REMARK VINA RESULT:      -6.5      6.260     10.368
REMARK  Name = pdb/CHEMBL3966169.pdb
REMARK                            x       y       z     vdW  Elec       q    Type
REMARK                         _______ _______ _______ _____ _____    ______ ____
ROOT
ATOM      1  C   LIG    1      -36.111  79.408  27.845  0.00  0.00    +0.149 A 
ATOM      2  N   LIG    1      -35.189  78.485  28.162  0.00  0.00    -0.160 NA
ATOM      3  N   LIG    1      -35.806  77.289  27.984  0.00  0.00    -0.218 N 
ATOM      4  C   LIG    1      -37.031  77.433  27.336  0.00  0.00    +0.129 A 
ATOM      5  C   LIG    1      -37.275  78.788  27.333  0.00  0.00    +0.078 A 
ENDROOT
BRANCH   3   6
ATOM      6  C   LIG    1      -35.197  76.089  28.446  0.00  0.00    +0.067 A 
ATOM      7  C   LIG    1      -35.510  75.608  29.726  0.00  0.00    +0.028 A 
ATOM      8  C   LIG    1      -34.918  74.437  30.198  0.00  0.00    +0.002 A 
ATOM      9  C   LIG    1      -34.042  73.719  29.386  0.00  0.00    +0.000 A 
ATOM     10  C   LIG    1      -33.757  74.169  28.097  0.00  0.00    +0.002 A 
ATOM     11  C   LIG    1      -34.329  75.353  27.625  0.00  0.00    +0.028 A 
ENDBRANCH   3   6
BRANCH   4  12
ATOM     12  N   LIG    1      -37.808  76.422  26.737  0.00  0.00    -0.266 N 
ATOM     13  H   LIG    1      -38.482  75.949  27.328  0.00  0.00    +0.157 HD
ATOM     14  C   LIG    1      -37.631  76.030  25.363  0.00  0.00    +0.251 C 
ATOM     15  O   LIG    1      -36.859  76.652  24.653  0.00  0.00    -0.270 OA
BRANCH  14  16
ATOM     16  C   LIG    1      -38.487  74.955  24.800  0.00  0.00    +0.056 A 
ATOM     17  C   LIG    1      -39.719  75.275  24.220  0.00  0.00    +0.054 A 
ATOM     18 CL   LIG    1      -40.177  76.882  23.779  0.00  0.00    -0.083 Cl
ATOM     19  C   LIG    1      -40.622  74.262  23.904  0.00  0.00    +0.041 A 
ATOM     20  C   LIG    1      -40.299  72.913  24.106  0.00  0.00    +0.052 A 
ATOM     21 CL   LIG    1      -41.501  71.791  23.569  0.00  0.00    -0.083 Cl
ATOM     22  C   LIG    1      -39.046  72.539  24.638  0.00  0.00    +0.022 A 
ATOM     23  C   LIG    1      -38.154  73.597  24.979  0.00  0.00    +0.026 A 
BRANCH  22  24
ATOM     24  C   LIG    1      -38.578  71.139  24.823  0.00  0.00    +0.107 A 
ATOM     25  C   LIG    1      -39.012  70.260  25.820  0.00  0.00    +0.149 A 
ATOM     26  F   LIG    1      -39.846  70.647  26.794  0.00  0.00    -0.203 F 
ATOM     27  C   LIG    1      -38.530  68.953  25.857  0.00  0.00    +0.042 A 
ATOM     28  C   LIG    1      -37.576  68.555  24.933  0.00  0.00    +0.023 A 
ATOM     29  C   LIG    1      -37.144  69.487  24.005  0.00  0.00    +0.111 A 
ATOM     30  N   LIG    1      -37.616  70.757  23.929  0.00  0.00    -0.252 NA
ENDBRANCH  22  24
ENDBRANCH  14  16
ENDBRANCH   4  12
BRANCH   1  31
ATOM     31  C   LIG    1      -35.887  80.854  27.963  0.00  0.00    +0.236 C 
ATOM     32  N   LIG    1      -36.643  81.550  28.723  0.00  0.00    -0.243 NA
BRANCH  31  33
ATOM     33  O   LIG    1      -34.871  81.347  27.217  0.00  0.00    -0.491 OA
ATOM     34  H   LIG    1      -34.541  82.193  27.539  0.00  0.00    +0.294 HD
ENDBRANCH  31  33
BRANCH  32  35
ATOM     35  C   LIG    1      -36.458  82.986  28.840  0.00  0.00    +0.201 C 
BRANCH  35  36
ATOM     36  C   LIG    1      -35.385  83.253  29.821  0.00  0.00    +0.077 A 
ATOM     37  N   LIG    1      -34.123  83.638  29.467  0.00  0.00    -0.260 N 
ATOM     38  H   LIG    1      -33.724  83.772  28.548  0.00  0.00    +0.190 HD
ATOM     39  N   LIG    1      -33.351  83.843  30.549  0.00  0.00    -0.068 NA
ATOM     40  N   LIG    1      -34.087  83.583  31.618  0.00  0.00    -0.138 NA
ATOM     41  C   LIG    1      -35.333  83.217  31.195  0.00  0.00    +0.161 A 
ENDBRANCH  35  36
ENDBRANCH  32  35
ENDBRANCH   1  31
TORSDOF 8
ENDMDL
MODEL 7
REMARK VINA RESULT:      -6.4      9.452     13.223
REMARK  Name = pdb/CHEMBL3966169.pdb
REMARK                            x       y       z     vdW  Elec       q    Type
REMARK                         _______ _______ _______ _____ _____    ______ ____
ROOT
ATOM      1  C   LIG    1      -37.923  76.973  25.702  0.00  0.00    +0.149 A 
ATOM      2  N   LIG    1      -38.656  78.098  25.730  0.00  0.00    -0.160 NA
ATOM      3  N   LIG    1      -39.560  77.959  24.727  0.00  0.00    -0.218 N 
ATOM      4  C   LIG    1      -39.564  76.665  24.213  0.00  0.00    +0.129 A 
ATOM      5  C   LIG    1      -38.457  76.059  24.762  0.00  0.00    +0.078 A 
ENDROOT
BRANCH   3   6
ATOM      6  C   LIG    1      -40.356  79.065  24.318  0.00  0.00    +0.067 A 
ATOM      7  C   LIG    1      -41.718  79.093  24.654  0.00  0.00    +0.028 A 
ATOM      8  C   LIG    1      -42.516  80.166  24.256  0.00  0.00    +0.002 A 
ATOM      9  C   LIG    1      -41.956  81.232  23.555  0.00  0.00    +0.000 A 
ATOM     10  C   LIG    1      -40.595  81.230  23.252  0.00  0.00    +0.002 A 
ATOM     11  C   LIG    1      -39.793  80.150  23.628  0.00  0.00    +0.028 A 
ENDBRANCH   3   6
BRANCH   4  12
ATOM     12  N   LIG    1      -40.538  76.075  23.381  0.00  0.00    -0.266 N 
ATOM     13  H   LIG    1      -40.367  76.103  22.382  0.00  0.00    +0.157 HD
ATOM     14  C   LIG    1      -41.750  75.501  23.906  0.00  0.00    +0.251 C 
ATOM     15  O   LIG    1      -41.906  75.423  25.113  0.00  0.00    -0.270 OA
BRANCH  14  16
ATOM     16  C   LIG    1      -42.730  74.898  22.968  0.00  0.00    +0.056 A 
ATOM     17  C   LIG    1      -42.719  73.519  22.737  0.00  0.00    +0.054 A 
ATOM     18 CL   LIG    1      -41.874  72.390  23.737  0.00  0.00    -0.083 Cl
ATOM     19  C   LIG    1      -43.472  72.982  21.695  0.00  0.00    +0.041 A 
ATOM     20  C   LIG    1      -44.292  73.796  20.899  0.00  0.00    +0.052 A 
ATOM     21 CL   LIG    1      -45.226  72.947  19.716  0.00  0.00    -0.083 Cl
ATOM     22  C   LIG    1      -44.378  75.185  21.130  0.00  0.00    +0.022 A 
ATOM     23  C   LIG    1      -43.574  75.710  22.184  0.00  0.00    +0.026 A 
BRANCH  22  24
ATOM     24  C   LIG    1      -45.269  76.122  20.394  0.00  0.00    +0.107 A 
ATOM     25  C   LIG    1      -45.106  76.528  19.065  0.00  0.00    +0.149 A 
ATOM     26  F   LIG    1      -44.036  76.174  18.342  0.00  0.00    -0.203 F 
ATOM     27  C   LIG    1      -46.040  77.375  18.474  0.00  0.00    +0.042 A 
ATOM     28  C   LIG    1      -47.098  77.854  19.232  0.00  0.00    +0.023 A 
ATOM     29  C   LIG    1      -47.175  77.462  20.557  0.00  0.00    +0.111 A 
ATOM     30  N   LIG    1      -46.296  76.616  21.151  0.00  0.00    -0.252 NA
ENDBRANCH  22  24
ENDBRANCH  14  16
ENDBRANCH   4  12
BRANCH   1  31
ATOM     31  C   LIG    1      -36.774  76.730  26.581  0.00  0.00    +0.236 C 
ATOM     32  N   LIG    1      -36.275  77.696  27.251  0.00  0.00    -0.243 NA
BRANCH  31  33
ATOM     33  O   LIG    1      -36.313  75.457  26.596  0.00  0.00    -0.491 OA
ATOM     34  H   LIG    1      -36.047  75.141  25.725  0.00  0.00    +0.294 HD
ENDBRANCH  31  33
BRANCH  32  35
ATOM     35  C   LIG    1      -35.123  77.488  28.112  0.00  0.00    +0.201 C 
BRANCH  35  36
ATOM     36  C   LIG    1      -33.892  77.745  27.335  0.00  0.00    +0.077 A 
ATOM     37  N   LIG    1      -33.539  78.981  26.872  0.00  0.00    -0.260 N 
ATOM     38  H   LIG    1      -34.030  79.861  26.948  0.00  0.00    +0.190 HD
ATOM     39  N   LIG    1      -32.363  78.944  26.223  0.00  0.00    -0.068 NA
ATOM     40  N   LIG    1      -31.938  77.691  26.238  0.00  0.00    -0.138 NA
ATOM     41  C   LIG    1      -32.860  76.940  26.911  0.00  0.00    +0.161 A 
ENDBRANCH  35  36
ENDBRANCH  32  35
ENDBRANCH   1  31
TORSDOF 8
ENDMDL
MODEL 8
REMARK VINA RESULT:      -6.3     18.658     20.517
REMARK  Name = pdb/CHEMBL3966169.pdb
REMARK                            x       y       z     vdW  Elec       q    Type
REMARK                         _______ _______ _______ _____ _____    ______ ____
ROOT
ATOM      1  C   LIG    1      -20.640  82.457  14.082  0.00  0.00    +0.149 A 
ATOM      2  N   LIG    1      -21.874  82.203  14.546  0.00  0.00    -0.160 NA
ATOM      3  N   LIG    1      -22.032  80.861  14.419  0.00  0.00    -0.218 N 
ATOM      4  C   LIG    1      -20.833  80.228  14.099  0.00  0.00    +0.129 A 
ATOM      5  C   LIG    1      -19.964  81.249  13.787  0.00  0.00    +0.078 A 
ENDROOT
BRANCH   3   6
ATOM      6  C   LIG    1      -23.312  80.267  14.604  0.00  0.00    +0.067 A 
ATOM      7  C   LIG    1      -24.300  80.444  13.623  0.00  0.00    +0.028 A 
ATOM      8  C   LIG    1      -25.563  79.875  13.790  0.00  0.00    +0.002 A 
ATOM      9  C   LIG    1      -25.837  79.097  14.913  0.00  0.00    +0.000 A 
ATOM     10  C   LIG    1      -24.847  78.883  15.872  0.00  0.00    +0.002 A 
ATOM     11  C   LIG    1      -23.587  79.467  15.724  0.00  0.00    +0.028 A 
ENDBRANCH   3   6
BRANCH   4  12
ATOM     12  N   LIG    1      -20.546  78.850  14.165  0.00  0.00    -0.266 N 
ATOM     13  H   LIG    1      -21.022  78.249  13.502  0.00  0.00    +0.157 HD
ATOM     14  C   LIG    1      -19.660  78.297  15.157  0.00  0.00    +0.251 C 
ATOM     15  O   LIG    1      -19.051  79.044  15.904  0.00  0.00    -0.270 OA
BRANCH  14  16
ATOM     16  C   LIG    1      -19.406  76.834  15.165  0.00  0.00    +0.056 A 
ATOM     17  C   LIG    1      -18.658  76.250  14.137  0.00  0.00    +0.054 A 
ATOM     18 CL   LIG    1      -17.691  77.154  13.027  0.00  0.00    -0.083 Cl
ATOM     19  C   LIG    1      -18.613  74.862  14.014  0.00  0.00    +0.041 A 
ATOM     20  C   LIG    1      -19.262  74.031  14.938  0.00  0.00    +0.052 A 
ATOM     21 CL   LIG    1      -19.020  72.336  14.683  0.00  0.00    -0.083 Cl
ATOM     22  C   LIG    1      -19.983  74.574  16.022  0.00  0.00    +0.022 A 
ATOM     23  C   LIG    1      -20.036  75.996  16.107  0.00  0.00    +0.026 A 
BRANCH  22  24
ATOM     24  C   LIG    1      -20.642  73.782  17.095  0.00  0.00    +0.107 A 
ATOM     25  C   LIG    1      -22.017  73.745  17.352  0.00  0.00    +0.149 A 
ATOM     26  F   LIG    1      -22.883  74.526  16.694  0.00  0.00    -0.203 F 
ATOM     27  C   LIG    1      -22.517  72.923  18.359  0.00  0.00    +0.042 A 
ATOM     28  C   LIG    1      -21.635  72.189  19.138  0.00  0.00    +0.023 A 
ATOM     29  C   LIG    1      -20.282  72.311  18.873  0.00  0.00    +0.111 A 
ATOM     30  N   LIG    1      -19.769  73.082  17.880  0.00  0.00    -0.252 NA
ENDBRANCH  22  24
ENDBRANCH  14  16
ENDBRANCH   4  12
BRANCH   1  31
ATOM     31  C   LIG    1      -20.076  83.807  13.970  0.00  0.00    +0.236 C 
ATOM     32  N   LIG    1      -20.850  84.799  13.750  0.00  0.00    -0.243 NA
BRANCH  31  33
ATOM     33  O   LIG    1      -18.730  83.887  14.097  0.00  0.00    -0.491 OA
ATOM     34  H   LIG    1      -18.447  84.607  14.671  0.00  0.00    +0.294 HD
ENDBRANCH  31  33
BRANCH  32  35
ATOM     35  C   LIG    1      -20.316  86.144  13.611  0.00  0.00    +0.201 C 
BRANCH  35  36
ATOM     36  C   LIG    1      -21.170  87.079  14.372  0.00  0.00    +0.077 A 
ATOM     37  N   LIG    1      -21.092  87.235  15.727  0.00  0.00    -0.260 N 
ATOM     38  H   LIG    1      -20.505  86.758  16.398  0.00  0.00    +0.190 HD
ATOM     39  N   LIG    1      -21.956  88.167  16.164  0.00  0.00    -0.068 NA
ATOM     40  N   LIG    1      -22.618  88.622  15.112  0.00  0.00    -0.138 NA
ATOM     41  C   LIG    1      -22.154  87.967  14.006  0.00  0.00    +0.161 A 
ENDBRANCH  35  36
ENDBRANCH  32  35
ENDBRANCH   1  31
TORSDOF 8
ENDMDL
MODEL 9
REMARK VINA RESULT:      -6.3     18.839     21.681
REMARK  Name = pdb/CHEMBL3966169.pdb
REMARK                            x       y       z     vdW  Elec       q    Type
REMARK                         _______ _______ _______ _____ _____    ______ ____
ROOT
ATOM      1  C   LIG    1      -26.284  77.841  13.898  0.00  0.00    +0.149 A 
ATOM      2  N   LIG    1      -25.281  77.937  14.786  0.00  0.00    -0.160 NA
ATOM      3  N   LIG    1      -24.681  79.124  14.519  0.00  0.00    -0.218 N 
ATOM      4  C   LIG    1      -25.430  79.892  13.630  0.00  0.00    +0.129 A 
ATOM      5  C   LIG    1      -26.402  79.040  13.155  0.00  0.00    +0.078 A 
ENDROOT
BRANCH   3   6
ATOM      6  C   LIG    1      -23.433  79.452  15.120  0.00  0.00    +0.067 A 
ATOM      7  C   LIG    1      -23.352  80.562  15.973  0.00  0.00    +0.028 A 
ATOM      8  C   LIG    1      -22.136  80.902  16.566  0.00  0.00    +0.002 A 
ATOM      9  C   LIG    1      -21.005  80.119  16.343  0.00  0.00    +0.000 A 
ATOM     10  C   LIG    1      -21.088  78.991  15.527  0.00  0.00    +0.002 A 
ATOM     11  C   LIG    1      -22.297  78.655  14.912  0.00  0.00    +0.028 A 
ENDBRANCH   3   6
BRANCH   4  12
ATOM     12  N   LIG    1      -25.281  81.264  13.344  0.00  0.00    -0.266 N 
ATOM     13  H   LIG    1      -25.884  81.906  13.844  0.00  0.00    +0.157 HD
ATOM     14  C   LIG    1      -24.354  81.744  12.351  0.00  0.00    +0.251 C 
ATOM     15  O   LIG    1      -23.596  80.961  11.805  0.00  0.00    -0.270 OA
BRANCH  14  16
ATOM     16  C   LIG    1      -24.252  83.204  12.103  0.00  0.00    +0.056 A 
ATOM     17  C   LIG    1      -25.023  83.797  11.097  0.00  0.00    +0.054 A 
ATOM     18 CL   LIG    1      -26.368  83.018  10.340  0.00  0.00    -0.083 Cl
ATOM     19  C   LIG    1      -24.764  85.110  10.707  0.00  0.00    +0.041 A 
ATOM     20  C   LIG    1      -23.776  85.874  11.343  0.00  0.00    +0.052 A 
ATOM     21 CL   LIG    1      -23.659  87.510  10.792  0.00  0.00    -0.083 Cl
ATOM     22  C   LIG    1      -23.011  85.336  12.399  0.00  0.00    +0.022 A 
ATOM     23  C   LIG    1      -23.277  83.982  12.758  0.00  0.00    +0.026 A 
BRANCH  22  24
ATOM     24  C   LIG    1      -21.993  86.083  13.186  0.00  0.00    +0.107 A 
ATOM     25  C   LIG    1      -20.724  86.458  12.730  0.00  0.00    +0.149 A 
ATOM     26  F   LIG    1      -20.259  86.075  11.534  0.00  0.00    -0.203 F 
ATOM     27  C   LIG    1      -19.878  87.200  13.551  0.00  0.00    +0.042 A 
ATOM     28  C   LIG    1      -20.285  87.512  14.840  0.00  0.00    +0.023 A 
ATOM     29  C   LIG    1      -21.528  87.066  15.253  0.00  0.00    +0.111 A 
ATOM     30  N   LIG    1      -22.383  86.366  14.466  0.00  0.00    -0.252 NA
ENDBRANCH  22  24
ENDBRANCH  14  16
ENDBRANCH   4  12
BRANCH   1  31
ATOM     31  C   LIG    1      -27.160  76.669  13.784  0.00  0.00    +0.236 C 
ATOM     32  N   LIG    1      -27.126  75.955  12.725  0.00  0.00    -0.243 NA
BRANCH  31  33
ATOM     33  O   LIG    1      -27.971  76.445  14.845  0.00  0.00    -0.491 OA
ATOM     34  H   LIG    1      -27.654  75.739  15.421  0.00  0.00    +0.294 HD
ENDBRANCH  31  33
BRANCH  32  35
ATOM     35  C   LIG    1      -27.998  74.803  12.577  0.00  0.00    +0.201 C 
BRANCH  35  36
ATOM     36  C   LIG    1      -29.236  75.225  11.889  0.00  0.00    +0.077 A 
ATOM     37  N   LIG    1      -30.436  74.588  12.041  0.00  0.00    -0.260 N 
ATOM     38  H   LIG    1      -30.664  73.767  12.584  0.00  0.00    +0.190 HD
ATOM     39  N   LIG    1      -31.404  75.190  11.329  0.00  0.00    -0.068 NA
ATOM     40  N   LIG    1      -30.855  76.213  10.694  0.00  0.00    -0.138 NA
ATOM     41  C   LIG    1      -29.529  76.251  11.020  0.00  0.00    +0.161 A 
ENDBRANCH  35  36
ENDBRANCH  32  35
ENDBRANCH   1  31
TORSDOF 8
ENDMDL
