MODEL 1
REMARK VINA RESULT:      -6.2      0.000      0.000
REMARK  Name = pdb/CHEMBL3671151.pdb
REMARK                            x       y       z     vdW  Elec       q    Type
REMARK                         _______ _______ _______ _____ _____    ______ ____
ROOT
ATOM      1  C   LIG    1      -25.366  77.554  32.517  0.00  0.00    +0.100 A 
ATOM      2  C   LIG    1      -24.897  78.251  33.624  0.00  0.00    +0.170 A 
ATOM      3  N   LIG    1      -23.765  79.015  33.838  0.00  0.00    -0.212 NA
ATOM      4  C   LIG    1      -23.567  79.517  35.043  0.00  0.00    +0.126 A 
ATOM      5  C   LIG    1      -24.555  79.283  36.166  0.00  0.00    +0.063 A 
ATOM      6  C   LIG    1      -25.637  78.548  35.903  0.00  0.00    +0.118 A 
ATOM      7  N   LIG    1      -25.826  78.020  34.641  0.00  0.00    -0.221 N 
ATOM      8  N   LIG    1      -26.845  77.228  34.245  0.00  0.00    -0.173 NA
ATOM      9  C   LIG    1      -26.543  76.918  32.985  0.00  0.00    +0.150 A 
ENDROOT
BRANCH   4  10
ATOM     10  N   LIG    1      -22.427  80.272  35.311  0.00  0.00    -0.308 N 
ATOM     11  C   LIG    1      -21.235  79.703  35.959  0.00  0.00    +0.108 C 
ATOM     12  C   LIG    1      -20.752  80.844  36.869  0.00  0.00    +0.029 C 
ATOM     13  C   LIG    1      -21.073  82.086  36.057  0.00  0.00    +0.021 C 
ATOM     14  C   LIG    1      -22.426  81.733  35.452  0.00  0.00    +0.107 C 
BRANCH  11  15
ATOM     15  C   LIG    1      -20.176  79.286  34.958  0.00  0.00    +0.011 A 
ATOM     16  C   LIG    1      -18.887  79.013  35.431  0.00  0.00    +0.129 A 
ATOM     17  F   LIG    1      -18.601  79.211  36.727  0.00  0.00    -0.205 F 
ATOM     18  C   LIG    1      -17.879  78.545  34.590  0.00  0.00    +0.041 A 
ATOM     19  C   LIG    1      -18.136  78.385  33.233  0.00  0.00    +0.041 A 
ATOM     20  C   LIG    1      -19.386  78.730  32.732  0.00  0.00    +0.124 A 
ATOM     21  F   LIG    1      -19.617  78.636  31.417  0.00  0.00    -0.205 F 
ATOM     22  C   LIG    1      -20.403  79.171  33.576  0.00  0.00    +0.046 A 
ENDBRANCH  11  15
ENDBRANCH   4  10
BRANCH   1  25
ATOM     23  N   LIG    1      -23.452  77.678  31.099  0.00  0.00    -0.311 N 
ATOM     24  H   LIG    1      -22.963  77.845  31.973  0.00  0.00    +0.149 HD
ATOM     25  C   LIG    1      -24.812  77.446  31.177  0.00  0.00    +0.249 C 
ATOM     26  O   LIG    1      -25.508  77.189  30.207  0.00  0.00    -0.270 OA
BRANCH  23  27
ATOM     27  C   LIG    1      -22.677  77.533  29.877  0.00  0.00    +0.110 C 
BRANCH  27  28
ATOM     28  C   LIG    1      -22.118  76.119  29.662  0.00  0.00    +0.073 C 
BRANCH  28  31
ATOM     29  C   LIG    1      -23.932  73.886  30.914  0.00  0.00    +0.150 C 
ATOM     30  N   LIG    1      -22.736  74.446  31.492  0.00  0.00    -0.337 N 
ATOM     31  C   LIG    1      -21.906  75.400  30.956  0.00  0.00    +0.039 A 
ATOM     32  C   LIG    1      -20.888  75.523  31.885  0.00  0.00    +0.133 A 
ATOM     33  N   LIG    1      -21.090  74.695  32.956  0.00  0.00    -0.244 NA
ATOM     34  C   LIG    1      -22.208  74.062  32.694  0.00  0.00    +0.199 A 
ENDBRANCH  28  31
ENDBRANCH  27  28
ENDBRANCH  23  27
ENDBRANCH   1  25
TORSDOF 6
ENDMDL
MODEL 2
REMARK VINA RESULT:      -6.0     14.330     18.383
REMARK  Name = pdb/CHEMBL3671151.pdb
REMARK                            x       y       z     vdW  Elec       q    Type
REMARK                         _______ _______ _______ _____ _____    ______ ____
ROOT
ATOM      1  C   LIG    1      -35.465  70.345  26.150  0.00  0.00    +0.100 A 
ATOM      2  C   LIG    1      -36.574  70.542  25.337  0.00  0.00    +0.170 A 
ATOM      3  N   LIG    1      -37.632  71.429  25.396  0.00  0.00    -0.212 NA
ATOM      4  C   LIG    1      -38.582  71.333  24.484  0.00  0.00    +0.126 A 
ATOM      5  C   LIG    1      -38.517  70.294  23.386  0.00  0.00    +0.063 A 
ATOM      6  C   LIG    1      -37.469  69.469  23.368  0.00  0.00    +0.118 A 
ATOM      7  N   LIG    1      -36.488  69.573  24.334  0.00  0.00    -0.221 N 
ATOM      8  N   LIG    1      -35.400  68.785  24.464  0.00  0.00    -0.173 NA
ATOM      9  C   LIG    1      -34.814  69.224  25.577  0.00  0.00    +0.150 A 
ENDROOT
BRANCH   4  10
ATOM     10  N   LIG    1      -39.679  72.191  24.520  0.00  0.00    -0.308 N 
ATOM     11  C   LIG    1      -39.823  73.250  25.531  0.00  0.00    +0.108 C 
ATOM     12  C   LIG    1      -41.330  73.239  25.838  0.00  0.00    +0.029 C 
ATOM     13  C   LIG    1      -41.949  72.916  24.490  0.00  0.00    +0.021 C 
ATOM     14  C   LIG    1      -40.989  71.872  23.937  0.00  0.00    +0.107 C 
BRANCH  11  15
ATOM     15  C   LIG    1      -39.355  74.600  25.025  0.00  0.00    +0.011 A 
ATOM     16  C   LIG    1      -38.077  75.039  25.392  0.00  0.00    +0.129 A 
ATOM     17  F   LIG    1      -37.345  74.306  26.243  0.00  0.00    -0.205 F 
ATOM     18  C   LIG    1      -37.540  76.227  24.902  0.00  0.00    +0.041 A 
ATOM     19  C   LIG    1      -38.303  77.032  24.062  0.00  0.00    +0.041 A 
ATOM     20  C   LIG    1      -39.604  76.652  23.754  0.00  0.00    +0.124 A 
ATOM     21  F   LIG    1      -40.362  77.455  22.997  0.00  0.00    -0.205 F 
ATOM     22  C   LIG    1      -40.132  75.450  24.220  0.00  0.00    +0.046 A 
ENDBRANCH  11  15
ENDBRANCH   4  10
BRANCH   1  25
ATOM     23  N   LIG    1      -35.133  72.443  27.235  0.00  0.00    -0.311 N 
ATOM     24  H   LIG    1      -35.542  72.813  26.382  0.00  0.00    +0.149 HD
ATOM     25  C   LIG    1      -35.034  71.068  27.336  0.00  0.00    +0.249 C 
ATOM     26  O   LIG    1      -34.604  70.495  28.323  0.00  0.00    -0.270 OA
BRANCH  23  27
ATOM     27  C   LIG    1      -34.845  73.355  28.330  0.00  0.00    +0.110 C 
BRANCH  27  28
ATOM     28  C   LIG    1      -33.511  74.099  28.182  0.00  0.00    +0.073 C 
BRANCH  28  31
ATOM     29  C   LIG    1      -31.616  76.444  29.053  0.00  0.00    +0.150 C 
ATOM     30  N   LIG    1      -32.875  76.568  28.362  0.00  0.00    -0.337 N 
ATOM     31  C   LIG    1      -33.710  75.562  27.940  0.00  0.00    +0.039 A 
ATOM     32  C   LIG    1      -34.733  76.224  27.286  0.00  0.00    +0.133 A 
ATOM     33  N   LIG    1      -34.548  77.580  27.316  0.00  0.00    -0.244 NA
ATOM     34  C   LIG    1      -33.425  77.758  27.971  0.00  0.00    +0.199 A 
ENDBRANCH  28  31
ENDBRANCH  27  28
ENDBRANCH  23  27
ENDBRANCH   1  25
TORSDOF 6
ENDMDL
MODEL 3
REMARK VINA RESULT:      -6.0      2.067      6.284
REMARK  Name = pdb/CHEMBL3671151.pdb
REMARK                            x       y       z     vdW  Elec       q    Type
REMARK                         _______ _______ _______ _____ _____    ______ ____
ROOT
ATOM      1  C   LIG    1      -24.073  77.947  32.109  0.00  0.00    +0.100 A 
ATOM      2  C   LIG    1      -22.869  77.494  31.584  0.00  0.00    +0.170 A 
ATOM      3  N   LIG    1      -21.584  77.451  32.089  0.00  0.00    -0.212 NA
ATOM      4  C   LIG    1      -20.618  77.000  31.311  0.00  0.00    +0.126 A 
ATOM      5  C   LIG    1      -20.901  76.521  29.903  0.00  0.00    +0.063 A 
ATOM      6  C   LIG    1      -22.161  76.572  29.467  0.00  0.00    +0.118 A 
ATOM      7  N   LIG    1      -23.159  77.057  30.289  0.00  0.00    -0.221 N 
ATOM      8  N   LIG    1      -24.463  77.205  29.969  0.00  0.00    -0.173 NA
ATOM      9  C   LIG    1      -24.997  77.778  31.047  0.00  0.00    +0.150 A 
ENDROOT
BRANCH   4  10
ATOM     10  N   LIG    1      -19.304  76.963  31.771  0.00  0.00    -0.308 N 
ATOM     11  C   LIG    1      -18.593  78.167  32.233  0.00  0.00    +0.108 C 
ATOM     12  C   LIG    1      -17.160  77.946  31.720  0.00  0.00    +0.029 C 
ATOM     13  C   LIG    1      -16.979  76.444  31.853  0.00  0.00    +0.021 C 
ATOM     14  C   LIG    1      -18.339  75.916  31.414  0.00  0.00    +0.107 C 
BRANCH  11  15
ATOM     15  C   LIG    1      -18.641  78.323  33.739  0.00  0.00    +0.011 A 
ATOM     16  C   LIG    1      -19.537  79.252  34.281  0.00  0.00    +0.129 A 
ATOM     17  F   LIG    1      -20.257  80.033  33.462  0.00  0.00    -0.205 F 
ATOM     18  C   LIG    1      -19.702  79.398  35.657  0.00  0.00    +0.041 A 
ATOM     19  C   LIG    1      -18.926  78.638  36.527  0.00  0.00    +0.041 A 
ATOM     20  C   LIG    1      -17.973  77.771  36.006  0.00  0.00    +0.124 A 
ATOM     21  F   LIG    1      -17.182  77.085  36.840  0.00  0.00    -0.205 F 
ATOM     22  C   LIG    1      -17.827  77.603  34.631  0.00  0.00    +0.046 A 
ENDBRANCH  11  15
ENDBRANCH   4  10
BRANCH   1  25
ATOM     23  N   LIG    1      -23.336  79.214  33.991  0.00  0.00    -0.311 N 
ATOM     24  H   LIG    1      -22.497  79.334  33.430  0.00  0.00    +0.149 HD
ATOM     25  C   LIG    1      -24.372  78.499  33.421  0.00  0.00    +0.249 C 
ATOM     26  O   LIG    1      -25.447  78.320  33.969  0.00  0.00    -0.270 OA
BRANCH  23  27
ATOM     27  C   LIG    1      -23.446  79.928  35.253  0.00  0.00    +0.110 C 
BRANCH  27  28
ATOM     28  C   LIG    1      -22.804  81.322  35.234  0.00  0.00    +0.073 C 
BRANCH  28  31
ATOM     29  C   LIG    1      -21.105  82.076  37.763  0.00  0.00    +0.150 C 
ATOM     30  N   LIG    1      -22.477  82.441  37.509  0.00  0.00    -0.337 N 
ATOM     31  C   LIG    1      -23.236  82.153  36.400  0.00  0.00    +0.039 A 
ATOM     32  C   LIG    1      -24.443  82.785  36.644  0.00  0.00    +0.133 A 
ATOM     33  N   LIG    1      -24.435  83.421  37.856  0.00  0.00    -0.244 NA
ATOM     34  C   LIG    1      -23.243  83.195  38.354  0.00  0.00    +0.199 A 
ENDBRANCH  28  31
ENDBRANCH  27  28
ENDBRANCH  23  27
ENDBRANCH   1  25
TORSDOF 6
ENDMDL
MODEL 4
REMARK VINA RESULT:      -5.9      2.228      4.943
REMARK  Name = pdb/CHEMBL3671151.pdb
REMARK                            x       y       z     vdW  Elec       q    Type
REMARK                         _______ _______ _______ _____ _____    ______ ____
ROOT
ATOM      1  C   LIG    1      -20.579  77.228  30.880  0.00  0.00    +0.100 A 
ATOM      2  C   LIG    1      -20.479  77.909  32.087  0.00  0.00    +0.170 A 
ATOM      3  N   LIG    1      -21.425  78.413  32.958  0.00  0.00    -0.212 NA
ATOM      4  C   LIG    1      -21.009  79.072  34.024  0.00  0.00    +0.126 A 
ATOM      5  C   LIG    1      -19.534  79.263  34.304  0.00  0.00    +0.063 A 
ATOM      6  C   LIG    1      -18.661  78.746  33.437  0.00  0.00    +0.118 A 
ATOM      7  N   LIG    1      -19.111  78.069  32.322  0.00  0.00    -0.221 N 
ATOM      8  N   LIG    1      -18.349  77.533  31.344  0.00  0.00    -0.173 NA
ATOM      9  C   LIG    1      -19.234  77.069  30.463  0.00  0.00    +0.150 A 
ENDROOT
BRANCH   4  10
ATOM     10  N   LIG    1      -21.929  79.620  34.915  0.00  0.00    -0.308 N 
ATOM     11  C   LIG    1      -21.861  79.386  36.366  0.00  0.00    +0.108 C 
ATOM     12  C   LIG    1      -23.339  79.265  36.771  0.00  0.00    +0.029 C 
ATOM     13  C   LIG    1      -24.026  80.257  35.850  0.00  0.00    +0.021 C 
ATOM     14  C   LIG    1      -23.282  80.046  34.538  0.00  0.00    +0.107 C 
BRANCH  11  15
ATOM     15  C   LIG    1      -21.158  80.510  37.101  0.00  0.00    +0.011 A 
ATOM     16  C   LIG    1      -20.544  80.220  38.325  0.00  0.00    +0.129 A 
ATOM     17  F   LIG    1      -20.668  78.994  38.854  0.00  0.00    -0.205 F 
ATOM     18  C   LIG    1      -19.808  81.176  39.023  0.00  0.00    +0.041 A 
ATOM     19  C   LIG    1      -19.713  82.470  38.522  0.00  0.00    +0.041 A 
ATOM     20  C   LIG    1      -20.385  82.797  37.350  0.00  0.00    +0.124 A 
ATOM     21  F   LIG    1      -20.347  84.056  36.899  0.00  0.00    -0.205 F 
ATOM     22  C   LIG    1      -21.098  81.835  36.637  0.00  0.00    +0.046 A 
ENDBRANCH  11  15
ENDBRANCH   4  10
BRANCH   1  25
ATOM     23  N   LIG    1      -22.908  76.714  30.915  0.00  0.00    -0.311 N 
ATOM     24  H   LIG    1      -22.841  77.031  31.877  0.00  0.00    +0.149 HD
ATOM     25  C   LIG    1      -21.756  76.780  30.153  0.00  0.00    +0.249 C 
ATOM     26  O   LIG    1      -21.712  76.473  28.973  0.00  0.00    -0.270 OA
BRANCH  23  27
ATOM     27  C   LIG    1      -24.216  76.381  30.373  0.00  0.00    +0.110 C 
BRANCH  27  28
ATOM     28  C   LIG    1      -25.043  75.456  31.276  0.00  0.00    +0.073 C 
BRANCH  28  31
ATOM     29  C   LIG    1      -24.349  76.461  34.167  0.00  0.00    +0.150 C 
ATOM     30  N   LIG    1      -25.605  76.625  33.479  0.00  0.00    -0.337 N 
ATOM     31  C   LIG    1      -25.928  76.225  32.204  0.00  0.00    +0.039 A 
ATOM     32  C   LIG    1      -27.222  76.680  32.025  0.00  0.00    +0.133 A 
ATOM     33  N   LIG    1      -27.684  77.319  33.144  0.00  0.00    -0.244 NA
ATOM     34  C   LIG    1      -26.692  77.268  34.002  0.00  0.00    +0.199 A 
ENDBRANCH  28  31
ENDBRANCH  27  28
ENDBRANCH  23  27
ENDBRANCH   1  25
TORSDOF 6
ENDMDL
MODEL 5
REMARK VINA RESULT:      -5.8     13.408     16.759
REMARK  Name = pdb/CHEMBL3671151.pdb
REMARK                            x       y       z     vdW  Elec       q    Type
REMARK                         _______ _______ _______ _____ _____    ______ ____
ROOT
ATOM      1  C   LIG    1      -36.177  83.079  27.266  0.00  0.00    +0.100 A 
ATOM      2  C   LIG    1      -35.524  81.992  27.834  0.00  0.00    +0.170 A 
ATOM      3  N   LIG    1      -34.842  80.920  27.290  0.00  0.00    -0.212 NA
ATOM      4  C   LIG    1      -34.364  80.001  28.108  0.00  0.00    +0.126 A 
ATOM      5  C   LIG    1      -34.538  80.114  29.607  0.00  0.00    +0.063 A 
ATOM      6  C   LIG    1      -35.193  81.174  30.082  0.00  0.00    +0.118 A 
ATOM      7  N   LIG    1      -35.697  82.123  29.215  0.00  0.00    -0.221 N 
ATOM      8  N   LIG    1      -36.413  83.218  29.548  0.00  0.00    -0.173 NA
ATOM      9  C   LIG    1      -36.734  83.763  28.376  0.00  0.00    +0.150 A 
ENDROOT
BRANCH   4  10
ATOM     10  N   LIG    1      -33.693  78.890  27.601  0.00  0.00    -0.308 N 
ATOM     11  C   LIG    1      -33.515  77.651  28.374  0.00  0.00    +0.108 C 
ATOM     12  C   LIG    1      -32.100  77.194  27.984  0.00  0.00    +0.029 C 
ATOM     13  C   LIG    1      -32.000  77.602  26.526  0.00  0.00    +0.021 C 
ATOM     14  C   LIG    1      -32.699  78.956  26.522  0.00  0.00    +0.107 C 
BRANCH  11  15
ATOM     15  C   LIG    1      -34.562  76.607  28.041  0.00  0.00    +0.011 A 
ATOM     16  C   LIG    1      -34.562  75.411  28.769  0.00  0.00    +0.129 A 
ATOM     17  F   LIG    1      -33.593  75.184  29.668  0.00  0.00    -0.205 F 
ATOM     18  C   LIG    1      -35.539  74.436  28.581  0.00  0.00    +0.041 A 
ATOM     19  C   LIG    1      -36.522  74.625  27.615  0.00  0.00    +0.041 A 
ATOM     20  C   LIG    1      -36.490  75.769  26.827  0.00  0.00    +0.124 A 
ATOM     21  F   LIG    1      -37.396  75.925  25.854  0.00  0.00    -0.205 F 
ATOM     22  C   LIG    1      -35.529  76.758  27.032  0.00  0.00    +0.046 A 
ENDBRANCH  11  15
ENDBRANCH   4  10
BRANCH   1  25
ATOM     23  N   LIG    1      -37.597  83.353  25.370  0.00  0.00    -0.311 N 
ATOM     24  H   LIG    1      -38.323  83.074  26.023  0.00  0.00    +0.149 HD
ATOM     25  C   LIG    1      -36.313  83.463  25.870  0.00  0.00    +0.249 C 
ATOM     26  O   LIG    1      -35.360  83.831  25.203  0.00  0.00    -0.270 OA
BRANCH  23  27
ATOM     27  C   LIG    1      -37.979  83.770  24.030  0.00  0.00    +0.110 C 
BRANCH  27  28
ATOM     28  C   LIG    1      -38.920  84.982  24.002  0.00  0.00    +0.073 C 
BRANCH  28  31
ATOM     29  C   LIG    1      -39.823  87.371  22.179  0.00  0.00    +0.150 C 
ATOM     30  N   LIG    1      -38.591  87.274  22.920  0.00  0.00    -0.337 N 
ATOM     31  C   LIG    1      -38.182  86.258  23.750  0.00  0.00    +0.039 A 
ATOM     32  C   LIG    1      -36.967  86.695  24.246  0.00  0.00    +0.133 A 
ATOM     33  N   LIG    1      -36.632  87.920  23.734  0.00  0.00    -0.244 NA
ATOM     34  C   LIG    1      -37.624  88.241  22.939  0.00  0.00    +0.199 A 
ENDBRANCH  28  31
ENDBRANCH  27  28
ENDBRANCH  23  27
ENDBRANCH   1  25
TORSDOF 6
ENDMDL
MODEL 6
REMARK VINA RESULT:      -5.7      2.579      5.445
REMARK  Name = pdb/CHEMBL3671151.pdb
REMARK                            x       y       z     vdW  Elec       q    Type
REMARK                         _______ _______ _______ _____ _____    ______ ____
ROOT
ATOM      1  C   LIG    1      -22.982  77.161  30.706  0.00  0.00    +0.100 A 
ATOM      2  C   LIG    1      -21.950  77.563  31.545  0.00  0.00    +0.170 A 
ATOM      3  N   LIG    1      -21.932  78.063  32.833  0.00  0.00    -0.212 NA
ATOM      4  C   LIG    1      -20.769  78.410  33.355  0.00  0.00    +0.126 A 
ATOM      5  C   LIG    1      -19.480  78.253  32.578  0.00  0.00    +0.063 A 
ATOM      6  C   LIG    1      -19.551  77.754  31.343  0.00  0.00    +0.118 A 
ATOM      7  N   LIG    1      -20.775  77.405  30.806  0.00  0.00    -0.221 N 
ATOM      8  N   LIG    1      -21.002  76.931  29.562  0.00  0.00    -0.173 NA
ATOM      9  C   LIG    1      -22.328  76.827  29.494  0.00  0.00    +0.150 A 
ENDROOT
BRANCH   4  10
ATOM     10  N   LIG    1      -20.707  78.943  34.640  0.00  0.00    -0.308 N 
ATOM     11  C   LIG    1      -21.348  80.218  35.001  0.00  0.00    +0.108 C 
ATOM     12  C   LIG    1      -20.343  80.852  35.977  0.00  0.00    +0.029 C 
ATOM     13  C   LIG    1      -19.791  79.650  36.723  0.00  0.00    +0.021 C 
ATOM     14  C   LIG    1      -19.658  78.615  35.614  0.00  0.00    +0.107 C 
BRANCH  11  15
ATOM     15  C   LIG    1      -22.711  80.022  35.634  0.00  0.00    +0.011 A 
ATOM     16  C   LIG    1      -23.500  81.153  35.872  0.00  0.00    +0.129 A 
ATOM     17  F   LIG    1      -23.002  82.373  35.621  0.00  0.00    -0.205 F 
ATOM     18  C   LIG    1      -24.796  81.052  36.374  0.00  0.00    +0.041 A 
ATOM     19  C   LIG    1      -25.314  79.801  36.693  0.00  0.00    +0.041 A 
ATOM     20  C   LIG    1      -24.514  78.675  36.541  0.00  0.00    +0.124 A 
ATOM     21  F   LIG    1      -24.987  77.477  36.906  0.00  0.00    -0.205 F 
ATOM     22  C   LIG    1      -23.228  78.772  36.013  0.00  0.00    +0.046 A 
ENDBRANCH  11  15
ENDBRANCH   4  10
BRANCH   1  25
ATOM     23  N   LIG    1      -24.766  77.006  32.282  0.00  0.00    -0.311 N 
ATOM     24  H   LIG    1      -24.010  77.044  32.960  0.00  0.00    +0.149 HD
ATOM     25  C   LIG    1      -24.414  77.100  30.949  0.00  0.00    +0.249 C 
ATOM     26  O   LIG    1      -25.227  77.111  30.038  0.00  0.00    -0.270 OA
BRANCH  23  27
ATOM     27  C   LIG    1      -26.140  77.024  32.759  0.00  0.00    +0.110 C 
BRANCH  27  28
ATOM     28  C   LIG    1      -26.810  75.644  32.769  0.00  0.00    +0.073 C 
BRANCH  28  31
ATOM     29  C   LIG    1      -28.860  73.279  32.542  0.00  0.00    +0.150 C 
ATOM     30  N   LIG    1      -29.008  74.601  31.987  0.00  0.00    -0.337 N 
ATOM     31  C   LIG    1      -28.145  75.665  32.096  0.00  0.00    +0.039 A 
ATOM     32  C   LIG    1      -28.793  76.695  31.439  0.00  0.00    +0.133 A 
ATOM     33  N   LIG    1      -29.997  76.283  30.933  0.00  0.00    -0.244 NA
ATOM     34  C   LIG    1      -30.098  75.021  31.274  0.00  0.00    +0.199 A 
ENDBRANCH  28  31
ENDBRANCH  27  28
ENDBRANCH  23  27
ENDBRANCH   1  25
TORSDOF 6
ENDMDL
MODEL 7
REMARK VINA RESULT:      -5.6     13.532     16.475
REMARK  Name = pdb/CHEMBL3671151.pdb
REMARK                            x       y       z     vdW  Elec       q    Type
REMARK                         _______ _______ _______ _____ _____    ______ ____
ROOT
ATOM      1  C   LIG    1      -39.790  74.982  24.513  0.00  0.00    +0.100 A 
ATOM      2  C   LIG    1      -39.228  75.891  25.400  0.00  0.00    +0.170 A 
ATOM      3  N   LIG    1      -38.275  75.764  26.392  0.00  0.00    -0.212 NA
ATOM      4  C   LIG    1      -37.981  76.826  27.119  0.00  0.00    +0.126 A 
ATOM      5  C   LIG    1      -38.651  78.160  26.871  0.00  0.00    +0.063 A 
ATOM      6  C   LIG    1      -39.556  78.232  25.893  0.00  0.00    +0.118 A 
ATOM      7  N   LIG    1      -39.862  77.111  25.148  0.00  0.00    -0.221 N 
ATOM      8  N   LIG    1      -40.781  77.026  24.162  0.00  0.00    -0.173 NA
ATOM      9  C   LIG    1      -40.764  75.740  23.815  0.00  0.00    +0.150 A 
ENDROOT
BRANCH   4  10
ATOM     10  N   LIG    1      -37.044  76.737  28.147  0.00  0.00    -0.308 N 
ATOM     11  C   LIG    1      -35.693  76.192  27.941  0.00  0.00    +0.108 C 
ATOM     12  C   LIG    1      -35.426  75.416  29.241  0.00  0.00    +0.029 C 
ATOM     13  C   LIG    1      -36.120  76.264  30.292  0.00  0.00    +0.021 C 
ATOM     14  C   LIG    1      -37.393  76.690  29.572  0.00  0.00    +0.107 C 
BRANCH  11  15
ATOM     15  C   LIG    1      -34.662  77.277  27.704  0.00  0.00    +0.011 A 
ATOM     16  C   LIG    1      -33.440  76.916  27.122  0.00  0.00    +0.129 A 
ATOM     17  F   LIG    1      -33.181  75.623  26.876  0.00  0.00    -0.205 F 
ATOM     18  C   LIG    1      -32.473  77.864  26.795  0.00  0.00    +0.041 A 
ATOM     19  C   LIG    1      -32.697  79.205  27.092  0.00  0.00    +0.041 A 
ATOM     20  C   LIG    1      -33.868  79.570  27.745  0.00  0.00    +0.124 A 
ATOM     21  F   LIG    1      -34.059  80.850  28.088  0.00  0.00    -0.205 F 
ATOM     22  C   LIG    1      -34.849  78.627  28.047  0.00  0.00    +0.046 A 
ENDBRANCH  11  15
ENDBRANCH   4  10
BRANCH   1  25
ATOM     23  N   LIG    1      -38.228  73.187  24.676  0.00  0.00    -0.311 N 
ATOM     24  H   LIG    1      -37.634  73.900  25.088  0.00  0.00    +0.149 HD
ATOM     25  C   LIG    1      -39.507  73.569  24.316  0.00  0.00    +0.249 C 
ATOM     26  O   LIG    1      -40.333  72.801  23.853  0.00  0.00    -0.270 OA
BRANCH  23  27
ATOM     27  C   LIG    1      -37.760  71.810  24.650  0.00  0.00    +0.110 C 
BRANCH  27  28
ATOM     28  C   LIG    1      -37.122  71.348  25.967  0.00  0.00    +0.073 C 
BRANCH  28  31
ATOM     29  C   LIG    1      -37.223  68.249  25.482  0.00  0.00    +0.150 C 
ATOM     30  N   LIG    1      -36.040  69.069  25.557  0.00  0.00    -0.337 N 
ATOM     31  C   LIG    1      -35.965  70.430  25.736  0.00  0.00    +0.039 A 
ATOM     32  C   LIG    1      -34.611  70.705  25.669  0.00  0.00    +0.133 A 
ATOM     33  N   LIG    1      -33.880  69.564  25.473  0.00  0.00    -0.244 NA
ATOM     34  C   LIG    1      -34.764  68.597  25.412  0.00  0.00    +0.199 A 
ENDBRANCH  28  31
ENDBRANCH  27  28
ENDBRANCH  23  27
ENDBRANCH   1  25
TORSDOF 6
ENDMDL
MODEL 8
REMARK VINA RESULT:      -5.6      2.508      5.974
REMARK  Name = pdb/CHEMBL3671151.pdb
REMARK                            x       y       z     vdW  Elec       q    Type
REMARK                         _______ _______ _______ _____ _____    ______ ____
ROOT
ATOM      1  C   LIG    1      -22.993  80.010  35.344  0.00  0.00    +0.100 A 
ATOM      2  C   LIG    1      -22.158  79.410  34.410  0.00  0.00    +0.170 A 
ATOM      3  N   LIG    1      -22.389  78.499  33.397  0.00  0.00    -0.212 NA
ATOM      4  C   LIG    1      -21.358  78.066  32.695  0.00  0.00    +0.126 A 
ATOM      5  C   LIG    1      -19.955  78.561  32.972  0.00  0.00    +0.063 A 
ATOM      6  C   LIG    1      -19.787  79.449  33.953  0.00  0.00    +0.118 A 
ATOM      7  N   LIG    1      -20.873  79.884  34.687  0.00  0.00    -0.221 N 
ATOM      8  N   LIG    1      -20.849  80.742  35.729  0.00  0.00    -0.173 NA
ATOM      9  C   LIG    1      -22.113  80.781  36.146  0.00  0.00    +0.150 A 
ENDROOT
BRANCH   4  10
ATOM     10  N   LIG    1      -21.542  77.129  31.681  0.00  0.00    -0.308 N 
ATOM     11  C   LIG    1      -20.513  76.847  30.667  0.00  0.00    +0.108 C 
ATOM     12  C   LIG    1      -21.334  76.628  29.386  0.00  0.00    +0.029 C 
ATOM     13  C   LIG    1      -22.588  75.943  29.899  0.00  0.00    +0.021 C 
ATOM     14  C   LIG    1      -22.857  76.693  31.196  0.00  0.00    +0.107 C 
BRANCH  11  15
ATOM     15  C   LIG    1      -19.672  75.636  31.019  0.00  0.00    +0.011 A 
ATOM     16  C   LIG    1      -18.345  75.598  30.573  0.00  0.00    +0.129 A 
ATOM     17  F   LIG    1      -17.885  76.577  29.781  0.00  0.00    -0.205 F 
ATOM     18  C   LIG    1      -17.482  74.561  30.922  0.00  0.00    +0.041 A 
ATOM     19  C   LIG    1      -17.953  73.506  31.696  0.00  0.00    +0.041 A 
ATOM     20  C   LIG    1      -19.289  73.486  32.078  0.00  0.00    +0.124 A 
ATOM     21  F   LIG    1      -19.761  72.442  32.770  0.00  0.00    -0.205 F 
ATOM     22  C   LIG    1      -20.146  74.536  31.754  0.00  0.00    +0.046 A 
ENDBRANCH  11  15
ENDBRANCH   4  10
BRANCH   1  25
ATOM     23  N   LIG    1      -24.965  78.690  35.109  0.00  0.00    -0.311 N 
ATOM     24  H   LIG    1      -24.311  77.988  34.776  0.00  0.00    +0.149 HD
ATOM     25  C   LIG    1      -24.431  79.895  35.524  0.00  0.00    +0.249 C 
ATOM     26  O   LIG    1      -25.101  80.805  35.986  0.00  0.00    -0.270 OA
BRANCH  23  27
ATOM     27  C   LIG    1      -26.363  78.325  35.280  0.00  0.00    +0.110 C 
BRANCH  27  28
ATOM     28  C   LIG    1      -26.658  76.849  34.978  0.00  0.00    +0.073 C 
BRANCH  28  31
ATOM     29  C   LIG    1      -29.401  75.710  33.962  0.00  0.00    +0.150 C 
ATOM     30  N   LIG    1      -28.282  76.112  33.146  0.00  0.00    -0.337 N 
ATOM     31  C   LIG    1      -27.083  76.643  33.559  0.00  0.00    +0.039 A 
ATOM     32  C   LIG    1      -26.406  76.903  32.381  0.00  0.00    +0.133 A 
ATOM     33  N   LIG    1      -27.146  76.535  31.290  0.00  0.00    -0.244 NA
ATOM     34  C   LIG    1      -28.267  76.061  31.780  0.00  0.00    +0.199 A 
ENDBRANCH  28  31
ENDBRANCH  27  28
ENDBRANCH  23  27
ENDBRANCH   1  25
TORSDOF 6
ENDMDL
MODEL 9
REMARK VINA RESULT:      -5.5     16.071     20.129
REMARK  Name = pdb/CHEMBL3671151.pdb
REMARK                            x       y       z     vdW  Elec       q    Type
REMARK                         _______ _______ _______ _____ _____    ______ ____
ROOT
ATOM      1  C   LIG    1      -35.283  67.537  23.184  0.00  0.00    +0.100 A 
ATOM      2  C   LIG    1      -36.382  67.992  22.466  0.00  0.00    +0.170 A 
ATOM      3  N   LIG    1      -37.520  68.684  22.835  0.00  0.00    -0.212 NA
ATOM      4  C   LIG    1      -38.431  68.932  21.911  0.00  0.00    +0.126 A 
ATOM      5  C   LIG    1      -38.237  68.490  20.477  0.00  0.00    +0.063 A 
ATOM      6  C   LIG    1      -37.116  67.835  20.171  0.00  0.00    +0.118 A 
ATOM      7  N   LIG    1      -36.177  67.573  21.149  0.00  0.00    -0.221 N 
ATOM      8  N   LIG    1      -35.023  66.889  20.995  0.00  0.00    -0.173 NA
ATOM      9  C   LIG    1      -34.513  66.834  22.224  0.00  0.00    +0.150 A 
ENDROOT
BRANCH   4  10
ATOM     10  N   LIG    1      -39.604  69.605  22.244  0.00  0.00    -0.308 N 
ATOM     11  C   LIG    1      -39.973  69.913  23.635  0.00  0.00    +0.108 C 
ATOM     12  C   LIG    1      -41.497  69.708  23.648  0.00  0.00    +0.029 C 
ATOM     13  C   LIG    1      -41.915  70.186  22.269  0.00  0.00    +0.021 C 
ATOM     14  C   LIG    1      -40.796  69.647  21.388  0.00  0.00    +0.107 C 
BRANCH  11  15
ATOM     15  C   LIG    1      -39.584  71.321  24.038  0.00  0.00    +0.011 A 
ATOM     16  C   LIG    1      -38.446  71.493  24.836  0.00  0.00    +0.129 A 
ATOM     17  F   LIG    1      -37.790  70.416  25.292  0.00  0.00    -0.205 F 
ATOM     18  C   LIG    1      -37.974  72.757  25.180  0.00  0.00    +0.041 A 
ATOM     19  C   LIG    1      -38.671  73.888  24.764  0.00  0.00    +0.041 A 
ATOM     20  C   LIG    1      -39.848  73.734  24.042  0.00  0.00    +0.124 A 
ATOM     21  F   LIG    1      -40.554  74.817  23.694  0.00  0.00    -0.205 F 
ATOM     22  C   LIG    1      -40.306  72.470  23.673  0.00  0.00    +0.046 A 
ENDBRANCH  11  15
ENDBRANCH   4  10
BRANCH   1  25
ATOM     23  N   LIG    1      -34.550  68.965  24.948  0.00  0.00    -0.311 N 
ATOM     24  H   LIG    1      -34.569  69.674  24.221  0.00  0.00    +0.149 HD
ATOM     25  C   LIG    1      -34.956  67.693  24.592  0.00  0.00    +0.249 C 
ATOM     26  O   LIG    1      -35.022  66.763  25.379  0.00  0.00    -0.270 OA
BRANCH  23  27
ATOM     27  C   LIG    1      -34.263  69.368  26.316  0.00  0.00    +0.110 C 
BRANCH  27  28
ATOM     28  C   LIG    1      -34.813  70.754  26.681  0.00  0.00    +0.073 C 
BRANCH  28  31
ATOM     29  C   LIG    1      -35.449  73.481  28.098  0.00  0.00    +0.150 C 
ATOM     30  N   LIG    1      -34.504  72.484  28.536  0.00  0.00    -0.337 N 
ATOM     31  C   LIG    1      -34.226  71.270  27.956  0.00  0.00    +0.039 A 
ATOM     32  C   LIG    1      -33.301  70.693  28.807  0.00  0.00    +0.133 A 
ATOM     33  N   LIG    1      -33.006  71.520  29.857  0.00  0.00    -0.244 NA
ATOM     34  C   LIG    1      -33.741  72.590  29.667  0.00  0.00    +0.199 A 
ENDBRANCH  28  31
ENDBRANCH  27  28
ENDBRANCH  23  27
ENDBRANCH   1  25
TORSDOF 6
ENDMDL
