MODEL 1
REMARK VINA RESULT:      -5.7      0.000      0.000
REMARK  Name = pdb/CHEMBL3676029.pdb
REMARK                            x       y       z     vdW  Elec       q    Type
REMARK                         _______ _______ _______ _____ _____    ______ ____
ROOT
ATOM      1  C   LIG    1      -23.746  79.674  35.522  0.00  0.00    +0.126 A 
ATOM      2  N   LIG    1      -23.998  78.982  34.425  0.00  0.00    -0.212 NA
ATOM      3  C   LIG    1      -25.211  78.331  34.325  0.00  0.00    +0.170 A 
ATOM      4  C   LIG    1      -25.829  77.609  33.322  0.00  0.00    +0.100 A 
ATOM      5  C   LIG    1      -27.029  77.133  33.903  0.00  0.00    +0.150 A 
ATOM      6  N   LIG    1      -27.203  77.559  35.153  0.00  0.00    -0.173 NA
ATOM      7  N   LIG    1      -26.113  78.314  35.397  0.00  0.00    -0.221 N 
ATOM      8  C   LIG    1      -25.869  79.044  36.539  0.00  0.00    +0.118 A 
ATOM      9  C   LIG    1      -24.749  79.759  36.648  0.00  0.00    +0.063 A 
ENDROOT
BRANCH   1  11
ATOM     10  C   LIG    1      -21.331  79.743  36.285  0.00  0.00    +0.110 C 
ATOM     11  N   LIG    1      -22.529  80.333  35.665  0.00  0.00    -0.308 N 
ATOM     12  C   LIG    1      -22.377  81.762  35.430  0.00  0.00    +0.107 C 
ATOM     13  C   LIG    1      -21.148  82.194  36.213  0.00  0.00    +0.021 C 
ATOM     14  C   LIG    1      -20.477  80.932  36.733  0.00  0.00    +0.029 C 
BRANCH  10  16
ATOM     15  C   LIG    1      -20.690  77.406  35.486  0.00  0.00    +0.220 A 
ATOM     16  C   LIG    1      -20.582  78.800  35.361  0.00  0.00    +0.037 A 
ATOM     17  C   LIG    1      -19.801  79.279  34.296  0.00  0.00    +0.050 A 
ATOM     18  C   LIG    1      -19.224  78.388  33.403  0.00  0.00    +0.142 A 
ATOM     19  F   LIG    1      -18.505  78.837  32.369  0.00  0.00    -0.204 F 
ATOM     20  C   LIG    1      -19.424  77.037  33.588  0.00  0.00    +0.153 A 
ATOM     21  N   LIG    1      -20.140  76.527  34.612  0.00  0.00    -0.218 NA
BRANCH  15  23
ATOM     22  C   LIG    1      -22.567  76.160  36.143  0.00  0.00    +0.279 C 
ATOM     23  O   LIG    1      -21.408  76.896  36.548  0.00  0.00    -0.479 OA
ENDBRANCH  15  23
ENDBRANCH  10  16
ENDBRANCH   1  11
BRANCH   4  24
ATOM     24  C   LIG    1      -25.434  77.308  31.960  0.00  0.00    +0.249 C 
ATOM     25  N   LIG    1      -24.332  76.497  31.803  0.00  0.00    -0.308 N 
ATOM     26  H   LIG    1      -23.857  76.161  32.626  0.00  0.00    +0.149 HD
ATOM     27  O   LIG    1      -26.004  77.826  31.011  0.00  0.00    -0.270 OA
BRANCH  25  28
ATOM     28  C   LIG    1      -23.806  76.188  30.482  0.00  0.00    +0.138 C 
BRANCH  28  29
ATOM     29  C   LIG    1      -22.691  77.135  29.961  0.00  0.00    +0.076 C 
ATOM     30  C   LIG    1      -21.616  76.420  29.139  0.00  0.00    +0.042 C 
ATOM     31  C   LIG    1      -22.033  77.837  31.158  0.00  0.00    +0.042 C 
BRANCH  29  32
ATOM     32  O   LIG    1      -23.288  78.153  29.143  0.00  0.00    -0.388 OA
ATOM     33  H   LIG    1      -22.577  78.556  28.614  0.00  0.00    +0.210 HD
ENDBRANCH  29  32
ENDBRANCH  28  29
ENDBRANCH  25  28
ENDBRANCH   4  24
TORSDOF 7
ENDMDL
MODEL 2
REMARK VINA RESULT:      -5.4     18.797     22.117
REMARK  Name = pdb/CHEMBL3676029.pdb
REMARK                            x       y       z     vdW  Elec       q    Type
REMARK                         _______ _______ _______ _____ _____    ______ ____
ROOT
ATOM      1  C   LIG    1      -20.332  81.775  13.615  0.00  0.00    +0.126 A 
ATOM      2  N   LIG    1      -19.956  83.033  13.759  0.00  0.00    -0.212 NA
ATOM      3  C   LIG    1      -19.049  83.554  12.857  0.00  0.00    +0.170 A 
ATOM      4  C   LIG    1      -18.515  84.812  12.657  0.00  0.00    +0.100 A 
ATOM      5  C   LIG    1      -17.570  84.644  11.616  0.00  0.00    +0.150 A 
ATOM      6  N   LIG    1      -17.538  83.400  11.142  0.00  0.00    -0.173 NA
ATOM      7  N   LIG    1      -18.462  82.746  11.875  0.00  0.00    -0.221 N 
ATOM      8  C   LIG    1      -18.857  81.438  11.705  0.00  0.00    +0.118 A 
ATOM      9  C   LIG    1      -19.792  80.914  12.498  0.00  0.00    +0.063 A 
ENDROOT
BRANCH   1  11
ATOM     10  C   LIG    1      -22.480  81.857  14.957  0.00  0.00    +0.110 C 
ATOM     11  N   LIG    1      -21.233  81.211  14.513  0.00  0.00    -0.308 N 
ATOM     12  C   LIG    1      -20.924  80.021  15.293  0.00  0.00    +0.107 C 
ATOM     13  C   LIG    1      -21.839  80.058  16.506  0.00  0.00    +0.021 C 
ATOM     14  C   LIG    1      -22.829  81.193  16.291  0.00  0.00    +0.029 C 
BRANCH  10  16
ATOM     15  C   LIG    1      -23.782  82.722  12.940  0.00  0.00    +0.220 A 
ATOM     16  C   LIG    1      -23.603  81.754  13.940  0.00  0.00    +0.037 A 
ATOM     17  C   LIG    1      -24.470  80.648  13.911  0.00  0.00    +0.050 A 
ATOM     18  C   LIG    1      -25.410  80.531  12.899  0.00  0.00    +0.142 A 
ATOM     19  F   LIG    1      -26.218  79.467  12.846  0.00  0.00    -0.204 F 
ATOM     20  C   LIG    1      -25.481  81.517  11.938  0.00  0.00    +0.153 A 
ATOM     21  N   LIG    1      -24.691  82.611  11.939  0.00  0.00    -0.218 NA
BRANCH  15  23
ATOM     22  C   LIG    1      -22.567  84.269  11.661  0.00  0.00    +0.279 C 
ATOM     23  O   LIG    1      -22.982  83.846  12.964  0.00  0.00    -0.479 OA
ENDBRANCH  15  23
ENDBRANCH  10  16
ENDBRANCH   1  11
BRANCH   4  24
ATOM     24  C   LIG    1      -18.757  86.083  13.311  0.00  0.00    +0.249 C 
ATOM     25  N   LIG    1      -19.900  86.177  14.073  0.00  0.00    -0.308 N 
ATOM     26  H   LIG    1      -20.508  85.375  14.135  0.00  0.00    +0.149 HD
ATOM     27  O   LIG    1      -18.022  87.040  13.116  0.00  0.00    -0.270 OA
BRANCH  25  28
ATOM     28  C   LIG    1      -20.277  87.426  14.716  0.00  0.00    +0.138 C 
BRANCH  28  29
ATOM     29  C   LIG    1      -21.731  87.494  15.258  0.00  0.00    +0.076 C 
ATOM     30  C   LIG    1      -22.423  86.131  15.323  0.00  0.00    +0.042 C 
ATOM     31  C   LIG    1      -22.551  88.440  14.368  0.00  0.00    +0.042 C 
BRANCH  29  32
ATOM     32  O   LIG    1      -21.710  88.059  16.578  0.00  0.00    -0.388 OA
ATOM     33  H   LIG    1      -21.105  88.822  16.559  0.00  0.00    +0.210 HD
ENDBRANCH  29  32
ENDBRANCH  28  29
ENDBRANCH  25  28
ENDBRANCH   4  24
TORSDOF 7
ENDMDL
MODEL 3
REMARK VINA RESULT:      -5.4      2.676      5.122
REMARK  Name = pdb/CHEMBL3676029.pdb
REMARK                            x       y       z     vdW  Elec       q    Type
REMARK                         _______ _______ _______ _____ _____    ______ ____
ROOT
ATOM      1  C   LIG    1      -20.185  79.320  34.438  0.00  0.00    +0.126 A 
ATOM      2  N   LIG    1      -20.451  78.903  33.214  0.00  0.00    -0.212 NA
ATOM      3  C   LIG    1      -19.460  78.241  32.516  0.00  0.00    +0.170 A 
ATOM      4  C   LIG    1      -19.414  77.609  31.288  0.00  0.00    +0.100 A 
ATOM      5  C   LIG    1      -18.063  77.215  31.134  0.00  0.00    +0.150 A 
ATOM      6  N   LIG    1      -17.313  77.509  32.195  0.00  0.00    -0.173 NA
ATOM      7  N   LIG    1      -18.171  78.103  33.048  0.00  0.00    -0.221 N 
ATOM      8  C   LIG    1      -17.886  78.521  34.329  0.00  0.00    +0.118 A 
ATOM      9  C   LIG    1      -18.835  79.089  35.074  0.00  0.00    +0.063 A 
ENDROOT
BRANCH   1  11
ATOM     10  C   LIG    1      -22.564  79.590  35.268  0.00  0.00    +0.110 C 
ATOM     11  N   LIG    1      -21.154  80.003  35.167  0.00  0.00    -0.308 N 
ATOM     12  C   LIG    1      -20.932  81.333  35.716  0.00  0.00    +0.107 C 
ATOM     13  C   LIG    1      -22.308  81.951  35.905  0.00  0.00    +0.021 C 
ATOM     14  C   LIG    1      -23.334  80.858  35.646  0.00  0.00    +0.029 C 
BRANCH  10  16
ATOM     15  C   LIG    1      -23.001  77.138  35.821  0.00  0.00    +0.220 A 
ATOM     16  C   LIG    1      -22.786  78.455  36.252  0.00  0.00    +0.037 A 
ATOM     17  C   LIG    1      -22.716  78.662  37.641  0.00  0.00    +0.050 A 
ATOM     18  C   LIG    1      -22.809  77.583  38.507  0.00  0.00    +0.142 A 
ATOM     19  F   LIG    1      -22.712  77.766  39.829  0.00  0.00    -0.204 F 
ATOM     20  C   LIG    1      -22.980  76.320  37.983  0.00  0.00    +0.153 A 
ATOM     21  N   LIG    1      -23.082  76.075  36.660  0.00  0.00    -0.218 NA
BRANCH  15  23
ATOM     22  C   LIG    1      -22.205  75.920  33.980  0.00  0.00    +0.279 C 
ATOM     23  O   LIG    1      -23.126  76.902  34.467  0.00  0.00    -0.479 OA
ENDBRANCH  15  23
ENDBRANCH  10  16
ENDBRANCH   1  11
BRANCH   4  24
ATOM     24  C   LIG    1      -20.430  77.369  30.283  0.00  0.00    +0.249 C 
ATOM     25  N   LIG    1      -21.740  77.476  30.693  0.00  0.00    -0.308 N 
ATOM     26  H   LIG    1      -21.929  77.706  31.657  0.00  0.00    +0.149 HD
ATOM     27  O   LIG    1      -20.126  77.004  29.157  0.00  0.00    -0.270 OA
BRANCH  25  28
ATOM     28  C   LIG    1      -22.840  77.187  29.785  0.00  0.00    +0.138 C 
BRANCH  28  29
ATOM     29  C   LIG    1      -24.249  77.112  30.435  0.00  0.00    +0.076 C 
ATOM     30  C   LIG    1      -24.447  78.109  31.580  0.00  0.00    +0.042 C 
ATOM     31  C   LIG    1      -24.484  75.686  30.954  0.00  0.00    +0.042 C 
BRANCH  29  32
ATOM     32  O   LIG    1      -25.240  77.371  29.429  0.00  0.00    -0.388 OA
ATOM     33  H   LIG    1      -24.954  76.918  28.616  0.00  0.00    +0.210 HD
ENDBRANCH  29  32
ENDBRANCH  28  29
ENDBRANCH  25  28
ENDBRANCH   4  24
TORSDOF 7
ENDMDL
MODEL 4
REMARK VINA RESULT:      -5.2     17.959     21.963
REMARK  Name = pdb/CHEMBL3676029.pdb
REMARK                            x       y       z     vdW  Elec       q    Type
REMARK                         _______ _______ _______ _____ _____    ______ ____
ROOT
ATOM      1  C   LIG    1      -20.809  82.295  11.911  0.00  0.00    +0.126 A 
ATOM      2  N   LIG    1      -20.369  83.419  12.445  0.00  0.00    -0.212 NA
ATOM      3  C   LIG    1      -19.038  83.747  12.282  0.00  0.00    +0.170 A 
ATOM      4  C   LIG    1      -18.276  84.849  12.619  0.00  0.00    +0.100 A 
ATOM      5  C   LIG    1      -16.954  84.504  12.247  0.00  0.00    +0.150 A 
ATOM      6  N   LIG    1      -16.876  83.308  11.665  0.00  0.00    -0.173 NA
ATOM      7  N   LIG    1      -18.148  82.863  11.657  0.00  0.00    -0.221 N 
ATOM      8  C   LIG    1      -18.597  81.695  11.083  0.00  0.00    +0.118 A 
ATOM      9  C   LIG    1      -19.890  81.376  11.140  0.00  0.00    +0.063 A 
ENDROOT
BRANCH   1  11
ATOM     10  C   LIG    1      -22.599  80.772  12.860  0.00  0.00    +0.110 C 
ATOM     11  N   LIG    1      -22.141  81.925  12.066  0.00  0.00    -0.308 N 
ATOM     12  C   LIG    1      -23.214  82.498  11.265  0.00  0.00    +0.107 C 
ATOM     13  C   LIG    1      -24.351  81.490  11.292  0.00  0.00    +0.021 C 
ATOM     14  C   LIG    1      -23.981  80.418  12.305  0.00  0.00    +0.029 C 
BRANCH  10  16
ATOM     15  C   LIG    1      -22.292  80.051  15.288  0.00  0.00    +0.220 A 
ATOM     16  C   LIG    1      -22.619  81.045  14.353  0.00  0.00    +0.037 A 
ATOM     17  C   LIG    1      -22.899  82.324  14.864  0.00  0.00    +0.050 A 
ATOM     18  C   LIG    1      -22.797  82.564  16.226  0.00  0.00    +0.142 A 
ATOM     19  F   LIG    1      -23.031  83.786  16.716  0.00  0.00    -0.204 F 
ATOM     20  C   LIG    1      -22.428  81.530  17.059  0.00  0.00    +0.153 A 
ATOM     21  N   LIG    1      -22.178  80.279  16.621  0.00  0.00    -0.218 NA
BRANCH  15  23
ATOM     22  C   LIG    1      -20.676  78.400  14.872  0.00  0.00    +0.279 C 
ATOM     23  O   LIG    1      -22.059  78.770  14.831  0.00  0.00    -0.479 OA
ENDBRANCH  15  23
ENDBRANCH  10  16
ENDBRANCH   1  11
BRANCH   4  24
ATOM     24  C   LIG    1      -18.621  86.113  13.239  0.00  0.00    +0.249 C 
ATOM     25  N   LIG    1      -19.765  86.131  14.005  0.00  0.00    -0.308 N 
ATOM     26  H   LIG    1      -20.304  85.283  14.092  0.00  0.00    +0.149 HD
ATOM     27  O   LIG    1      -17.969  87.121  13.015  0.00  0.00    -0.270 OA
BRANCH  25  28
ATOM     28  C   LIG    1      -20.243  87.362  14.616  0.00  0.00    +0.138 C 
BRANCH  28  29
ATOM     29  C   LIG    1      -21.696  87.324  15.164  0.00  0.00    +0.076 C 
ATOM     30  C   LIG    1      -22.489  86.098  14.705  0.00  0.00    +0.042 C 
ATOM     31  C   LIG    1      -22.429  88.599  14.722  0.00  0.00    +0.042 C 
BRANCH  29  32
ATOM     32  O   LIG    1      -21.653  87.329  16.598  0.00  0.00    -0.388 OA
ATOM     33  H   LIG    1      -22.456  87.782  16.912  0.00  0.00    +0.210 HD
ENDBRANCH  29  32
ENDBRANCH  28  29
ENDBRANCH  25  28
ENDBRANCH   4  24
TORSDOF 7
ENDMDL
MODEL 5
REMARK VINA RESULT:      -5.2      2.360      5.407
REMARK  Name = pdb/CHEMBL3676029.pdb
REMARK                            x       y       z     vdW  Elec       q    Type
REMARK                         _______ _______ _______ _____ _____    ______ ____
ROOT
ATOM      1  C   LIG    1      -20.576  77.186  31.121  0.00  0.00    +0.126 A 
ATOM      2  N   LIG    1      -21.505  77.623  31.951  0.00  0.00    -0.212 NA
ATOM      3  C   LIG    1      -22.827  77.549  31.555  0.00  0.00    +0.170 A 
ATOM      4  C   LIG    1      -24.028  77.825  32.178  0.00  0.00    +0.100 A 
ATOM      5  C   LIG    1      -25.010  77.622  31.178  0.00  0.00    +0.150 A 
ATOM      6  N   LIG    1      -24.496  77.194  30.027  0.00  0.00    -0.173 NA
ATOM      7  N   LIG    1      -23.171  77.119  30.267  0.00  0.00    -0.221 N 
ATOM      8  C   LIG    1      -22.213  76.645  29.399  0.00  0.00    +0.118 A 
ATOM      9  C   LIG    1      -20.933  76.617  29.768  0.00  0.00    +0.063 A 
ENDROOT
BRANCH   1  11
ATOM     10  C   LIG    1      -18.723  77.976  32.658  0.00  0.00    +0.110 C 
ATOM     11  N   LIG    1      -19.234  77.256  31.480  0.00  0.00    -0.308 N 
ATOM     12  C   LIG    1      -18.161  76.823  30.595  0.00  0.00    +0.107 C 
ATOM     13  C   LIG    1      -16.911  77.560  31.050  0.00  0.00    +0.021 C 
ATOM     14  C   LIG    1      -17.252  78.266  32.353  0.00  0.00    +0.029 C 
BRANCH  10  16
ATOM     15  C   LIG    1      -19.648  77.741  35.025  0.00  0.00    +0.220 A 
ATOM     16  C   LIG    1      -18.912  77.209  33.956  0.00  0.00    +0.037 A 
ATOM     17  C   LIG    1      -18.417  75.904  34.117  0.00  0.00    +0.050 A 
ATOM     18  C   LIG    1      -18.707  75.191  35.271  0.00  0.00    +0.142 A 
ATOM     19  F   LIG    1      -18.265  73.937  35.420  0.00  0.00    -0.204 F 
ATOM     20  C   LIG    1      -19.473  75.788  36.249  0.00  0.00    +0.153 A 
ATOM     21  N   LIG    1      -19.947  77.048  36.152  0.00  0.00    -0.218 NA
BRANCH  15  23
ATOM     22  C   LIG    1      -19.776  79.844  36.059  0.00  0.00    +0.279 C 
ATOM     23  O   LIG    1      -20.110  79.038  34.924  0.00  0.00    -0.479 OA
ENDBRANCH  15  23
ENDBRANCH  10  16
ENDBRANCH   1  11
BRANCH   4  24
ATOM     24  C   LIG    1      -24.345  78.258  33.524  0.00  0.00    +0.249 C 
ATOM     25  N   LIG    1      -23.279  78.496  34.362  0.00  0.00    -0.308 N 
ATOM     26  H   LIG    1      -22.344  78.354  34.010  0.00  0.00    +0.149 HD
ATOM     27  O   LIG    1      -25.503  78.320  33.908  0.00  0.00    -0.270 OA
BRANCH  25  28
ATOM     28  C   LIG    1      -23.482  78.867  35.755  0.00  0.00    +0.138 C 
BRANCH  28  29
ATOM     29  C   LIG    1      -23.724  80.378  36.021  0.00  0.00    +0.076 C 
ATOM     30  C   LIG    1      -22.919  81.297  35.099  0.00  0.00    +0.042 C 
ATOM     31  C   LIG    1      -23.373  80.689  37.483  0.00  0.00    +0.042 C 
BRANCH  29  32
ATOM     32  O   LIG    1      -25.120  80.664  35.845  0.00  0.00    -0.388 OA
ATOM     33  H   LIG    1      -25.491  80.855  36.725  0.00  0.00    +0.210 HD
ENDBRANCH  29  32
ENDBRANCH  28  29
ENDBRANCH  25  28
ENDBRANCH   4  24
TORSDOF 7
ENDMDL
MODEL 6
REMARK VINA RESULT:      -5.1     18.500     21.457
REMARK  Name = pdb/CHEMBL3676029.pdb
REMARK                            x       y       z     vdW  Elec       q    Type
REMARK                         _______ _______ _______ _____ _____    ______ ____
ROOT
ATOM      1  C   LIG    1      -23.246  79.704  13.574  0.00  0.00    +0.126 A 
ATOM      2  N   LIG    1      -23.142  81.020  13.562  0.00  0.00    -0.212 NA
ATOM      3  C   LIG    1      -22.830  81.664  14.743  0.00  0.00    +0.170 A 
ATOM      4  C   LIG    1      -22.564  82.978  15.074  0.00  0.00    +0.100 A 
ATOM      5  C   LIG    1      -22.408  82.974  16.481  0.00  0.00    +0.150 A 
ATOM      6  N   LIG    1      -22.504  81.754  17.009  0.00  0.00    -0.173 NA
ATOM      7  N   LIG    1      -22.727  80.954  15.947  0.00  0.00    -0.221 N 
ATOM      8  C   LIG    1      -22.818  79.581  15.970  0.00  0.00    +0.118 A 
ATOM      9  C   LIG    1      -23.034  78.907  14.840  0.00  0.00    +0.063 A 
ENDROOT
BRANCH   1  11
ATOM     10  C   LIG    1      -23.927  77.593  12.348  0.00  0.00    +0.110 C 
ATOM     11  N   LIG    1      -23.572  79.021  12.406  0.00  0.00    -0.308 N 
ATOM     12  C   LIG    1      -23.368  79.589  11.081  0.00  0.00    +0.107 C 
ATOM     13  C   LIG    1      -23.278  78.412  10.123  0.00  0.00    +0.021 C 
ATOM     14  C   LIG    1      -23.648  77.162  10.906  0.00  0.00    +0.029 C 
BRANCH  10  16
ATOM     15  C   LIG    1      -25.660  76.357  13.757  0.00  0.00    +0.220 A 
ATOM     16  C   LIG    1      -25.357  77.314  12.776  0.00  0.00    +0.037 A 
ATOM     17  C   LIG    1      -26.437  78.051  12.259  0.00  0.00    +0.050 A 
ATOM     18  C   LIG    1      -27.716  77.848  12.756  0.00  0.00    +0.142 A 
ATOM     19  F   LIG    1      -28.743  78.567  12.292  0.00  0.00    -0.204 F 
ATOM     20  C   LIG    1      -27.903  76.912  13.750  0.00  0.00    +0.153 A 
ATOM     21  N   LIG    1      -26.905  76.160  14.258  0.00  0.00    -0.218 NA
BRANCH  15  23
ATOM     22  C   LIG    1      -24.698  74.217  13.819  0.00  0.00    +0.279 C 
ATOM     23  O   LIG    1      -24.633  75.579  14.254  0.00  0.00    -0.479 OA
ENDBRANCH  15  23
ENDBRANCH  10  16
ENDBRANCH   1  11
BRANCH   4  24
ATOM     24  C   LIG    1      -22.469  84.180  14.270  0.00  0.00    +0.249 C 
ATOM     25  N   LIG    1      -21.811  85.250  14.834  0.00  0.00    -0.308 N 
ATOM     26  H   LIG    1      -21.436  85.152  15.765  0.00  0.00    +0.149 HD
ATOM     27  O   LIG    1      -23.027  84.256  13.185  0.00  0.00    -0.270 OA
BRANCH  25  28
ATOM     28  C   LIG    1      -21.718  86.527  14.143  0.00  0.00    +0.138 C 
BRANCH  28  29
ATOM     29  C   LIG    1      -20.312  87.188  14.134  0.00  0.00    +0.076 C 
ATOM     30  C   LIG    1      -20.228  88.434  13.248  0.00  0.00    +0.042 C 
ATOM     31  C   LIG    1      -19.279  86.155  13.659  0.00  0.00    +0.042 C 
BRANCH  29  32
ATOM     32  O   LIG    1      -19.962  87.558  15.476  0.00  0.00    -0.388 OA
ATOM     33  H   LIG    1      -19.280  86.934  15.782  0.00  0.00    +0.210 HD
ENDBRANCH  29  32
ENDBRANCH  28  29
ENDBRANCH  25  28
ENDBRANCH   4  24
TORSDOF 7
ENDMDL
MODEL 7
REMARK VINA RESULT:      -5.1     18.531     21.802
REMARK  Name = pdb/CHEMBL3676029.pdb
REMARK                            x       y       z     vdW  Elec       q    Type
REMARK                         _______ _______ _______ _____ _____    ______ ____
ROOT
ATOM      1  C   LIG    1      -19.937  82.005  14.048  0.00  0.00    +0.126 A 
ATOM      2  N   LIG    1      -19.706  83.305  14.054  0.00  0.00    -0.212 NA
ATOM      3  C   LIG    1      -18.693  83.795  13.254  0.00  0.00    +0.170 A 
ATOM      4  C   LIG    1      -18.242  85.066  12.953  0.00  0.00    +0.100 A 
ATOM      5  C   LIG    1      -17.105  84.863  12.135  0.00  0.00    +0.150 A 
ATOM      6  N   LIG    1      -16.875  83.576  11.877  0.00  0.00    -0.173 NA
ATOM      7  N   LIG    1      -17.861  82.930  12.531  0.00  0.00    -0.221 N 
ATOM      8  C   LIG    1      -18.102  81.574  12.504  0.00  0.00    +0.118 A 
ATOM      9  C   LIG    1      -19.122  81.063  13.194  0.00  0.00    +0.063 A 
ENDROOT
BRANCH   1  11
ATOM     10  C   LIG    1      -22.154  82.200  15.260  0.00  0.00    +0.110 C 
ATOM     11  N   LIG    1      -20.941  81.473  14.851  0.00  0.00    -0.308 N 
ATOM     12  C   LIG    1      -20.788  80.216  15.570  0.00  0.00    +0.107 C 
ATOM     13  C   LIG    1      -21.774  80.264  16.726  0.00  0.00    +0.021 C 
ATOM     14  C   LIG    1      -22.646  81.493  16.526  0.00  0.00    +0.029 C 
BRANCH  10  16
ATOM     15  C   LIG    1      -24.308  81.382  14.164  0.00  0.00    +0.220 A 
ATOM     16  C   LIG    1      -23.212  82.259  14.173  0.00  0.00    +0.037 A 
ATOM     17  C   LIG    1      -23.180  83.239  13.166  0.00  0.00    +0.050 A 
ATOM     18  C   LIG    1      -24.223  83.335  12.258  0.00  0.00    +0.142 A 
ATOM     19  F   LIG    1      -24.215  84.284  11.316  0.00  0.00    -0.204 F 
ATOM     20  C   LIG    1      -25.276  82.451  12.357  0.00  0.00    +0.153 A 
ATOM     21  N   LIG    1      -25.339  81.475  13.287  0.00  0.00    -0.218 NA
BRANCH  15  23
ATOM     22  C   LIG    1      -25.469  79.496  14.940  0.00  0.00    +0.279 C 
ATOM     23  O   LIG    1      -24.351  80.375  15.107  0.00  0.00    -0.479 OA
ENDBRANCH  15  23
ENDBRANCH  10  16
ENDBRANCH   1  11
BRANCH   4  24
ATOM     24  C   LIG    1      -18.713  86.380  13.344  0.00  0.00    +0.249 C 
ATOM     25  N   LIG    1      -19.754  86.418  14.245  0.00  0.00    -0.308 N 
ATOM     26  H   LIG    1      -20.138  85.547  14.580  0.00  0.00    +0.149 HD
ATOM     27  O   LIG    1      -18.260  87.389  12.827  0.00  0.00    -0.270 OA
BRANCH  25  28
ATOM     28  C   LIG    1      -20.352  87.681  14.654  0.00  0.00    +0.138 C 
BRANCH  28  29
ATOM     29  C   LIG    1      -21.898  87.679  14.801  0.00  0.00    +0.076 C 
ATOM     30  C   LIG    1      -22.464  86.341  15.283  0.00  0.00    +0.042 C 
ATOM     31  C   LIG    1      -22.528  88.040  13.448  0.00  0.00    +0.042 C 
BRANCH  29  32
ATOM     32  O   LIG    1      -22.278  88.699  15.737  0.00  0.00    -0.388 OA
ATOM     33  H   LIG    1      -23.249  88.685  15.804  0.00  0.00    +0.210 HD
ENDBRANCH  29  32
ENDBRANCH  28  29
ENDBRANCH  25  28
ENDBRANCH   4  24
TORSDOF 7
ENDMDL
MODEL 8
REMARK VINA RESULT:      -5.1     19.325     21.998
REMARK  Name = pdb/CHEMBL3676029.pdb
REMARK                            x       y       z     vdW  Elec       q    Type
REMARK                         _______ _______ _______ _____ _____    ______ ____
ROOT
ATOM      1  C   LIG    1      -23.676  85.894  11.983  0.00  0.00    +0.126 A 
ATOM      2  N   LIG    1      -24.183  84.701  12.236  0.00  0.00    -0.212 NA
ATOM      3  C   LIG    1      -24.891  84.065  11.236  0.00  0.00    +0.170 A 
ATOM      4  C   LIG    1      -25.470  82.815  11.120  0.00  0.00    +0.100 A 
ATOM      5  C   LIG    1      -26.123  82.833   9.865  0.00  0.00    +0.150 A 
ATOM      6  N   LIG    1      -25.934  83.970   9.198  0.00  0.00    -0.173 NA
ATOM      7  N   LIG    1      -25.157  84.706  10.019  0.00  0.00    -0.221 N 
ATOM      8  C   LIG    1      -24.621  85.943   9.738  0.00  0.00    +0.118 A 
ATOM      9  C   LIG    1      -23.859  86.560  10.640  0.00  0.00    +0.063 A 
ENDROOT
BRANCH   1  11
ATOM     10  C   LIG    1      -22.537  85.975  14.246  0.00  0.00    +0.110 C 
ATOM     11  N   LIG    1      -22.967  86.572  12.970  0.00  0.00    -0.308 N 
ATOM     12  C   LIG    1      -22.778  88.016  12.950  0.00  0.00    +0.107 C 
ATOM     13  C   LIG    1      -22.504  88.429  14.387  0.00  0.00    +0.021 C 
ATOM     14  C   LIG    1      -22.331  87.155  15.199  0.00  0.00    +0.029 C 
BRANCH  10  16
ATOM     15  C   LIG    1      -21.340  83.724  14.350  0.00  0.00    +0.220 A 
ATOM     16  C   LIG    1      -21.299  85.107  14.113  0.00  0.00    +0.037 A 
ATOM     17  C   LIG    1      -20.072  85.637  13.679  0.00  0.00    +0.050 A 
ATOM     18  C   LIG    1      -18.992  84.795  13.459  0.00  0.00    +0.142 A 
ATOM     19  F   LIG    1      -17.830  85.287  13.016  0.00  0.00    -0.204 F 
ATOM     20  C   LIG    1      -19.145  83.443  13.682  0.00  0.00    +0.153 A 
ATOM     21  N   LIG    1      -20.293  82.891  14.126  0.00  0.00    -0.218 NA
BRANCH  15  23
ATOM     22  C   LIG    1      -22.486  82.916  16.232  0.00  0.00    +0.279 C 
ATOM     23  O   LIG    1      -22.513  83.173  14.824  0.00  0.00    -0.479 OA
ENDBRANCH  15  23
ENDBRANCH  10  16
ENDBRANCH   1  11
BRANCH   4  24
ATOM     24  C   LIG    1      -25.501  81.676  12.015  0.00  0.00    +0.249 C 
ATOM     25  N   LIG    1      -24.797  81.796  13.192  0.00  0.00    -0.308 N 
ATOM     26  H   LIG    1      -24.297  82.654  13.372  0.00  0.00    +0.149 HD
ATOM     27  O   LIG    1      -26.054  80.636  11.689  0.00  0.00    -0.270 OA
BRANCH  25  28
ATOM     28  C   LIG    1      -24.703  80.689  14.132  0.00  0.00    +0.138 C 
BRANCH  28  29
ATOM     29  C   LIG    1      -23.432  79.804  14.006  0.00  0.00    +0.076 C 
ATOM     30  C   LIG    1      -23.638  78.561  13.138  0.00  0.00    +0.042 C 
ATOM     31  C   LIG    1      -22.982  79.376  15.410  0.00  0.00    +0.042 C 
BRANCH  29  32
ATOM     32  O   LIG    1      -22.373  80.588  13.436  0.00  0.00    -0.388 OA
ATOM     33  H   LIG    1      -22.786  81.312  12.933  0.00  0.00    +0.210 HD
ENDBRANCH  29  32
ENDBRANCH  28  29
ENDBRANCH  25  28
ENDBRANCH   4  24
TORSDOF 7
ENDMDL
MODEL 9
REMARK VINA RESULT:      -5.0     18.634     21.804
REMARK  Name = pdb/CHEMBL3676029.pdb
REMARK                            x       y       z     vdW  Elec       q    Type
REMARK                         _______ _______ _______ _____ _____    ______ ____
ROOT
ATOM      1  C   LIG    1      -21.068  84.738  13.955  0.00  0.00    +0.126 A 
ATOM      2  N   LIG    1      -21.611  83.665  14.500  0.00  0.00    -0.212 NA
ATOM      3  C   LIG    1      -20.819  82.547  14.677  0.00  0.00    +0.170 A 
ATOM      4  C   LIG    1      -21.021  81.317  15.272  0.00  0.00    +0.100 A 
ATOM      5  C   LIG    1      -19.829  80.594  15.025  0.00  0.00    +0.150 A 
ATOM      6  N   LIG    1      -18.912  81.313  14.380  0.00  0.00    -0.173 NA
ATOM      7  N   LIG    1      -19.503  82.511  14.198  0.00  0.00    -0.221 N 
ATOM      8  C   LIG    1      -18.921  83.628  13.642  0.00  0.00    +0.118 A 
ATOM      9  C   LIG    1      -19.619  84.758  13.528  0.00  0.00    +0.063 A 
ENDROOT
BRANCH   1  11
ATOM     10  C   LIG    1      -22.120  86.465  12.429  0.00  0.00    +0.110 C 
ATOM     11  N   LIG    1      -21.837  85.879  13.749  0.00  0.00    -0.308 N 
ATOM     12  C   LIG    1      -22.252  86.754  14.837  0.00  0.00    +0.107 C 
ATOM     13  C   LIG    1      -22.534  88.109  14.209  0.00  0.00    +0.021 C 
ATOM     14  C   LIG    1      -22.473  87.930  12.701  0.00  0.00    +0.029 C 
BRANCH  10  16
ATOM     15  C   LIG    1      -22.912  84.698  10.768  0.00  0.00    +0.220 A 
ATOM     16  C   LIG    1      -23.210  85.731  11.669  0.00  0.00    +0.037 A 
ATOM     17  C   LIG    1      -24.571  86.007  11.885  0.00  0.00    +0.050 A 
ATOM     18  C   LIG    1      -25.542  85.239  11.260  0.00  0.00    +0.142 A 
ATOM     19  F   LIG    1      -26.839  85.474  11.485  0.00  0.00    -0.204 F 
ATOM     20  C   LIG    1      -25.146  84.218  10.423  0.00  0.00    +0.153 A 
ATOM     21  N   LIG    1      -23.853  83.933  10.160  0.00  0.00    -0.218 NA
BRANCH  15  23
ATOM     22  C   LIG    1      -21.248  83.047  10.643  0.00  0.00    +0.279 C 
ATOM     23  O   LIG    1      -21.586  84.429  10.491  0.00  0.00    -0.479 OA
ENDBRANCH  15  23
ENDBRANCH  10  16
ENDBRANCH   1  11
BRANCH   4  24
ATOM     24  C   LIG    1      -22.152  80.760  15.987  0.00  0.00    +0.249 C 
ATOM     25  N   LIG    1      -22.855  79.763  15.348  0.00  0.00    -0.308 N 
ATOM     26  H   LIG    1      -22.560  79.475  14.427  0.00  0.00    +0.149 HD
ATOM     27  O   LIG    1      -22.505  81.221  17.061  0.00  0.00    -0.270 OA
BRANCH  25  28
ATOM     28  C   LIG    1      -24.049  79.182  15.943  0.00  0.00    +0.138 C 
BRANCH  28  29
ATOM     29  C   LIG    1      -25.192  78.827  14.953  0.00  0.00    +0.076 C 
ATOM     30  C   LIG    1      -24.916  77.569  14.127  0.00  0.00    +0.042 C 
ATOM     31  C   LIG    1      -25.420  80.016  14.008  0.00  0.00    +0.042 C 
BRANCH  29  32
ATOM     32  O   LIG    1      -26.405  78.629  15.694  0.00  0.00    -0.388 OA
ATOM     33  H   LIG    1      -26.438  77.691  15.954  0.00  0.00    +0.210 HD
ENDBRANCH  29  32
ENDBRANCH  28  29
ENDBRANCH  25  28
ENDBRANCH   4  24
TORSDOF 7
ENDMDL
