MODEL 1
REMARK VINA RESULT:      -6.1      0.000      0.000
REMARK  Name = pdb/CHEMBL3659500.pdb
REMARK                            x       y       z     vdW  Elec       q    Type
REMARK                         _______ _______ _______ _____ _____    ______ ____
ROOT
ATOM      1  N   LIG    1      -26.536  76.706  32.488  0.00  0.00    -0.266 N 
ATOM      2  C   LIG    1      -27.913  76.544  32.412  0.00  0.00    +0.168 A 
ATOM      3  N   LIG    1      -28.736  76.662  31.335  0.00  0.00    -0.213 NA
ATOM      4  C   LIG    1      -30.045  76.444  31.606  0.00  0.00    +0.122 A 
ATOM      5  C   LIG    1      -30.524  76.185  32.898  0.00  0.00    +0.046 A 
ATOM      6  C   LIG    1      -29.653  76.083  33.983  0.00  0.00    +0.035 A 
ATOM      7  C   LIG    1      -28.298  76.263  33.721  0.00  0.00    +0.108 A 
ATOM      8  N   LIG    1      -27.232  76.228  34.576  0.00  0.00    -0.234 NA
ATOM      9  C   LIG    1      -26.199  76.500  33.813  0.00  0.00    +0.207 A 
ENDROOT
BRANCH   1  14
ATOM     10  C   LIG    1      -23.939  77.107  30.014  0.00  0.00    +0.213 A 
ATOM     11  N   LIG    1      -24.856  78.098  29.798  0.00  0.00    -0.245 N 
ATOM     12  H   LIG    1      -24.853  78.793  29.057  0.00  0.00    +0.192 HD
ATOM     13  N   LIG    1      -25.891  78.091  30.667  0.00  0.00    -0.153 NA
ATOM     14  C   LIG    1      -25.615  77.045  31.462  0.00  0.00    +0.165 A 
ATOM     15  C   LIG    1      -24.409  76.412  31.114  0.00  0.00    +0.115 A 
BRANCH  10  16
ATOM     16  O   LIG    1      -22.869  76.996  29.234  0.00  0.00    -0.477 OA
BRANCH  16  18
ATOM     17  C   LIG    1      -20.898  76.106  30.293  0.00  0.00    +0.048 C 
ATOM     18  C   LIG    1      -21.619  77.357  29.828  0.00  0.00    +0.227 C 
ENDBRANCH  16  18
ENDBRANCH  10  16
ENDBRANCH   1  14
BRANCH   4  19
ATOM     19  N   LIG    1      -31.025  76.540  30.604  0.00  0.00    -0.321 N 
ATOM     20  H   LIG    1      -31.940  76.711  31.016  0.00  0.00    +0.148 HD
BRANCH  19  21
ATOM     21  C   LIG    1      -31.126  75.507  29.569  0.00  0.00    +0.117 C 
ATOM     22  C   LIG    1      -31.183  74.094  30.164  0.00  0.00    +0.034 C 
BRANCH  21  23
ATOM     23  C   LIG    1      -32.414  75.769  28.763  0.00  0.00    +0.061 A 
ATOM     24  N   LIG    1      -32.516  76.950  28.086  0.00  0.00    -0.255 NA
ATOM     25  C   LIG    1      -33.656  77.183  27.392  0.00  0.00    +0.149 A 
ATOM     26  C   LIG    1      -34.698  76.281  27.311  0.00  0.00    +0.141 A 
ATOM     27  F   LIG    1      -35.805  76.574  26.616  0.00  0.00    -0.204 F 
ATOM     28  C   LIG    1      -34.576  75.064  27.961  0.00  0.00    +0.042 A 
ATOM     29  C   LIG    1      -33.417  74.797  28.694  0.00  0.00    +0.028 A 
ENDBRANCH  21  23
ENDBRANCH  19  21
ENDBRANCH   4  19
TORSDOF 6
ENDMDL
MODEL 2
REMARK VINA RESULT:      -6.1      7.036     11.710
REMARK  Name = pdb/CHEMBL3659500.pdb
REMARK                            x       y       z     vdW  Elec       q    Type
REMARK                         _______ _______ _______ _____ _____    ______ ____
ROOT
ATOM      1  N   LIG    1      -21.645  77.461  31.003  0.00  0.00    -0.266 N 
ATOM      2  C   LIG    1      -20.987  77.999  32.101  0.00  0.00    +0.168 A 
ATOM      3  N   LIG    1      -21.505  78.562  33.225  0.00  0.00    -0.213 NA
ATOM      4  C   LIG    1      -20.577  78.999  34.110  0.00  0.00    +0.122 A 
ATOM      5  C   LIG    1      -19.198  78.940  33.860  0.00  0.00    +0.046 A 
ATOM      6  C   LIG    1      -18.700  78.366  32.691  0.00  0.00    +0.035 A 
ATOM      7  C   LIG    1      -19.635  77.873  31.785  0.00  0.00    +0.108 A 
ATOM      8  N   LIG    1      -19.442  77.275  30.571  0.00  0.00    -0.234 NA
ATOM      9  C   LIG    1      -20.658  77.046  30.129  0.00  0.00    +0.207 A 
ENDROOT
BRANCH   1  14
ATOM     10  C   LIG    1      -25.202  76.882  30.814  0.00  0.00    +0.213 A 
ATOM     11  N   LIG    1      -24.898  77.821  29.869  0.00  0.00    -0.245 N 
ATOM     12  H   LIG    1      -25.541  78.313  29.256  0.00  0.00    +0.192 HD
ATOM     13  N   LIG    1      -23.585  78.134  29.804  0.00  0.00    -0.153 NA
ATOM     14  C   LIG    1      -23.040  77.359  30.756  0.00  0.00    +0.165 A 
ATOM     15  C   LIG    1      -23.993  76.551  31.398  0.00  0.00    +0.115 A 
BRANCH  10  16
ATOM     16  O   LIG    1      -26.457  76.479  30.985  0.00  0.00    -0.477 OA
BRANCH  16  18
ATOM     17  C   LIG    1      -28.151  76.882  32.650  0.00  0.00    +0.048 C 
ATOM     18  C   LIG    1      -26.843  76.183  32.330  0.00  0.00    +0.227 C 
ENDBRANCH  16  18
ENDBRANCH  10  16
ENDBRANCH   1  14
BRANCH   4  19
ATOM     19  N   LIG    1      -20.949  79.616  35.315  0.00  0.00    -0.321 N 
ATOM     20  H   LIG    1      -21.699  79.095  35.766  0.00  0.00    +0.148 HD
BRANCH  19  21
ATOM     21  C   LIG    1      -21.243  81.052  35.349  0.00  0.00    +0.117 C 
ATOM     22  C   LIG    1      -22.751  81.333  35.392  0.00  0.00    +0.034 C 
BRANCH  21  23
ATOM     23  C   LIG    1      -20.583  81.640  36.612  0.00  0.00    +0.061 A 
ATOM     24  N   LIG    1      -20.822  82.951  36.907  0.00  0.00    -0.255 NA
ATOM     25  C   LIG    1      -20.228  83.469  38.009  0.00  0.00    +0.149 A 
ATOM     26  C   LIG    1      -19.424  82.735  38.858  0.00  0.00    +0.141 A 
ATOM     27  F   LIG    1      -18.856  83.307  39.928  0.00  0.00    -0.204 F 
ATOM     28  C   LIG    1      -19.218  81.393  38.585  0.00  0.00    +0.042 A 
ATOM     29  C   LIG    1      -19.808  80.832  37.449  0.00  0.00    +0.028 A 
ENDBRANCH  21  23
ENDBRANCH  19  21
ENDBRANCH   4  19
TORSDOF 6
ENDMDL
MODEL 3
REMARK VINA RESULT:      -6.0      5.453      7.811
REMARK  Name = pdb/CHEMBL3659500.pdb
REMARK                            x       y       z     vdW  Elec       q    Type
REMARK                         _______ _______ _______ _____ _____    ______ ____
ROOT
ATOM      1  N   LIG    1      -32.206  76.330  28.569  0.00  0.00    -0.266 N 
ATOM      2  C   LIG    1      -32.787  75.069  28.549  0.00  0.00    +0.168 A 
ATOM      3  N   LIG    1      -33.868  74.630  27.850  0.00  0.00    -0.213 NA
ATOM      4  C   LIG    1      -34.181  73.329  28.064  0.00  0.00    +0.122 A 
ATOM      5  C   LIG    1      -33.493  72.520  28.980  0.00  0.00    +0.046 A 
ATOM      6  C   LIG    1      -32.396  73.006  29.690  0.00  0.00    +0.035 A 
ATOM      7  C   LIG    1      -32.030  74.329  29.455  0.00  0.00    +0.108 A 
ATOM      8  N   LIG    1      -31.018  75.064  30.005  0.00  0.00    -0.234 NA
ATOM      9  C   LIG    1      -31.152  76.252  29.461  0.00  0.00    +0.207 A 
ENDROOT
BRANCH   1  14
ATOM     10  C   LIG    1      -33.495  79.419  27.220  0.00  0.00    +0.213 A 
ATOM     11  N   LIG    1      -32.515  78.987  26.370  0.00  0.00    -0.245 N 
ATOM     12  H   LIG    1      -32.164  79.457  25.540  0.00  0.00    +0.192 HD
ATOM     13  N   LIG    1      -31.943  77.819  26.735  0.00  0.00    -0.153 NA
ATOM     14  C   LIG    1      -32.589  77.504  27.869  0.00  0.00    +0.165 A 
ATOM     15  C   LIG    1      -33.572  78.451  28.204  0.00  0.00    +0.115 A 
BRANCH  10  16
ATOM     16  O   LIG    1      -34.143  80.554  26.981  0.00  0.00    -0.477 OA
BRANCH  16  18
ATOM     17  C   LIG    1      -36.418  80.947  27.663  0.00  0.00    +0.048 C 
ATOM     18  C   LIG    1      -34.955  81.049  28.049  0.00  0.00    +0.227 C 
ENDBRANCH  16  18
ENDBRANCH  10  16
ENDBRANCH   1  14
BRANCH   4  19
ATOM     19  N   LIG    1      -35.278  72.727  27.427  0.00  0.00    -0.321 N 
ATOM     20  H   LIG    1      -35.213  72.843  26.418  0.00  0.00    +0.148 HD
BRANCH  19  21
ATOM     21  C   LIG    1      -36.643  73.015  27.878  0.00  0.00    +0.117 C 
ATOM     22  C   LIG    1      -36.663  73.774  29.212  0.00  0.00    +0.034 C 
BRANCH  21  23
ATOM     23  C   LIG    1      -37.327  73.875  26.797  0.00  0.00    +0.061 A 
ATOM     24  N   LIG    1      -37.169  75.229  26.862  0.00  0.00    -0.255 NA
ATOM     25  C   LIG    1      -37.784  75.983  25.919  0.00  0.00    +0.149 A 
ATOM     26  C   LIG    1      -38.531  75.452  24.886  0.00  0.00    +0.141 A 
ATOM     27  F   LIG    1      -39.123  76.251  23.989  0.00  0.00    -0.204 F 
ATOM     28  C   LIG    1      -38.653  74.076  24.793  0.00  0.00    +0.042 A 
ATOM     29  C   LIG    1      -38.039  73.271  25.756  0.00  0.00    +0.028 A 
ENDBRANCH  21  23
ENDBRANCH  19  21
ENDBRANCH   4  19
TORSDOF 6
ENDMDL
MODEL 4
REMARK VINA RESULT:      -6.0      5.499     10.274
REMARK  Name = pdb/CHEMBL3659500.pdb
REMARK                            x       y       z     vdW  Elec       q    Type
REMARK                         _______ _______ _______ _____ _____    ______ ____
ROOT
ATOM      1  N   LIG    1      -21.614  77.291  30.754  0.00  0.00    -0.266 N 
ATOM      2  C   LIG    1      -20.742  77.805  31.705  0.00  0.00    +0.168 A 
ATOM      3  N   LIG    1      -21.016  78.545  32.813  0.00  0.00    -0.213 NA
ATOM      4  C   LIG    1      -19.924  78.895  33.535  0.00  0.00    +0.122 A 
ATOM      5  C   LIG    1      -18.616  78.582  33.138  0.00  0.00    +0.046 A 
ATOM      6  C   LIG    1      -18.370  77.832  31.989  0.00  0.00    +0.035 A 
ATOM      7  C   LIG    1      -19.480  77.426  31.254  0.00  0.00    +0.108 A 
ATOM      8  N   LIG    1      -19.542  76.698  30.098  0.00  0.00    -0.234 NA
ATOM      9  C   LIG    1      -20.825  76.640  29.824  0.00  0.00    +0.207 A 
ENDROOT
BRANCH   1  14
ATOM     10  C   LIG    1      -25.198  77.517  31.102  0.00  0.00    +0.213 A 
ATOM     11  N   LIG    1      -24.903  77.802  29.799  0.00  0.00    -0.245 N 
ATOM     12  H   LIG    1      -25.548  78.079  29.064  0.00  0.00    +0.192 HD
ATOM     13  N   LIG    1      -23.586  77.740  29.505  0.00  0.00    -0.153 NA
ATOM     14  C   LIG    1      -23.027  77.405  30.678  0.00  0.00    +0.165 A 
ATOM     15  C   LIG    1      -23.981  77.236  31.696  0.00  0.00    +0.115 A 
BRANCH  10  16
ATOM     16  O   LIG    1      -26.456  77.540  31.530  0.00  0.00    -0.477 OA
BRANCH  16  18
ATOM     17  C   LIG    1      -27.174  76.109  33.329  0.00  0.00    +0.048 C 
ATOM     18  C   LIG    1      -27.042  76.270  31.827  0.00  0.00    +0.227 C 
ENDBRANCH  16  18
ENDBRANCH  10  16
ENDBRANCH   1  14
BRANCH   4  19
ATOM     19  N   LIG    1      -20.036  79.670  34.700  0.00  0.00    -0.321 N 
ATOM     20  H   LIG    1      -19.117  79.972  35.017  0.00  0.00    +0.148 HD
BRANCH  19  21
ATOM     21  C   LIG    1      -20.825  79.185  35.836  0.00  0.00    +0.117 C 
ATOM     22  C   LIG    1      -20.008  79.147  37.135  0.00  0.00    +0.034 C 
BRANCH  21  23
ATOM     23  C   LIG    1      -22.023  80.138  36.021  0.00  0.00    +0.061 A 
ATOM     24  N   LIG    1      -23.235  79.590  36.330  0.00  0.00    -0.255 NA
ATOM     25  C   LIG    1      -24.289  80.428  36.477  0.00  0.00    +0.149 A 
ATOM     26  C   LIG    1      -24.193  81.801  36.360  0.00  0.00    +0.141 A 
ATOM     27  F   LIG    1      -25.274  82.577  36.507  0.00  0.00    -0.204 F 
ATOM     28  C   LIG    1      -22.955  82.361  36.092  0.00  0.00    +0.042 A 
ATOM     29  C   LIG    1      -21.850  81.522  35.925  0.00  0.00    +0.028 A 
ENDBRANCH  21  23
ENDBRANCH  19  21
ENDBRANCH   4  19
TORSDOF 6
ENDMDL
MODEL 5
REMARK VINA RESULT:      -5.9      5.694      9.239
REMARK  Name = pdb/CHEMBL3659500.pdb
REMARK                            x       y       z     vdW  Elec       q    Type
REMARK                         _______ _______ _______ _____ _____    ______ ____
ROOT
ATOM      1  N   LIG    1      -25.878  77.069  32.231  0.00  0.00    -0.266 N 
ATOM      2  C   LIG    1      -25.896  77.599  33.514  0.00  0.00    +0.168 A 
ATOM      3  N   LIG    1      -24.979  78.389  34.133  0.00  0.00    -0.213 NA
ATOM      4  C   LIG    1      -25.301  78.730  35.404  0.00  0.00    +0.122 A 
ATOM      5  C   LIG    1      -26.450  78.254  36.053  0.00  0.00    +0.046 A 
ATOM      6  C   LIG    1      -27.365  77.435  35.392  0.00  0.00    +0.035 A 
ATOM      7  C   LIG    1      -27.074  77.104  34.071  0.00  0.00    +0.108 A 
ATOM      8  N   LIG    1      -27.774  76.325  33.194  0.00  0.00    -0.234 NA
ATOM      9  C   LIG    1      -27.033  76.319  32.109  0.00  0.00    +0.207 A 
ENDROOT
BRANCH   1  14
ATOM     10  C   LIG    1      -23.175  76.939  29.844  0.00  0.00    +0.213 A 
ATOM     11  N   LIG    1      -23.956  78.009  29.507  0.00  0.00    -0.245 N 
ATOM     12  H   LIG    1      -23.846  78.630  28.711  0.00  0.00    +0.192 HD
ATOM     13  N   LIG    1      -25.012  78.201  30.328  0.00  0.00    -0.153 NA
ATOM     14  C   LIG    1      -24.891  77.204  31.219  0.00  0.00    +0.165 A 
ATOM     15  C   LIG    1      -23.760  76.405  30.977  0.00  0.00    +0.115 A 
BRANCH  10  16
ATOM     16  O   LIG    1      -22.102  76.634  29.121  0.00  0.00    -0.477 OA
BRANCH  16  18
ATOM     17  C   LIG    1      -20.436  77.782  30.427  0.00  0.00    +0.048 C 
ATOM     18  C   LIG    1      -20.885  76.453  29.850  0.00  0.00    +0.227 C 
ENDBRANCH  16  18
ENDBRANCH  10  16
ENDBRANCH   1  14
BRANCH   4  19
ATOM     19  N   LIG    1      -24.452  79.531  36.184  0.00  0.00    -0.321 N 
ATOM     20  H   LIG    1      -24.933  79.849  37.023  0.00  0.00    +0.148 HD
BRANCH  19  21
ATOM     21  C   LIG    1      -23.722  80.646  35.572  0.00  0.00    +0.117 C 
ATOM     22  C   LIG    1      -23.915  81.958  36.344  0.00  0.00    +0.034 C 
BRANCH  21  23
ATOM     23  C   LIG    1      -22.224  80.281  35.563  0.00  0.00    +0.061 A 
ATOM     24  N   LIG    1      -21.747  79.559  34.508  0.00  0.00    -0.255 NA
ATOM     25  C   LIG    1      -20.433  79.227  34.510  0.00  0.00    +0.149 A 
ATOM     26  C   LIG    1      -19.554  79.606  35.505  0.00  0.00    +0.141 A 
ATOM     27  F   LIG    1      -18.267  79.238  35.456  0.00  0.00    -0.204 F 
ATOM     28  C   LIG    1      -20.027  80.378  36.553  0.00  0.00    +0.042 A 
ATOM     29  C   LIG    1      -21.379  80.727  36.584  0.00  0.00    +0.028 A 
ENDBRANCH  21  23
ENDBRANCH  19  21
ENDBRANCH   4  19
TORSDOF 6
ENDMDL
MODEL 6
REMARK VINA RESULT:      -5.9     17.094     19.536
REMARK  Name = pdb/CHEMBL3659500.pdb
REMARK                            x       y       z     vdW  Elec       q    Type
REMARK                         _______ _______ _______ _____ _____    ______ ____
ROOT
ATOM      1  N   LIG    1      -31.693  93.665  22.906  0.00  0.00    -0.266 N 
ATOM      2  C   LIG    1      -32.108  93.416  21.605  0.00  0.00    +0.168 A 
ATOM      3  N   LIG    1      -33.132  92.638  21.161  0.00  0.00    -0.213 NA
ATOM      4  C   LIG    1      -33.265  92.606  19.813  0.00  0.00    +0.122 A 
ATOM      5  C   LIG    1      -32.382  93.261  18.944  0.00  0.00    +0.046 A 
ATOM      6  C   LIG    1      -31.334  94.042  19.432  0.00  0.00    +0.035 A 
ATOM      7  C   LIG    1      -31.203  94.123  20.815  0.00  0.00    +0.108 A 
ATOM      8  N   LIG    1      -30.280  94.796  21.565  0.00  0.00    -0.234 NA
ATOM      9  C   LIG    1      -30.595  94.500  22.805  0.00  0.00    +0.207 A 
ENDROOT
BRANCH   1  14
ATOM     10  C   LIG    1      -33.383  92.823  25.982  0.00  0.00    +0.213 A 
ATOM     11  N   LIG    1      -32.517  91.802  25.707  0.00  0.00    -0.245 N 
ATOM     12  H   LIG    1      -32.395  90.937  26.226  0.00  0.00    +0.192 HD
ATOM     13  N   LIG    1      -31.791  91.981  24.582  0.00  0.00    -0.153 NA
ATOM     14  C   LIG    1      -32.222  93.168  24.126  0.00  0.00    +0.165 A 
ATOM     15  C   LIG    1      -33.194  93.741  24.965  0.00  0.00    +0.115 A 
BRANCH  10  16
ATOM     16  O   LIG    1      -34.160  92.778  27.059  0.00  0.00    -0.477 OA
BRANCH  16  18
ATOM     17  C   LIG    1      -35.668  90.910  27.244  0.00  0.00    +0.048 C 
ATOM     18  C   LIG    1      -34.329  91.490  27.656  0.00  0.00    +0.227 C 
ENDBRANCH  16  18
ENDBRANCH  10  16
ENDBRANCH   1  14
BRANCH   4  19
ATOM     19  N   LIG    1      -34.266  91.838  19.196  0.00  0.00    -0.321 N 
ATOM     20  H   LIG    1      -35.186  92.116  19.532  0.00  0.00    +0.148 HD
BRANCH  19  21
ATOM     21  C   LIG    1      -34.162  90.376  19.166  0.00  0.00    +0.117 C 
ATOM     22  C   LIG    1      -35.428  89.695  19.705  0.00  0.00    +0.034 C 
BRANCH  21  23
ATOM     23  C   LIG    1      -33.942  89.948  17.702  0.00  0.00    +0.061 A 
ATOM     24  N   LIG    1      -34.163  90.874  16.724  0.00  0.00    -0.255 NA
ATOM     25  C   LIG    1      -33.983  90.489  15.437  0.00  0.00    +0.149 A 
ATOM     26  C   LIG    1      -33.562  89.226  15.071  0.00  0.00    +0.141 A 
ATOM     27  F   LIG    1      -33.412  88.903  13.779  0.00  0.00    -0.204 F 
ATOM     28  C   LIG    1      -33.294  88.300  16.064  0.00  0.00    +0.042 A 
ATOM     29  C   LIG    1      -33.480  88.663  17.401  0.00  0.00    +0.028 A 
ENDBRANCH  21  23
ENDBRANCH  19  21
ENDBRANCH   4  19
TORSDOF 6
ENDMDL
MODEL 7
REMARK VINA RESULT:      -5.9      5.679      8.393
REMARK  Name = pdb/CHEMBL3659500.pdb
REMARK                            x       y       z     vdW  Elec       q    Type
REMARK                         _______ _______ _______ _____ _____    ______ ____
ROOT
ATOM      1  N   LIG    1      -32.206  76.331  28.644  0.00  0.00    -0.266 N 
ATOM      2  C   LIG    1      -32.732  75.046  28.619  0.00  0.00    +0.168 A 
ATOM      3  N   LIG    1      -33.773  74.556  27.894  0.00  0.00    -0.213 NA
ATOM      4  C   LIG    1      -34.036  73.245  28.111  0.00  0.00    +0.122 A 
ATOM      5  C   LIG    1      -33.341  72.473  29.053  0.00  0.00    +0.046 A 
ATOM      6  C   LIG    1      -32.286  73.011  29.789  0.00  0.00    +0.035 A 
ATOM      7  C   LIG    1      -31.970  74.346  29.553  0.00  0.00    +0.108 A 
ATOM      8  N   LIG    1      -31.006  75.129  30.124  0.00  0.00    -0.234 NA
ATOM      9  C   LIG    1      -31.175  76.305  29.566  0.00  0.00    +0.207 A 
ENDROOT
BRANCH   1  14
ATOM     10  C   LIG    1      -33.503  79.405  27.270  0.00  0.00    +0.213 A 
ATOM     11  N   LIG    1      -32.668  78.868  26.332  0.00  0.00    -0.245 N 
ATOM     12  H   LIG    1      -32.406  79.266  25.435  0.00  0.00    +0.192 HD
ATOM     13  N   LIG    1      -32.112  77.692  26.697  0.00  0.00    -0.153 NA
ATOM     14  C   LIG    1      -32.617  77.483  27.923  0.00  0.00    +0.165 A 
ATOM     15  C   LIG    1      -33.499  78.503  28.318  0.00  0.00    +0.115 A 
BRANCH  10  16
ATOM     16  O   LIG    1      -34.119  80.561  27.043  0.00  0.00    -0.477 OA
BRANCH  16  18
ATOM     17  C   LIG    1      -36.410  80.688  27.772  0.00  0.00    +0.048 C 
ATOM     18  C   LIG    1      -34.969  81.036  28.090  0.00  0.00    +0.227 C 
ENDBRANCH  16  18
ENDBRANCH  10  16
ENDBRANCH   1  14
BRANCH   4  19
ATOM     19  N   LIG    1      -35.088  72.591  27.448  0.00  0.00    -0.321 N 
ATOM     20  H   LIG    1      -35.842  73.244  27.246  0.00  0.00    +0.148 HD
BRANCH  19  21
ATOM     21  C   LIG    1      -35.634  71.341  27.986  0.00  0.00    +0.117 C 
ATOM     22  C   LIG    1      -37.152  71.418  28.199  0.00  0.00    +0.034 C 
BRANCH  21  23
ATOM     23  C   LIG    1      -35.322  70.217  26.979  0.00  0.00    +0.061 A 
ATOM     24  N   LIG    1      -36.119  70.105  25.877  0.00  0.00    -0.255 NA
ATOM     25  C   LIG    1      -35.850  69.106  25.001  0.00  0.00    +0.149 A 
ATOM     26  C   LIG    1      -34.801  68.221  25.153  0.00  0.00    +0.141 A 
ATOM     27  F   LIG    1      -34.593  67.247  24.257  0.00  0.00    -0.204 F 
ATOM     28  C   LIG    1      -33.964  68.362  26.247  0.00  0.00    +0.042 A 
ATOM     29  C   LIG    1      -34.221  69.376  27.174  0.00  0.00    +0.028 A 
ENDBRANCH  21  23
ENDBRANCH  19  21
ENDBRANCH   4  19
TORSDOF 6
ENDMDL
MODEL 8
REMARK VINA RESULT:      -5.9      7.997     12.894
REMARK  Name = pdb/CHEMBL3659500.pdb
REMARK                            x       y       z     vdW  Elec       q    Type
REMARK                         _______ _______ _______ _____ _____    ______ ____
ROOT
ATOM      1  N   LIG    1      -40.111  77.994  24.104  0.00  0.00    -0.266 N 
ATOM      2  C   LIG    1      -39.338  76.935  24.563  0.00  0.00    +0.168 A 
ATOM      3  N   LIG    1      -38.149  76.959  25.223  0.00  0.00    -0.213 NA
ATOM      4  C   LIG    1      -37.653  75.735  25.524  0.00  0.00    +0.122 A 
ATOM      5  C   LIG    1      -38.276  74.542  25.131  0.00  0.00    +0.046 A 
ATOM      6  C   LIG    1      -39.489  74.553  24.444  0.00  0.00    +0.035 A 
ATOM      7  C   LIG    1      -40.039  75.800  24.159  0.00  0.00    +0.108 A 
ATOM      8  N   LIG    1      -41.195  76.114  23.501  0.00  0.00    -0.234 NA
ATOM      9  C   LIG    1      -41.207  77.427  23.481  0.00  0.00    +0.207 A 
ENDROOT
BRANCH   1  14
ATOM     10  C   LIG    1      -39.445  81.527  23.793  0.00  0.00    +0.213 A 
ATOM     11  N   LIG    1      -39.743  81.289  25.106  0.00  0.00    -0.245 N 
ATOM     12  H   LIG    1      -39.819  81.969  25.857  0.00  0.00    +0.192 HD
ATOM     13  N   LIG    1      -40.001  79.993  25.387  0.00  0.00    -0.153 NA
ATOM     14  C   LIG    1      -39.864  79.389  24.195  0.00  0.00    +0.165 A 
ATOM     15  C   LIG    1      -39.502  80.289  23.179  0.00  0.00    +0.115 A 
BRANCH  10  16
ATOM     16  O   LIG    1      -39.170  82.759  23.377  0.00  0.00    -0.477 OA
BRANCH  16  18
ATOM     17  C   LIG    1      -38.154  84.918  23.700  0.00  0.00    +0.048 C 
ATOM     18  C   LIG    1      -38.159  83.457  24.108  0.00  0.00    +0.227 C 
ENDBRANCH  16  18
ENDBRANCH  10  16
ENDBRANCH   1  14
BRANCH   4  19
ATOM     19  N   LIG    1      -36.427  75.588  26.194  0.00  0.00    -0.321 N 
ATOM     20  H   LIG    1      -36.138  74.611  26.197  0.00  0.00    +0.148 HD
BRANCH  19  21
ATOM     21  C   LIG    1      -36.238  76.172  27.525  0.00  0.00    +0.117 C 
ATOM     22  C   LIG    1      -36.101  75.100  28.614  0.00  0.00    +0.034 C 
BRANCH  21  23
ATOM     23  C   LIG    1      -34.954  77.024  27.489  0.00  0.00    +0.061 A 
ATOM     24  N   LIG    1      -35.063  78.358  27.758  0.00  0.00    -0.255 NA
ATOM     25  C   LIG    1      -33.934  79.106  27.711  0.00  0.00    +0.149 A 
ATOM     26  C   LIG    1      -32.685  78.586  27.436  0.00  0.00    +0.141 A 
ATOM     27  F   LIG    1      -31.608  79.380  27.394  0.00  0.00    -0.204 F 
ATOM     28  C   LIG    1      -32.567  77.225  27.208  0.00  0.00    +0.042 A 
ATOM     29  C   LIG    1      -33.714  76.427  27.239  0.00  0.00    +0.028 A 
ENDBRANCH  21  23
ENDBRANCH  19  21
ENDBRANCH   4  19
TORSDOF 6
ENDMDL
MODEL 9
REMARK VINA RESULT:      -5.8     16.789     19.371
REMARK  Name = pdb/CHEMBL3659500.pdb
REMARK                            x       y       z     vdW  Elec       q    Type
REMARK                         _______ _______ _______ _____ _____    ______ ____
ROOT
ATOM      1  N   LIG    1      -32.057  93.650  24.644  0.00  0.00    -0.266 N 
ATOM      2  C   LIG    1      -31.764  93.762  23.292  0.00  0.00    +0.168 A 
ATOM      3  N   LIG    1      -32.246  93.042  22.243  0.00  0.00    -0.213 NA
ATOM      4  C   LIG    1      -31.744  93.405  21.039  0.00  0.00    +0.122 A 
ATOM      5  C   LIG    1      -30.759  94.392  20.889  0.00  0.00    +0.046 A 
ATOM      6  C   LIG    1      -30.278  95.103  21.987  0.00  0.00    +0.035 A 
ATOM      7  C   LIG    1      -30.809  94.776  23.231  0.00  0.00    +0.108 A 
ATOM      8  N   LIG    1      -30.526  95.292  24.464  0.00  0.00    -0.234 NA
ATOM      9  C   LIG    1      -31.281  94.598  25.285  0.00  0.00    +0.207 A 
ENDROOT
BRANCH   1  14
ATOM     10  C   LIG    1      -34.678  91.733  26.219  0.00  0.00    +0.213 A 
ATOM     11  N   LIG    1      -33.571  90.932  26.165  0.00  0.00    -0.245 N 
ATOM     12  H   LIG    1      -33.494  89.963  26.459  0.00  0.00    +0.192 HD
ATOM     13  N   LIG    1      -32.489  91.522  25.612  0.00  0.00    -0.153 NA
ATOM     14  C   LIG    1      -32.937  92.748  25.299  0.00  0.00    +0.165 A 
ATOM     15  C   LIG    1      -34.279  92.938  25.670  0.00  0.00    +0.115 A 
BRANCH  10  16
ATOM     16  O   LIG    1      -35.814  91.280  26.739  0.00  0.00    -0.477 OA
BRANCH  16  18
ATOM     17  C   LIG    1      -36.669  89.034  26.599  0.00  0.00    +0.048 C 
ATOM     18  C   LIG    1      -36.567  90.385  25.918  0.00  0.00    +0.227 C 
ENDBRANCH  16  18
ENDBRANCH  10  16
ENDBRANCH   1  14
BRANCH   4  19
ATOM     19  N   LIG    1      -32.131  92.750  19.858  0.00  0.00    -0.321 N 
ATOM     20  H   LIG    1      -31.907  93.320  19.044  0.00  0.00    +0.148 HD
BRANCH  19  21
ATOM     21  C   LIG    1      -33.485  92.201  19.728  0.00  0.00    +0.117 C 
ATOM     22  C   LIG    1      -34.532  93.295  19.479  0.00  0.00    +0.034 C 
BRANCH  21  23
ATOM     23  C   LIG    1      -33.485  91.221  18.538  0.00  0.00    +0.061 A 
ATOM     24  N   LIG    1      -33.040  91.679  17.332  0.00  0.00    -0.255 NA
ATOM     25  C   LIG    1      -33.056  90.819  16.285  0.00  0.00    +0.149 A 
ATOM     26  C   LIG    1      -33.469  89.505  16.384  0.00  0.00    +0.141 A 
ATOM     27  F   LIG    1      -33.472  88.706  15.309  0.00  0.00    -0.204 F 
ATOM     28  C   LIG    1      -33.878  89.027  17.618  0.00  0.00    +0.042 A 
ATOM     29  C   LIG    1      -33.883  89.892  18.715  0.00  0.00    +0.028 A 
ENDBRANCH  21  23
ENDBRANCH  19  21
ENDBRANCH   4  19
TORSDOF 6
ENDMDL
