MODEL 1
REMARK VINA RESULT:      -5.9      0.000      0.000
REMARK  Name = pdb/CHEMBL3675931.pdb
REMARK                            x       y       z     vdW  Elec       q    Type
REMARK                         _______ _______ _______ _____ _____    ______ ____
ROOT
ATOM      1  C   LIG    1      -37.986  74.096  27.832  0.00  0.00    +0.126 A 
ATOM      2  N   LIG    1      -36.739  73.931  28.224  0.00  0.00    -0.212 NA
ATOM      3  C   LIG    1      -36.506  73.122  29.306  0.00  0.00    +0.170 A 
ATOM      4  C   LIG    1      -35.339  72.783  29.968  0.00  0.00    +0.100 A 
ATOM      5  C   LIG    1      -35.779  72.002  31.057  0.00  0.00    +0.150 A 
ATOM      6  N   LIG    1      -37.096  71.781  31.050  0.00  0.00    -0.173 NA
ATOM      7  N   LIG    1      -37.540  72.458  29.966  0.00  0.00    -0.221 N 
ATOM      8  C   LIG    1      -38.838  72.538  29.490  0.00  0.00    +0.118 A 
ATOM      9  C   LIG    1      -39.125  73.322  28.443  0.00  0.00    +0.063 A 
ENDROOT
BRANCH   1  11
ATOM     10  C   LIG    1      -37.982  74.791  25.384  0.00  0.00    +0.105 C 
ATOM     11  N   LIG    1      -38.213  75.001  26.813  0.00  0.00    -0.308 N 
ATOM     12  C   LIG    1      -38.425  76.420  27.097  0.00  0.00    +0.107 C 
ATOM     13  C   LIG    1      -37.847  77.129  25.881  0.00  0.00    +0.021 C 
ATOM     14  C   LIG    1      -38.180  76.176  24.749  0.00  0.00    +0.029 C 
BRANCH  10  16
ATOM     15  C   LIG    1      -38.614  72.344  24.632  0.00  0.00    -0.017 A 
ATOM     16  C   LIG    1      -38.845  73.742  24.689  0.00  0.00    -0.019 A 
ATOM     17  C   LIG    1      -40.055  74.230  24.139  0.00  0.00    +0.044 A 
ATOM     18  C   LIG    1      -40.989  73.381  23.552  0.00  0.00    +0.124 A 
ATOM     19  F   LIG    1      -42.125  73.891  23.060  0.00  0.00    -0.205 F 
ATOM     20  C   LIG    1      -40.766  72.020  23.489  0.00  0.00    +0.039 A 
ATOM     21  C   LIG    1      -39.590  71.507  24.030  0.00  0.00    +0.009 A 
BRANCH  15  22
ATOM     22  C   LIG    1      -37.424  71.632  25.228  0.00  0.00    +0.191 C 
BRANCH  22  23
ATOM     23  O   LIG    1      -36.378  71.584  24.268  0.00  0.00    -0.390 OA
ATOM     24  H   LIG    1      -36.233  72.502  23.985  0.00  0.00    +0.210 HD
ENDBRANCH  22  23
ENDBRANCH  15  22
ENDBRANCH  10  16
ENDBRANCH   1  11
BRANCH   4  25
ATOM     25  C   LIG    1      -33.974  73.157  29.646  0.00  0.00    +0.249 C 
ATOM     26  N   LIG    1      -33.788  74.513  29.440  0.00  0.00    -0.310 N 
ATOM     27  H   LIG    1      -34.590  75.116  29.588  0.00  0.00    +0.149 HD
ATOM     28  O   LIG    1      -33.084  72.333  29.547  0.00  0.00    -0.270 OA
BRANCH  26  29
ATOM     29  C   LIG    1      -32.488  75.110  29.200  0.00  0.00    +0.120 C 
BRANCH  29  30
ATOM     30  C   LIG    1      -32.553  76.588  28.755  0.00  0.00    +0.103 C 
BRANCH  30  31
ATOM     31  N   LIG    1      -33.262  76.793  27.474  0.00  0.00    -0.297 NA
ATOM     32  C   LIG    1      -32.441  77.585  26.523  0.00  0.00    +0.112 C 
ATOM     33  C   LIG    1      -32.317  79.078  26.883  0.00  0.00    +0.175 C 
ATOM     34  O   LIG    1      -33.608  79.689  27.014  0.00  0.00    -0.377 OA
ATOM     35  C   LIG    1      -34.396  79.003  27.994  0.00  0.00    +0.175 C 
ATOM     36  C   LIG    1      -34.548  77.514  27.642  0.00  0.00    +0.112 C 
ENDBRANCH  30  31
ENDBRANCH  29  30
ENDBRANCH  26  29
ENDBRANCH   4  25
TORSDOF 8
ENDMDL
MODEL 2
REMARK VINA RESULT:      -5.7     16.876     19.900
REMARK  Name = pdb/CHEMBL3675931.pdb
REMARK                            x       y       z     vdW  Elec       q    Type
REMARK                         _______ _______ _______ _____ _____    ______ ____
ROOT
ATOM      1  C   LIG    1      -20.545  77.622  14.765  0.00  0.00    +0.126 A 
ATOM      2  N   LIG    1      -21.683  78.285  14.820  0.00  0.00    -0.212 NA
ATOM      3  C   LIG    1      -21.705  79.469  15.511  0.00  0.00    +0.170 A 
ATOM      4  C   LIG    1      -22.730  80.361  15.774  0.00  0.00    +0.100 A 
ATOM      5  C   LIG    1      -22.135  81.323  16.618  0.00  0.00    +0.150 A 
ATOM      6  N   LIG    1      -20.829  81.122  16.809  0.00  0.00    -0.173 NA
ATOM      7  N   LIG    1      -20.563  79.990  16.117  0.00  0.00    -0.221 N 
ATOM      8  C   LIG    1      -19.341  79.356  15.967  0.00  0.00    +0.118 A 
ATOM      9  C   LIG    1      -19.262  78.191  15.313  0.00  0.00    +0.063 A 
ENDROOT
BRANCH   1  11
ATOM     10  C   LIG    1      -20.101  75.117  14.734  0.00  0.00    +0.105 C 
ATOM     11  N   LIG    1      -20.566  76.379  14.162  0.00  0.00    -0.308 N 
ATOM     12  C   LIG    1      -20.779  76.244  12.721  0.00  0.00    +0.107 C 
ATOM     13  C   LIG    1      -19.980  75.005  12.346  0.00  0.00    +0.021 C 
ATOM     14  C   LIG    1      -20.144  74.119  13.566  0.00  0.00    +0.029 C 
BRANCH  10  16
ATOM     15  C   LIG    1      -22.271  74.529  16.112  0.00  0.00    -0.017 A 
ATOM     16  C   LIG    1      -20.864  74.579  15.941  0.00  0.00    -0.019 A 
ATOM     17  C   LIG    1      -20.060  73.975  16.938  0.00  0.00    +0.044 A 
ATOM     18  C   LIG    1      -20.617  73.361  18.056  0.00  0.00    +0.124 A 
ATOM     19  F   LIG    1      -19.813  72.791  18.963  0.00  0.00    -0.205 F 
ATOM     20  C   LIG    1      -21.985  73.315  18.229  0.00  0.00    +0.039 A 
ATOM     21  C   LIG    1      -22.805  73.889  17.262  0.00  0.00    +0.009 A 
BRANCH  15  22
ATOM     22  C   LIG    1      -23.287  75.048  15.124  0.00  0.00    +0.191 C 
BRANCH  22  23
ATOM     23  O   LIG    1      -23.724  76.335  15.534  0.00  0.00    -0.390 OA
ATOM     24  H   LIG    1      -23.384  76.459  16.437  0.00  0.00    +0.210 HD
ENDBRANCH  22  23
ENDBRANCH  15  22
ENDBRANCH  10  16
ENDBRANCH   1  11
BRANCH   4  25
ATOM     25  C   LIG    1      -24.107  80.318  15.319  0.00  0.00    +0.249 C 
ATOM     26  N   LIG    1      -24.763  79.131  15.595  0.00  0.00    -0.310 N 
ATOM     27  H   LIG    1      -24.252  78.436  16.130  0.00  0.00    +0.149 HD
ATOM     28  O   LIG    1      -24.621  81.249  14.727  0.00  0.00    -0.270 OA
BRANCH  26  29
ATOM     29  C   LIG    1      -26.168  78.913  15.310  0.00  0.00    +0.120 C 
BRANCH  29  30
ATOM     30  C   LIG    1      -26.433  78.288  13.923  0.00  0.00    +0.103 C 
BRANCH  30  31
ATOM     31  N   LIG    1      -26.250  76.821  13.886  0.00  0.00    -0.297 NA
ATOM     32  C   LIG    1      -25.639  76.384  12.604  0.00  0.00    +0.112 C 
ATOM     33  C   LIG    1      -26.588  76.461  11.393  0.00  0.00    +0.175 C 
ATOM     34  O   LIG    1      -27.787  75.710  11.624  0.00  0.00    -0.377 OA
ATOM     35  C   LIG    1      -28.452  76.169  12.807  0.00  0.00    +0.175 C 
ATOM     36  C   LIG    1      -27.527  76.082  14.033  0.00  0.00    +0.112 C 
ENDBRANCH  30  31
ENDBRANCH  29  30
ENDBRANCH  26  29
ENDBRANCH   4  25
TORSDOF 8
ENDMDL
MODEL 3
REMARK VINA RESULT:      -5.6      8.637     13.185
REMARK  Name = pdb/CHEMBL3675931.pdb
REMARK                            x       y       z     vdW  Elec       q    Type
REMARK                         _______ _______ _______ _____ _____    ______ ____
ROOT
ATOM      1  C   LIG    1      -25.385  76.078  33.586  0.00  0.00    +0.126 A 
ATOM      2  N   LIG    1      -26.554  76.142  32.979  0.00  0.00    -0.212 NA
ATOM      3  C   LIG    1      -27.276  74.983  32.849  0.00  0.00    +0.170 A 
ATOM      4  C   LIG    1      -28.493  74.721  32.244  0.00  0.00    +0.100 A 
ATOM      5  C   LIG    1      -28.636  73.322  32.360  0.00  0.00    +0.150 A 
ATOM      6  N   LIG    1      -27.650  72.746  33.052  0.00  0.00    -0.173 NA
ATOM      7  N   LIG    1      -26.821  73.769  33.363  0.00  0.00    -0.221 N 
ATOM      8  C   LIG    1      -25.649  73.718  34.099  0.00  0.00    +0.118 A 
ATOM      9  C   LIG    1      -24.898  74.816  34.249  0.00  0.00    +0.063 A 
ENDROOT
BRANCH   1  11
ATOM     10  C   LIG    1      -23.190  77.339  33.343  0.00  0.00    +0.105 C 
ATOM     11  N   LIG    1      -24.623  77.229  33.610  0.00  0.00    -0.308 N 
ATOM     12  C   LIG    1      -25.126  78.454  34.231  0.00  0.00    +0.107 C 
ATOM     13  C   LIG    1      -23.876  79.134  34.771  0.00  0.00    +0.021 C 
ATOM     14  C   LIG    1      -22.829  78.782  33.731  0.00  0.00    +0.029 C 
BRANCH  10  16
ATOM     15  C   LIG    1      -23.344  77.410  30.711  0.00  0.00    -0.017 A 
ATOM     16  C   LIG    1      -22.723  77.022  31.925  0.00  0.00    -0.019 A 
ATOM     17  C   LIG    1      -21.475  76.357  31.840  0.00  0.00    +0.044 A 
ATOM     18  C   LIG    1      -20.874  76.079  30.616  0.00  0.00    +0.124 A 
ATOM     19  F   LIG    1      -19.686  75.462  30.590  0.00  0.00    -0.205 F 
ATOM     20  C   LIG    1      -21.479  76.450  29.431  0.00  0.00    +0.039 A 
ATOM     21  C   LIG    1      -22.701  77.114  29.480  0.00  0.00    +0.009 A 
BRANCH  15  22
ATOM     22  C   LIG    1      -24.632  78.189  30.602  0.00  0.00    +0.191 C 
BRANCH  22  23
ATOM     23  O   LIG    1      -25.692  77.301  30.282  0.00  0.00    -0.390 OA
ATOM     24  H   LIG    1      -25.342  76.404  30.423  0.00  0.00    +0.210 HD
ENDBRANCH  22  23
ENDBRANCH  15  22
ENDBRANCH  10  16
ENDBRANCH   1  11
BRANCH   4  25
ATOM     25  C   LIG    1      -29.409  75.651  31.612  0.00  0.00    +0.249 C 
ATOM     26  N   LIG    1      -30.712  75.193  31.518  0.00  0.00    -0.310 N 
ATOM     27  H   LIG    1      -30.917  74.295  31.942  0.00  0.00    +0.149 HD
ATOM     28  O   LIG    1      -29.043  76.730  31.185  0.00  0.00    -0.270 OA
BRANCH  26  29
ATOM     29  C   LIG    1      -31.803  75.999  31.005  0.00  0.00    +0.120 C 
BRANCH  29  30
ATOM     30  C   LIG    1      -32.067  75.806  29.496  0.00  0.00    +0.103 C 
BRANCH  30  31
ATOM     31  N   LIG    1      -33.500  75.832  29.133  0.00  0.00    -0.297 NA
ATOM     32  C   LIG    1      -33.688  75.702  27.665  0.00  0.00    +0.112 C 
ATOM     33  C   LIG    1      -33.294  76.958  26.864  0.00  0.00    +0.175 C 
ATOM     34  O   LIG    1      -34.000  78.115  27.330  0.00  0.00    -0.377 OA
ATOM     35  C   LIG    1      -33.765  78.323  28.728  0.00  0.00    +0.175 C 
ATOM     36  C   LIG    1      -34.171  77.087  29.549  0.00  0.00    +0.112 C 
ENDBRANCH  30  31
ENDBRANCH  29  30
ENDBRANCH  26  29
ENDBRANCH   4  25
TORSDOF 8
ENDMDL
MODEL 4
REMARK VINA RESULT:      -5.6      8.199     12.851
REMARK  Name = pdb/CHEMBL3675931.pdb
REMARK                            x       y       z     vdW  Elec       q    Type
REMARK                         _______ _______ _______ _____ _____    ______ ____
ROOT
ATOM      1  C   LIG    1      -26.049  75.121  32.810  0.00  0.00    +0.126 A 
ATOM      2  N   LIG    1      -27.236  75.197  32.241  0.00  0.00    -0.212 NA
ATOM      3  C   LIG    1      -28.149  76.073  32.772  0.00  0.00    +0.170 A 
ATOM      4  C   LIG    1      -29.461  76.351  32.431  0.00  0.00    +0.100 A 
ATOM      5  C   LIG    1      -29.881  77.266  33.419  0.00  0.00    +0.150 A 
ATOM      6  N   LIG    1      -28.909  77.615  34.265  0.00  0.00    -0.173 NA
ATOM      7  N   LIG    1      -27.841  76.890  33.858  0.00  0.00    -0.221 N 
ATOM      8  C   LIG    1      -26.560  76.897  34.387  0.00  0.00    +0.118 A 
ATOM      9  C   LIG    1      -25.632  76.055  33.916  0.00  0.00    +0.063 A 
ENDROOT
BRANCH   1  11
ATOM     10  C   LIG    1      -24.361  74.231  31.127  0.00  0.00    +0.105 C 
ATOM     11  N   LIG    1      -25.182  74.157  32.335  0.00  0.00    -0.308 N 
ATOM     12  C   LIG    1      -25.228  72.786  32.842  0.00  0.00    +0.107 C 
ATOM     13  C   LIG    1      -24.806  71.938  31.651  0.00  0.00    +0.021 C 
ATOM     14  C   LIG    1      -23.781  72.818  30.961  0.00  0.00    +0.029 C 
BRANCH  10  16
ATOM     15  C   LIG    1      -23.407  76.682  30.927  0.00  0.00    -0.017 A 
ATOM     16  C   LIG    1      -23.256  75.283  31.104  0.00  0.00    -0.019 A 
ATOM     17  C   LIG    1      -21.959  74.796  31.399  0.00  0.00    +0.044 A 
ATOM     18  C   LIG    1      -20.862  75.646  31.504  0.00  0.00    +0.124 A 
ATOM     19  F   LIG    1      -19.660  75.136  31.799  0.00  0.00    -0.205 F 
ATOM     20  C   LIG    1      -21.004  77.008  31.326  0.00  0.00    +0.039 A 
ATOM     21  C   LIG    1      -22.268  77.520  31.045  0.00  0.00    +0.009 A 
BRANCH  15  22
ATOM     22  C   LIG    1      -24.716  77.392  30.683  0.00  0.00    +0.191 C 
BRANCH  22  23
ATOM     23  O   LIG    1      -25.026  77.339  29.298  0.00  0.00    -0.390 OA
ATOM     24  H   LIG    1      -24.864  76.421  29.022  0.00  0.00    +0.210 HD
ENDBRANCH  22  23
ENDBRANCH  15  22
ENDBRANCH  10  16
ENDBRANCH   1  11
BRANCH   4  25
ATOM     25  C   LIG    1      -30.245  75.818  31.333  0.00  0.00    +0.249 C 
ATOM     26  N   LIG    1      -30.574  76.748  30.362  0.00  0.00    -0.310 N 
ATOM     27  H   LIG    1      -30.197  77.683  30.474  0.00  0.00    +0.149 HD
ATOM     28  O   LIG    1      -30.594  74.653  31.294  0.00  0.00    -0.270 OA
BRANCH  26  29
ATOM     29  C   LIG    1      -31.272  76.407  29.138  0.00  0.00    +0.120 C 
BRANCH  29  30
ATOM     30  C   LIG    1      -32.729  76.917  29.087  0.00  0.00    +0.103 C 
BRANCH  30  31
ATOM     31  N   LIG    1      -33.311  76.920  27.728  0.00  0.00    -0.297 NA
ATOM     32  C   LIG    1      -32.395  77.558  26.748  0.00  0.00    +0.112 C 
ATOM     33  C   LIG    1      -32.289  79.089  26.884  0.00  0.00    +0.175 C 
ATOM     34  O   LIG    1      -33.580  79.708  26.796  0.00  0.00    -0.377 OA
ATOM     35  C   LIG    1      -34.464  79.180  27.791  0.00  0.00    +0.175 C 
ATOM     36  C   LIG    1      -34.599  77.653  27.660  0.00  0.00    +0.112 C 
ENDBRANCH  30  31
ENDBRANCH  29  30
ENDBRANCH  26  29
ENDBRANCH   4  25
TORSDOF 8
ENDMDL
MODEL 5
REMARK VINA RESULT:      -5.5     17.769     21.876
REMARK  Name = pdb/CHEMBL3675931.pdb
REMARK                            x       y       z     vdW  Elec       q    Type
REMARK                         _______ _______ _______ _____ _____    ______ ____
ROOT
ATOM      1  C   LIG    1      -20.086  83.067  13.739  0.00  0.00    +0.126 A 
ATOM      2  N   LIG    1      -21.284  82.825  13.245  0.00  0.00    -0.212 NA
ATOM      3  C   LIG    1      -22.032  83.893  12.821  0.00  0.00    +0.170 A 
ATOM      4  C   LIG    1      -23.312  83.970  12.299  0.00  0.00    +0.100 A 
ATOM      5  C   LIG    1      -23.540  85.355  12.162  0.00  0.00    +0.150 A 
ATOM      6  N   LIG    1      -22.479  86.100  12.480  0.00  0.00    -0.173 NA
ATOM      7  N   LIG    1      -21.548  85.200  12.872  0.00  0.00    -0.221 N 
ATOM      8  C   LIG    1      -20.249  85.448  13.284  0.00  0.00    +0.118 A 
ATOM      9  C   LIG    1      -19.477  84.445  13.720  0.00  0.00    +0.063 A 
ENDROOT
BRANCH   1  11
ATOM     10  C   LIG    1      -19.645  81.320  15.536  0.00  0.00    +0.105 C 
ATOM     11  N   LIG    1      -19.391  81.994  14.264  0.00  0.00    -0.308 N 
ATOM     12  C   LIG    1      -18.088  81.605  13.726  0.00  0.00    +0.107 C 
ATOM     13  C   LIG    1      -17.346  81.043  14.930  0.00  0.00    +0.021 C 
ATOM     14  C   LIG    1      -18.452  80.369  15.720  0.00  0.00    +0.029 C 
BRANCH  10  16
ATOM     15  C   LIG    1      -22.204  81.091  16.132  0.00  0.00    -0.017 A 
ATOM     16  C   LIG    1      -20.967  80.571  15.671  0.00  0.00    -0.019 A 
ATOM     17  C   LIG    1      -20.958  79.243  15.177  0.00  0.00    +0.044 A 
ATOM     18  C   LIG    1      -22.109  78.463  15.149  0.00  0.00    +0.124 A 
ATOM     19  F   LIG    1      -22.049  77.218  14.658  0.00  0.00    -0.205 F 
ATOM     20  C   LIG    1      -23.314  78.963  15.602  0.00  0.00    +0.039 A 
ATOM     21  C   LIG    1      -23.360  80.268  16.084  0.00  0.00    +0.009 A 
BRANCH  15  22
ATOM     22  C   LIG    1      -22.427  82.500  16.622  0.00  0.00    +0.191 C 
BRANCH  22  23
ATOM     23  O   LIG    1      -23.250  83.194  15.695  0.00  0.00    -0.390 OA
ATOM     24  H   LIG    1      -22.649  83.741  15.161  0.00  0.00    +0.210 HD
ENDBRANCH  22  23
ENDBRANCH  15  22
ENDBRANCH  10  16
ENDBRANCH   1  11
BRANCH   4  25
ATOM     25  C   LIG    1      -24.228  82.890  11.984  0.00  0.00    +0.249 C 
ATOM     26  N   LIG    1      -24.493  82.039  13.043  0.00  0.00    -0.310 N 
ATOM     27  H   LIG    1      -24.079  82.276  13.938  0.00  0.00    +0.149 HD
ATOM     28  O   LIG    1      -24.698  82.745  10.871  0.00  0.00    -0.270 OA
BRANCH  26  29
ATOM     29  C   LIG    1      -25.450  80.953  12.970  0.00  0.00    +0.120 C 
BRANCH  29  30
ATOM     30  C   LIG    1      -24.835  79.608  12.522  0.00  0.00    +0.103 C 
BRANCH  30  31
ATOM     31  N   LIG    1      -25.834  78.620  12.064  0.00  0.00    -0.297 NA
ATOM     32  C   LIG    1      -26.969  78.518  13.017  0.00  0.00    +0.112 C 
ATOM     33  C   LIG    1      -26.625  77.802  14.337  0.00  0.00    +0.175 C 
ATOM     34  O   LIG    1      -26.093  76.493  14.095  0.00  0.00    -0.377 OA
ATOM     35  C   LIG    1      -24.938  76.564  13.251  0.00  0.00    +0.175 C 
ATOM     36  C   LIG    1      -25.266  77.258  11.918  0.00  0.00    +0.112 C 
ENDBRANCH  30  31
ENDBRANCH  29  30
ENDBRANCH  26  29
ENDBRANCH   4  25
TORSDOF 8
ENDMDL
MODEL 6
REMARK VINA RESULT:      -5.5      2.245      3.664
REMARK  Name = pdb/CHEMBL3675931.pdb
REMARK                            x       y       z     vdW  Elec       q    Type
REMARK                         _______ _______ _______ _____ _____    ______ ____
ROOT
ATOM      1  C   LIG    1      -38.848  72.280  25.976  0.00  0.00    +0.126 A 
ATOM      2  N   LIG    1      -37.727  72.427  26.655  0.00  0.00    -0.212 NA
ATOM      3  C   LIG    1      -36.642  71.680  26.274  0.00  0.00    +0.170 A 
ATOM      4  C   LIG    1      -35.364  71.584  26.796  0.00  0.00    +0.100 A 
ATOM      5  C   LIG    1      -34.757  70.571  26.024  0.00  0.00    +0.150 A 
ATOM      6  N   LIG    1      -35.537  70.118  25.040  0.00  0.00    -0.173 NA
ATOM      7  N   LIG    1      -36.690  70.810  25.186  0.00  0.00    -0.221 N 
ATOM      8  C   LIG    1      -37.829  70.736  24.401  0.00  0.00    +0.118 A 
ATOM      9  C   LIG    1      -38.922  71.434  24.731  0.00  0.00    +0.063 A 
ENDROOT
BRANCH   1  11
ATOM     10  C   LIG    1      -40.036  74.361  26.830  0.00  0.00    +0.105 C 
ATOM     11  N   LIG    1      -39.960  72.954  26.440  0.00  0.00    -0.308 N 
ATOM     12  C   LIG    1      -41.145  72.229  26.897  0.00  0.00    +0.107 C 
ATOM     13  C   LIG    1      -41.724  73.119  27.987  0.00  0.00    +0.021 C 
ATOM     14  C   LIG    1      -41.422  74.514  27.475  0.00  0.00    +0.029 C 
BRANCH  10  16
ATOM     15  C   LIG    1      -38.687  76.220  25.535  0.00  0.00    -0.017 A 
ATOM     16  C   LIG    1      -39.826  75.398  25.731  0.00  0.00    -0.019 A 
ATOM     17  C   LIG    1      -40.848  75.450  24.753  0.00  0.00    +0.044 A 
ATOM     18  C   LIG    1      -40.757  76.281  23.640  0.00  0.00    +0.124 A 
ATOM     19  F   LIG    1      -41.746  76.281  22.736  0.00  0.00    -0.205 F 
ATOM     20  C   LIG    1      -39.654  77.088  23.449  0.00  0.00    +0.039 A 
ATOM     21  C   LIG    1      -38.626  77.053  24.387  0.00  0.00    +0.009 A 
BRANCH  15  22
ATOM     22  C   LIG    1      -37.469  76.247  26.425  0.00  0.00    +0.191 C 
BRANCH  22  23
ATOM     23  O   LIG    1      -36.641  75.135  26.120  0.00  0.00    -0.390 OA
ATOM     24  H   LIG    1      -36.040  75.433  25.416  0.00  0.00    +0.210 HD
ENDBRANCH  22  23
ENDBRANCH  15  22
ENDBRANCH  10  16
ENDBRANCH   1  11
BRANCH   4  25
ATOM     25  C   LIG    1      -34.776  72.325  27.896  0.00  0.00    +0.249 C 
ATOM     26  N   LIG    1      -34.262  73.560  27.542  0.00  0.00    -0.310 N 
ATOM     27  H   LIG    1      -34.392  73.854  26.579  0.00  0.00    +0.149 HD
ATOM     28  O   LIG    1      -34.727  71.876  29.026  0.00  0.00    -0.270 OA
BRANCH  26  29
ATOM     29  C   LIG    1      -33.715  74.500  28.501  0.00  0.00    +0.120 C 
BRANCH  29  30
ATOM     30  C   LIG    1      -34.193  75.954  28.294  0.00  0.00    +0.103 C 
BRANCH  30  31
ATOM     31  N   LIG    1      -33.260  76.969  28.826  0.00  0.00    -0.297 NA
ATOM     32  C   LIG    1      -33.948  78.266  29.057  0.00  0.00    +0.112 C 
ATOM     33  C   LIG    1      -34.305  79.031  27.769  0.00  0.00    +0.175 C 
ATOM     34  O   LIG    1      -33.144  79.251  26.957  0.00  0.00    -0.377 OA
ATOM     35  C   LIG    1      -32.507  78.008  26.637  0.00  0.00    +0.175 C 
ATOM     36  C   LIG    1      -32.124  77.237  27.912  0.00  0.00    +0.112 C 
ENDBRANCH  30  31
ENDBRANCH  29  30
ENDBRANCH  26  29
ENDBRANCH   4  25
TORSDOF 8
ENDMDL
MODEL 7
REMARK VINA RESULT:      -5.5     13.460     18.479
REMARK  Name = pdb/CHEMBL3675931.pdb
REMARK                            x       y       z     vdW  Elec       q    Type
REMARK                         _______ _______ _______ _____ _____    ______ ____
ROOT
ATOM      1  C   LIG    1      -21.122  78.856  34.030  0.00  0.00    +0.126 A 
ATOM      2  N   LIG    1      -21.545  78.334  32.896  0.00  0.00    -0.212 NA
ATOM      3  C   LIG    1      -20.606  77.874  32.010  0.00  0.00    +0.170 A 
ATOM      4  C   LIG    1      -20.727  77.317  30.748  0.00  0.00    +0.100 A 
ATOM      5  C   LIG    1      -19.393  77.152  30.320  0.00  0.00    +0.150 A 
ATOM      6  N   LIG    1      -18.495  77.487  31.249  0.00  0.00    -0.173 NA
ATOM      7  N   LIG    1      -19.242  77.918  32.292  0.00  0.00    -0.221 N 
ATOM      8  C   LIG    1      -18.798  78.360  33.527  0.00  0.00    +0.118 A 
ATOM      9  C   LIG    1      -19.669  78.832  34.428  0.00  0.00    +0.063 A 
ENDROOT
BRANCH   1  11
ATOM     10  C   LIG    1      -22.158  79.279  36.315  0.00  0.00    +0.105 C 
ATOM     11  N   LIG    1      -22.073  79.416  34.862  0.00  0.00    -0.308 N 
ATOM     12  C   LIG    1      -23.315  79.968  34.322  0.00  0.00    +0.107 C 
ATOM     13  C   LIG    1      -24.336  79.723  35.424  0.00  0.00    +0.021 C 
ATOM     14  C   LIG    1      -23.514  79.901  36.687  0.00  0.00    +0.029 C 
BRANCH  10  16
ATOM     15  C   LIG    1      -20.683  81.268  37.221  0.00  0.00    -0.017 A 
ATOM     16  C   LIG    1      -21.031  79.896  37.137  0.00  0.00    -0.019 A 
ATOM     17  C   LIG    1      -20.339  78.991  37.979  0.00  0.00    +0.044 A 
ATOM     18  C   LIG    1      -19.345  79.418  38.855  0.00  0.00    +0.124 A 
ATOM     19  F   LIG    1      -18.732  78.524  39.641  0.00  0.00    -0.205 F 
ATOM     20  C   LIG    1      -18.999  80.752  38.935  0.00  0.00    +0.039 A 
ATOM     21  C   LIG    1      -19.667  81.669  38.128  0.00  0.00    +0.009 A 
BRANCH  15  22
ATOM     22  C   LIG    1      -21.356  82.385  36.462  0.00  0.00    +0.191 C 
BRANCH  22  23
ATOM     23  O   LIG    1      -20.656  83.598  36.695  0.00  0.00    -0.390 OA
ATOM     24  H   LIG    1      -20.704  84.099  35.862  0.00  0.00    +0.210 HD
ENDBRANCH  22  23
ENDBRANCH  15  22
ENDBRANCH  10  16
ENDBRANCH   1  11
BRANCH   4  25
ATOM     25  C   LIG    1      -21.935  76.995  30.013  0.00  0.00    +0.249 C 
ATOM     26  N   LIG    1      -23.109  77.312  30.675  0.00  0.00    -0.310 N 
ATOM     27  H   LIG    1      -23.020  77.785  31.569  0.00  0.00    +0.149 HD
ATOM     28  O   LIG    1      -21.904  76.469  28.916  0.00  0.00    -0.270 OA
BRANCH  26  29
ATOM     29  C   LIG    1      -24.423  77.159  30.082  0.00  0.00    +0.120 C 
BRANCH  29  30
ATOM     30  C   LIG    1      -25.584  77.478  31.050  0.00  0.00    +0.103 C 
BRANCH  30  31
ATOM     31  N   LIG    1      -26.551  76.370  31.205  0.00  0.00    -0.297 NA
ATOM     32  C   LIG    1      -27.698  76.769  32.061  0.00  0.00    +0.112 C 
ATOM     33  C   LIG    1      -27.355  76.898  33.558  0.00  0.00    +0.175 C 
ATOM     34  O   LIG    1      -26.786  75.684  34.066  0.00  0.00    -0.377 OA
ATOM     35  C   LIG    1      -25.620  75.318  33.318  0.00  0.00    +0.175 C 
ATOM     36  C   LIG    1      -25.946  75.166  31.823  0.00  0.00    +0.112 C 
ENDBRANCH  30  31
ENDBRANCH  29  30
ENDBRANCH  26  29
ENDBRANCH   4  25
TORSDOF 8
ENDMDL
MODEL 8
REMARK VINA RESULT:      -5.5     13.275     18.170
REMARK  Name = pdb/CHEMBL3675931.pdb
REMARK                            x       y       z     vdW  Elec       q    Type
REMARK                         _______ _______ _______ _____ _____    ______ ____
ROOT
ATOM      1  C   LIG    1      -21.327  78.812  33.798  0.00  0.00    +0.126 A 
ATOM      2  N   LIG    1      -21.613  78.023  32.782  0.00  0.00    -0.212 NA
ATOM      3  C   LIG    1      -20.588  77.640  31.956  0.00  0.00    +0.170 A 
ATOM      4  C   LIG    1      -20.571  76.863  30.811  0.00  0.00    +0.100 A 
ATOM      5  C   LIG    1      -19.231  76.929  30.375  0.00  0.00    +0.150 A 
ATOM      6  N   LIG    1      -18.438  77.609  31.206  0.00  0.00    -0.173 NA
ATOM      7  N   LIG    1      -19.270  78.034  32.185  0.00  0.00    -0.221 N 
ATOM      8  C   LIG    1      -18.947  78.769  33.314  0.00  0.00    +0.118 A 
ATOM      9  C   LIG    1      -19.909  79.180  34.149  0.00  0.00    +0.063 A 
ENDROOT
BRANCH   1  11
ATOM     10  C   LIG    1      -22.522  79.217  36.008  0.00  0.00    +0.105 C 
ATOM     11  N   LIG    1      -22.385  79.279  34.553  0.00  0.00    -0.308 N 
ATOM     12  C   LIG    1      -23.665  79.617  33.930  0.00  0.00    +0.107 C 
ATOM     13  C   LIG    1      -24.694  79.294  35.004  0.00  0.00    +0.021 C 
ATOM     14  C   LIG    1      -23.967  79.661  36.284  0.00  0.00    +0.029 C 
BRANCH  10  16
ATOM     15  C   LIG    1      -20.570  79.543  37.751  0.00  0.00    -0.017 A 
ATOM     16  C   LIG    1      -21.532  80.035  36.832  0.00  0.00    -0.019 A 
ATOM     17  C   LIG    1      -21.521  81.423  36.552  0.00  0.00    +0.044 A 
ATOM     18  C   LIG    1      -20.612  82.286  37.156  0.00  0.00    +0.124 A 
ATOM     19  F   LIG    1      -20.634  83.588  36.846  0.00  0.00    -0.205 F 
ATOM     20  C   LIG    1      -19.679  81.813  38.057  0.00  0.00    +0.039 A 
ATOM     21  C   LIG    1      -19.655  80.451  38.346  0.00  0.00    +0.009 A 
BRANCH  15  22
ATOM     22  C   LIG    1      -20.378  78.092  38.117  0.00  0.00    +0.191 C 
BRANCH  22  23
ATOM     23  O   LIG    1      -19.447  77.501  37.223  0.00  0.00    -0.390 OA
ATOM     24  H   LIG    1      -19.928  76.788  36.768  0.00  0.00    +0.210 HD
ENDBRANCH  22  23
ENDBRANCH  15  22
ENDBRANCH  10  16
ENDBRANCH   1  11
BRANCH   4  25
ATOM     25  C   LIG    1      -21.670  76.158  30.178  0.00  0.00    +0.249 C 
ATOM     26  N   LIG    1      -22.345  75.285  31.013  0.00  0.00    -0.310 N 
ATOM     27  H   LIG    1      -22.055  75.261  31.986  0.00  0.00    +0.149 HD
ATOM     28  O   LIG    1      -21.949  76.316  29.004  0.00  0.00    -0.270 OA
BRANCH  26  29
ATOM     29  C   LIG    1      -23.529  74.552  30.609  0.00  0.00    +0.120 C 
BRANCH  29  30
ATOM     30  C   LIG    1      -24.806  74.957  31.379  0.00  0.00    +0.103 C 
BRANCH  30  31
ATOM     31  N   LIG    1      -24.670  76.221  32.133  0.00  0.00    -0.297 NA
ATOM     32  C   LIG    1      -24.858  76.004  33.591  0.00  0.00    +0.112 C 
ATOM     33  C   LIG    1      -26.314  75.721  34.006  0.00  0.00    +0.175 C 
ATOM     34  O   LIG    1      -27.192  76.767  33.568  0.00  0.00    -0.377 OA
ATOM     35  C   LIG    1      -27.103  76.941  32.149  0.00  0.00    +0.175 C 
ATOM     36  C   LIG    1      -25.659  77.244  31.716  0.00  0.00    +0.112 C 
ENDBRANCH  30  31
ENDBRANCH  29  30
ENDBRANCH  26  29
ENDBRANCH   4  25
TORSDOF 8
ENDMDL
MODEL 9
REMARK VINA RESULT:      -5.4     13.497     16.504
REMARK  Name = pdb/CHEMBL3675931.pdb
REMARK                            x       y       z     vdW  Elec       q    Type
REMARK                         _______ _______ _______ _____ _____    ______ ____
ROOT
ATOM      1  C   LIG    1      -24.752  76.499  33.874  0.00  0.00    +0.126 A 
ATOM      2  N   LIG    1      -23.700  77.281  34.011  0.00  0.00    -0.212 NA
ATOM      3  C   LIG    1      -23.874  78.490  34.634  0.00  0.00    +0.170 A 
ATOM      4  C   LIG    1      -22.993  79.526  34.894  0.00  0.00    +0.100 A 
ATOM      5  C   LIG    1      -23.805  80.527  35.467  0.00  0.00    +0.150 A 
ATOM      6  N   LIG    1      -25.072  80.143  35.643  0.00  0.00    -0.173 NA
ATOM      7  N   LIG    1      -25.110  78.886  35.143  0.00  0.00    -0.221 N 
ATOM      8  C   LIG    1      -26.192  78.022  35.103  0.00  0.00    +0.118 A 
ATOM      9  C   LIG    1      -26.083  76.834  34.496  0.00  0.00    +0.063 A 
ENDROOT
BRANCH   1  11
ATOM     10  C   LIG    1      -24.448  75.220  31.696  0.00  0.00    +0.105 C 
ATOM     11  N   LIG    1      -24.585  75.337  33.147  0.00  0.00    -0.308 N 
ATOM     12  C   LIG    1      -24.845  74.028  33.747  0.00  0.00    +0.107 C 
ATOM     13  C   LIG    1      -25.336  73.181  32.582  0.00  0.00    +0.021 C 
ATOM     14  C   LIG    1      -24.522  73.710  31.417  0.00  0.00    +0.029 C 
BRANCH  10  16
ATOM     15  C   LIG    1      -23.092  77.099  30.438  0.00  0.00    -0.017 A 
ATOM     16  C   LIG    1      -23.201  75.831  31.065  0.00  0.00    -0.019 A 
ATOM     17  C   LIG    1      -22.013  75.078  31.232  0.00  0.00    +0.044 A 
ATOM     18  C   LIG    1      -20.780  75.546  30.791  0.00  0.00    +0.124 A 
ATOM     19  F   LIG    1      -19.684  74.801  30.985  0.00  0.00    -0.205 F 
ATOM     20  C   LIG    1      -20.670  76.776  30.174  0.00  0.00    +0.039 A 
ATOM     21  C   LIG    1      -21.816  77.547  30.005  0.00  0.00    +0.009 A 
BRANCH  15  22
ATOM     22  C   LIG    1      -24.227  78.073  30.241  0.00  0.00    +0.191 C 
BRANCH  22  23
ATOM     23  O   LIG    1      -25.254  77.450  29.483  0.00  0.00    -0.390 OA
ATOM     24  H   LIG    1      -26.091  77.816  29.816  0.00  0.00    +0.210 HD
ENDBRANCH  22  23
ENDBRANCH  15  22
ENDBRANCH  10  16
ENDBRANCH   1  11
BRANCH   4  25
ATOM     25  C   LIG    1      -21.569  79.593  34.625  0.00  0.00    +0.249 C 
ATOM     26  N   LIG    1      -21.140  78.754  33.611  0.00  0.00    -0.310 N 
ATOM     27  H   LIG    1      -21.852  78.224  33.119  0.00  0.00    +0.149 HD
ATOM     28  O   LIG    1      -20.824  80.316  35.260  0.00  0.00    -0.270 OA
BRANCH  26  29
ATOM     29  C   LIG    1      -19.776  78.733  33.119  0.00  0.00    +0.120 C 
BRANCH  29  30
ATOM     30  C   LIG    1      -18.893  77.650  33.778  0.00  0.00    +0.103 C 
BRANCH  30  31
ATOM     31  N   LIG    1      -19.646  76.705  34.630  0.00  0.00    -0.297 NA
ATOM     32  C   LIG    1      -19.257  76.837  36.058  0.00  0.00    +0.112 C 
ATOM     33  C   LIG    1      -17.860  76.278  36.388  0.00  0.00    +0.175 C 
ATOM     34  O   LIG    1      -17.744  74.905  35.993  0.00  0.00    -0.377 OA
ATOM     35  C   LIG    1      -18.023  74.754  34.596  0.00  0.00    +0.175 C 
ATOM     36  C   LIG    1      -19.422  75.290  34.248  0.00  0.00    +0.112 C 
ENDBRANCH  30  31
ENDBRANCH  29  30
ENDBRANCH  26  29
ENDBRANCH   4  25
TORSDOF 8
ENDMDL
