MODEL 1
REMARK VINA RESULT:      -6.2      0.000      0.000
REMARK  Name = pdb/CHEMBL3971680.pdb
REMARK                            x       y       z     vdW  Elec       q    Type
REMARK                         _______ _______ _______ _____ _____    ______ ____
ROOT
ATOM      1  C   LIG    1      -22.727  74.559  15.815  0.00  0.00    +0.126 A 
ATOM      2  N   LIG    1      -23.221  75.783  15.858  0.00  0.00    -0.212 NA
ATOM      3  C   LIG    1      -23.643  76.357  14.695  0.00  0.00    +0.170 A 
ATOM      4  C   LIG    1      -24.169  77.626  14.439  0.00  0.00    +0.100 A 
ATOM      5  C   LIG    1      -24.184  77.673  13.029  0.00  0.00    +0.150 A 
ATOM      6  N   LIG    1      -23.828  76.529  12.443  0.00  0.00    -0.173 NA
ATOM      7  N   LIG    1      -23.519  75.709  13.473  0.00  0.00    -0.221 N 
ATOM      8  C   LIG    1      -23.093  74.388  13.426  0.00  0.00    +0.118 A 
ATOM      9  C   LIG    1      -22.748  73.743  14.550  0.00  0.00    +0.063 A 
ENDROOT
BRANCH   1  11
ATOM     10  C   LIG    1      -20.799  73.311  16.898  0.00  0.00    +0.107 C 
ATOM     11  N   LIG    1      -22.093  74.061  16.953  0.00  0.00    -0.308 N 
ATOM     12  C   LIG    1      -22.926  73.498  18.027  0.00  0.00    +0.107 C 
ATOM     13  C   LIG    1      -22.546  72.037  18.016  0.00  0.00    +0.021 C 
ATOM     14  C   LIG    1      -21.033  72.125  17.870  0.00  0.00    +0.029 C 
BRANCH  10  16
ATOM     15  C   LIG    1      -19.003  75.172  16.531  0.00  0.00    +0.046 A 
ATOM     16  C   LIG    1      -19.594  74.156  17.319  0.00  0.00    -0.003 A 
ATOM     17  C   LIG    1      -18.966  73.892  18.555  0.00  0.00    +0.047 A 
ATOM     18  C   LIG    1      -17.855  74.615  18.968  0.00  0.00    +0.142 A 
ATOM     19  F   LIG    1      -17.268  74.347  20.140  0.00  0.00    -0.204 F 
ATOM     20  C   LIG    1      -17.371  75.605  18.150  0.00  0.00    +0.149 A 
ATOM     21  N   LIG    1      -17.924  75.897  16.957  0.00  0.00    -0.257 NA
BRANCH  15  23
ATOM     22  C   LIG    1      -19.952  77.060  15.160  0.00  0.00    +0.010 C 
ATOM     23  C   LIG    1      -19.461  75.609  15.161  0.00  0.00    +0.052 C 
ENDBRANCH  15  23
ENDBRANCH  10  16
ENDBRANCH   1  11
BRANCH   4  24
ATOM     24  C   LIG    1      -24.463  78.616  15.449  0.00  0.00    +0.221 C 
ATOM     25  N   LIG    1      -23.738  79.595  15.867  0.00  0.00    -0.247 NA
BRANCH  25  26
ATOM     26  C   LIG    1      -22.420  79.972  15.414  0.00  0.00    +0.109 C 
ATOM     27  C   LIG    1      -21.709  80.736  16.531  0.00  0.00    +0.029 C 
ATOM     28  C   LIG    1      -22.446  82.020  16.923  0.00  0.00    +0.033 C 
ATOM     29  C   LIG    1      -22.736  82.929  15.732  0.00  0.00    +0.115 C 
ATOM     30  C   LIG    1      -23.357  82.187  14.548  0.00  0.00    +0.033 C 
ATOM     31  C   LIG    1      -22.595  80.904  14.196  0.00  0.00    +0.029 C 
BRANCH  29  32
ATOM     32  O   LIG    1      -21.511  83.535  15.318  0.00  0.00    -0.392 OA
ATOM     33  H   LIG    1      -21.702  84.477  15.162  0.00  0.00    +0.210 HD
ENDBRANCH  29  32
ENDBRANCH  25  26
BRANCH  24  34
ATOM     34  O   LIG    1      -25.671  78.496  16.042  0.00  0.00    -0.492 OA
ATOM     35  H   LIG    1      -26.170  79.345  15.989  0.00  0.00    +0.294 HD
ENDBRANCH  24  34
ENDBRANCH   4  24
TORSDOF 7
ENDMDL
MODEL 2
REMARK VINA RESULT:      -6.1     17.721     20.599
REMARK  Name = pdb/CHEMBL3971680.pdb
REMARK                            x       y       z     vdW  Elec       q    Type
REMARK                         _______ _______ _______ _____ _____    ______ ____
ROOT
ATOM      1  C   LIG    1      -37.683  72.990  27.183  0.00  0.00    +0.126 A 
ATOM      2  N   LIG    1      -36.800  72.233  26.558  0.00  0.00    -0.212 NA
ATOM      3  C   LIG    1      -36.202  71.221  27.250  0.00  0.00    +0.170 A 
ATOM      4  C   LIG    1      -35.226  70.299  26.862  0.00  0.00    +0.100 A 
ATOM      5  C   LIG    1      -34.882  69.685  28.085  0.00  0.00    +0.150 A 
ATOM      6  N   LIG    1      -35.630  70.074  29.118  0.00  0.00    -0.173 NA
ATOM      7  N   LIG    1      -36.462  71.003  28.596  0.00  0.00    -0.221 N 
ATOM      8  C   LIG    1      -37.458  71.727  29.238  0.00  0.00    +0.118 A 
ATOM      9  C   LIG    1      -38.140  72.677  28.583  0.00  0.00    +0.063 A 
ENDROOT
BRANCH   1  11
ATOM     10  C   LIG    1      -38.090  74.332  25.066  0.00  0.00    +0.107 C 
ATOM     11  N   LIG    1      -38.121  74.153  26.552  0.00  0.00    -0.308 N 
ATOM     12  C   LIG    1      -37.837  75.447  27.194  0.00  0.00    +0.107 C 
ATOM     13  C   LIG    1      -36.884  76.101  26.223  0.00  0.00    +0.021 C 
ATOM     14  C   LIG    1      -37.545  75.773  24.891  0.00  0.00    +0.029 C 
BRANCH  10  16
ATOM     15  C   LIG    1      -40.031  72.927  24.024  0.00  0.00    +0.046 A 
ATOM     16  C   LIG    1      -39.464  74.164  24.411  0.00  0.00    -0.003 A 
ATOM     17  C   LIG    1      -40.224  75.313  24.104  0.00  0.00    +0.047 A 
ATOM     18  C   LIG    1      -41.464  75.213  23.486  0.00  0.00    +0.142 A 
ATOM     19  F   LIG    1      -42.169  76.312  23.197  0.00  0.00    -0.204 F 
ATOM     20  C   LIG    1      -41.948  73.966  23.177  0.00  0.00    +0.149 A 
ATOM     21  N   LIG    1      -41.265  72.836  23.439  0.00  0.00    -0.257 NA
BRANCH  15  23
ATOM     22  C   LIG    1      -40.057  70.511  23.313  0.00  0.00    +0.010 C 
ATOM     23  C   LIG    1      -39.398  71.568  24.203  0.00  0.00    +0.052 C 
ENDBRANCH  15  23
ENDBRANCH  10  16
ENDBRANCH   1  11
BRANCH   4  24
ATOM     24  C   LIG    1      -34.684  70.184  25.529  0.00  0.00    +0.221 C 
ATOM     25  N   LIG    1      -34.822  69.233  24.671  0.00  0.00    -0.247 NA
BRANCH  25  26
ATOM     26  C   LIG    1      -35.583  68.015  24.820  0.00  0.00    +0.109 C 
ATOM     27  C   LIG    1      -34.890  66.897  24.042  0.00  0.00    +0.029 C 
ATOM     28  C   LIG    1      -34.793  67.199  22.544  0.00  0.00    +0.033 C 
ATOM     29  C   LIG    1      -36.140  67.552  21.918  0.00  0.00    +0.115 C 
ATOM     30  C   LIG    1      -36.917  68.597  22.718  0.00  0.00    +0.033 C 
ATOM     31  C   LIG    1      -36.981  68.262  24.214  0.00  0.00    +0.029 C 
BRANCH  29  32
ATOM     32  O   LIG    1      -36.919  66.359  21.819  0.00  0.00    -0.392 OA
ATOM     33  H   LIG    1      -37.823  66.591  22.093  0.00  0.00    +0.210 HD
ENDBRANCH  29  32
ENDBRANCH  25  26
BRANCH  24  34
ATOM     34  O   LIG    1      -33.920  71.222  25.124  0.00  0.00    -0.492 OA
ATOM     35  H   LIG    1      -34.479  71.928  24.722  0.00  0.00    +0.294 HD
ENDBRANCH  24  34
ENDBRANCH   4  24
TORSDOF 7
ENDMDL
MODEL 3
REMARK VINA RESULT:      -5.9      4.958      8.214
REMARK  Name = pdb/CHEMBL3971680.pdb
REMARK                            x       y       z     vdW  Elec       q    Type
REMARK                         _______ _______ _______ _____ _____    ______ ____
ROOT
ATOM      1  C   LIG    1      -19.259  82.412  14.018  0.00  0.00    +0.126 A 
ATOM      2  N   LIG    1      -20.172  83.366  14.023  0.00  0.00    -0.212 NA
ATOM      3  C   LIG    1      -19.789  84.637  13.709  0.00  0.00    +0.170 A 
ATOM      4  C   LIG    1      -20.519  85.829  13.667  0.00  0.00    +0.100 A 
ATOM      5  C   LIG    1      -19.510  86.800  13.501  0.00  0.00    +0.150 A 
ATOM      6  N   LIG    1      -18.288  86.292  13.333  0.00  0.00    -0.173 NA
ATOM      7  N   LIG    1      -18.466  84.956  13.436  0.00  0.00    -0.221 N 
ATOM      8  C   LIG    1      -17.516  83.948  13.330  0.00  0.00    +0.118 A 
ATOM      9  C   LIG    1      -17.853  82.668  13.543  0.00  0.00    +0.063 A 
ENDROOT
BRANCH   1  11
ATOM     10  C   LIG    1      -20.402  81.017  15.805  0.00  0.00    +0.107 C 
ATOM     11  N   LIG    1      -19.597  81.170  14.552  0.00  0.00    -0.308 N 
ATOM     12  C   LIG    1      -18.601  80.088  14.491  0.00  0.00    +0.107 C 
ATOM     13  C   LIG    1      -18.268  79.855  15.945  0.00  0.00    +0.021 C 
ATOM     14  C   LIG    1      -19.653  79.900  16.577  0.00  0.00    +0.029 C 
BRANCH  10  16
ATOM     15  C   LIG    1      -22.944  81.550  15.520  0.00  0.00    +0.046 A 
ATOM     16  C   LIG    1      -21.862  80.639  15.540  0.00  0.00    -0.003 A 
ATOM     17  C   LIG    1      -22.198  79.281  15.354  0.00  0.00    +0.047 A 
ATOM     18  C   LIG    1      -23.511  78.887  15.136  0.00  0.00    +0.142 A 
ATOM     19  F   LIG    1      -23.813  77.594  14.966  0.00  0.00    -0.204 F 
ATOM     20  C   LIG    1      -24.491  79.847  15.100  0.00  0.00    +0.149 A 
ATOM     21  N   LIG    1      -24.232  81.157  15.279  0.00  0.00    -0.257 NA
BRANCH  15  23
ATOM     22  C   LIG    1      -22.809  83.401  17.224  0.00  0.00    +0.010 C 
ATOM     23  C   LIG    1      -22.849  83.042  15.736  0.00  0.00    +0.052 C 
ENDBRANCH  15  23
ENDBRANCH  10  16
ENDBRANCH   1  11
BRANCH   4  24
ATOM     24  C   LIG    1      -21.943  85.932  13.885  0.00  0.00    +0.221 C 
ATOM     25  N   LIG    1      -22.912  85.717  13.064  0.00  0.00    -0.247 NA
BRANCH  25  26
ATOM     26  C   LIG    1      -22.822  85.295  11.686  0.00  0.00    +0.109 C 
ATOM     27  C   LIG    1      -24.002  85.880  10.909  0.00  0.00    +0.029 C 
ATOM     28  C   LIG    1      -25.353  85.403  11.450  0.00  0.00    +0.033 C 
ATOM     29  C   LIG    1      -25.456  83.883  11.545  0.00  0.00    +0.115 C 
ATOM     30  C   LIG    1      -24.247  83.243  12.227  0.00  0.00    +0.033 C 
ATOM     31  C   LIG    1      -22.916  83.754  11.663  0.00  0.00    +0.029 C 
BRANCH  29  32
ATOM     32  O   LIG    1      -25.586  83.356  10.224  0.00  0.00    -0.392 OA
ATOM     33  H   LIG    1      -26.518  83.101  10.114  0.00  0.00    +0.210 HD
ENDBRANCH  29  32
ENDBRANCH  25  26
BRANCH  24  34
ATOM     34  O   LIG    1      -22.311  86.309  15.129  0.00  0.00    -0.492 OA
ATOM     35  H   LIG    1      -21.846  87.138  15.393  0.00  0.00    +0.294 HD
ENDBRANCH  24  34
ENDBRANCH   4  24
TORSDOF 7
ENDMDL
MODEL 4
REMARK VINA RESULT:      -5.9      5.649     10.020
REMARK  Name = pdb/CHEMBL3971680.pdb
REMARK                            x       y       z     vdW  Elec       q    Type
REMARK                         _______ _______ _______ _____ _____    ______ ____
ROOT
ATOM      1  C   LIG    1      -22.335  85.008  13.213  0.00  0.00    +0.126 A 
ATOM      2  N   LIG    1      -22.090  84.072  14.113  0.00  0.00    -0.212 NA
ATOM      3  C   LIG    1      -22.877  82.959  14.127  0.00  0.00    +0.170 A 
ATOM      4  C   LIG    1      -22.871  81.844  14.969  0.00  0.00    +0.100 A 
ATOM      5  C   LIG    1      -24.059  81.177  14.604  0.00  0.00    +0.150 A 
ATOM      6  N   LIG    1      -24.695  81.727  13.568  0.00  0.00    -0.173 NA
ATOM      7  N   LIG    1      -23.950  82.811  13.258  0.00  0.00    -0.221 N 
ATOM      8  C   LIG    1      -24.157  83.739  12.245  0.00  0.00    +0.118 A 
ATOM      9  C   LIG    1      -23.360  84.811  12.129  0.00  0.00    +0.063 A 
ENDROOT
BRANCH   1  11
ATOM     10  C   LIG    1      -20.398  86.398  14.089  0.00  0.00    +0.107 C 
ATOM     11  N   LIG    1      -21.685  86.235  13.341  0.00  0.00    -0.308 N 
ATOM     12  C   LIG    1      -22.503  87.443  13.531  0.00  0.00    +0.107 C 
ATOM     13  C   LIG    1      -22.136  87.882  14.928  0.00  0.00    +0.021 C 
ATOM     14  C   LIG    1      -20.624  87.694  14.910  0.00  0.00    +0.029 C 
BRANCH  10  16
ATOM     15  C   LIG    1      -18.235  85.489  12.940  0.00  0.00    +0.046 A 
ATOM     16  C   LIG    1      -19.179  86.517  13.170  0.00  0.00    -0.003 A 
ATOM     17  C   LIG    1      -18.915  87.748  12.534  0.00  0.00    +0.047 A 
ATOM     18  C   LIG    1      -17.807  87.912  11.713  0.00  0.00    +0.142 A 
ATOM     19  F   LIG    1      -17.569  89.088  11.121  0.00  0.00    -0.204 F 
ATOM     20  C   LIG    1      -16.964  86.847  11.522  0.00  0.00    +0.149 A 
ATOM     21  N   LIG    1      -17.161  85.650  12.109  0.00  0.00    -0.257 NA
BRANCH  15  23
ATOM     22  C   LIG    1      -16.875  83.483  13.627  0.00  0.00    +0.010 C 
ATOM     23  C   LIG    1      -18.273  84.102  13.537  0.00  0.00    +0.052 C 
ENDBRANCH  15  23
ENDBRANCH  10  16
ENDBRANCH   1  11
BRANCH   4  24
ATOM     24  C   LIG    1      -21.902  81.605  16.014  0.00  0.00    +0.221 C 
ATOM     25  N   LIG    1      -20.968  80.720  16.074  0.00  0.00    -0.247 NA
BRANCH  25  26
ATOM     26  C   LIG    1      -20.633  79.724  15.084  0.00  0.00    +0.109 C 
ATOM     27  C   LIG    1      -20.202  78.441  15.794  0.00  0.00    +0.029 C 
ATOM     28  C   LIG    1      -18.968  78.647  16.677  0.00  0.00    +0.033 C 
ATOM     29  C   LIG    1      -17.799  79.282  15.928  0.00  0.00    +0.115 C 
ATOM     30  C   LIG    1      -18.203  80.513  15.119  0.00  0.00    +0.033 C 
ATOM     31  C   LIG    1      -19.448  80.268  14.258  0.00  0.00    +0.029 C 
BRANCH  29  32
ATOM     32  O   LIG    1      -17.241  78.303  15.050  0.00  0.00    -0.392 OA
ATOM     33  H   LIG    1      -16.704  78.785  14.397  0.00  0.00    +0.210 HD
ENDBRANCH  29  32
ENDBRANCH  25  26
BRANCH  24  34
ATOM     34  O   LIG    1      -21.990  82.428  17.082  0.00  0.00    -0.492 OA
ATOM     35  H   LIG    1      -21.122  82.861  17.259  0.00  0.00    +0.294 HD
ENDBRANCH  24  34
ENDBRANCH   4  24
TORSDOF 7
ENDMDL
MODEL 5
REMARK VINA RESULT:      -5.7     14.075     16.190
REMARK  Name = pdb/CHEMBL3971680.pdb
REMARK                            x       y       z     vdW  Elec       q    Type
REMARK                         _______ _______ _______ _____ _____    ______ ____
ROOT
ATOM      1  C   LIG    1      -24.056  73.506  31.614  0.00  0.00    +0.126 A 
ATOM      2  N   LIG    1      -23.290  74.471  31.138  0.00  0.00    -0.212 NA
ATOM      3  C   LIG    1      -23.849  75.695  30.912  0.00  0.00    +0.170 A 
ATOM      4  C   LIG    1      -23.299  76.870  30.392  0.00  0.00    +0.100 A 
ATOM      5  C   LIG    1      -24.436  77.683  30.205  0.00  0.00    +0.150 A 
ATOM      6  N   LIG    1      -25.569  77.148  30.661  0.00  0.00    -0.173 NA
ATOM      7  N   LIG    1      -25.201  75.931  31.121  0.00  0.00    -0.221 N 
ATOM      8  C   LIG    1      -25.994  74.956  31.713  0.00  0.00    +0.118 A 
ATOM      9  C   LIG    1      -25.477  73.762  32.038  0.00  0.00    +0.063 A 
ENDROOT
BRANCH   1  11
ATOM     10  C   LIG    1      -24.420  70.994  31.546  0.00  0.00    +0.107 C 
ATOM     11  N   LIG    1      -23.548  72.208  31.633  0.00  0.00    -0.308 N 
ATOM     12  C   LIG    1      -22.410  71.915  32.518  0.00  0.00    +0.107 C 
ATOM     13  C   LIG    1      -23.005  70.960  33.526  0.00  0.00    +0.021 C 
ATOM     14  C   LIG    1      -23.826  70.050  32.623  0.00  0.00    +0.029 C 
BRANCH  10  16
ATOM     15  C   LIG    1      -25.564  69.915  29.459  0.00  0.00    +0.046 A 
ATOM     16  C   LIG    1      -24.412  70.345  30.159  0.00  0.00    -0.003 A 
ATOM     17  C   LIG    1      -23.176  70.091  29.526  0.00  0.00    +0.047 A 
ATOM     18  C   LIG    1      -23.117  69.481  28.280  0.00  0.00    +0.142 A 
ATOM     19  F   LIG    1      -21.937  69.242  27.696  0.00  0.00    -0.204 F 
ATOM     20  C   LIG    1      -24.290  69.128  27.662  0.00  0.00    +0.149 A 
ATOM     21  N   LIG    1      -25.498  69.338  28.220  0.00  0.00    -0.257 NA
BRANCH  15  23
ATOM     22  C   LIG    1      -27.391  68.854  30.831  0.00  0.00    +0.010 C 
ATOM     23  C   LIG    1      -26.989  70.035  29.942  0.00  0.00    +0.052 C 
ENDBRANCH  15  23
ENDBRANCH  10  16
ENDBRANCH   1  11
BRANCH   4  24
ATOM     24  C   LIG    1      -21.908  77.046  30.046  0.00  0.00    +0.221 C 
ATOM     25  N   LIG    1      -20.930  77.452  30.780  0.00  0.00    -0.247 NA
BRANCH  25  26
ATOM     26  C   LIG    1      -20.971  77.829  32.173  0.00  0.00    +0.109 C 
ATOM     27  C   LIG    1      -19.812  78.782  32.465  0.00  0.00    +0.029 C 
ATOM     28  C   LIG    1      -18.447  78.142  32.201  0.00  0.00    +0.033 C 
ATOM     29  C   LIG    1      -18.261  76.812  32.926  0.00  0.00    +0.115 C 
ATOM     30  C   LIG    1      -19.443  75.861  32.746  0.00  0.00    +0.033 C 
ATOM     31  C   LIG    1      -20.791  76.544  33.010  0.00  0.00    +0.029 C 
BRANCH  29  32
ATOM     32  O   LIG    1      -18.078  77.078  34.317  0.00  0.00    -0.392 OA
ATOM     33  H   LIG    1      -18.115  76.220  34.775  0.00  0.00    +0.210 HD
ENDBRANCH  29  32
ENDBRANCH  25  26
BRANCH  24  34
ATOM     34  O   LIG    1      -21.587  76.746  28.769  0.00  0.00    -0.492 OA
ATOM     35  H   LIG    1      -20.610  76.779  28.639  0.00  0.00    +0.294 HD
ENDBRANCH  24  34
ENDBRANCH   4  24
TORSDOF 7
ENDMDL
MODEL 6
REMARK VINA RESULT:      -5.7     13.846     16.386
REMARK  Name = pdb/CHEMBL3971680.pdb
REMARK                            x       y       z     vdW  Elec       q    Type
REMARK                         _______ _______ _______ _____ _____    ______ ____
ROOT
ATOM      1  C   LIG    1      -24.866  72.310  31.189  0.00  0.00    +0.126 A 
ATOM      2  N   LIG    1      -24.326  71.684  30.160  0.00  0.00    -0.212 NA
ATOM      3  C   LIG    1      -24.942  70.567  29.678  0.00  0.00    +0.170 A 
ATOM      4  C   LIG    1      -24.587  69.701  28.641  0.00  0.00    +0.100 A 
ATOM      5  C   LIG    1      -25.502  68.639  28.802  0.00  0.00    +0.150 A 
ATOM      6  N   LIG    1      -26.417  68.848  29.749  0.00  0.00    -0.173 NA
ATOM      7  N   LIG    1      -26.086  70.051  30.272  0.00  0.00    -0.221 N 
ATOM      8  C   LIG    1      -26.719  70.752  31.290  0.00  0.00    +0.118 A 
ATOM      9  C   LIG    1      -26.205  71.904  31.746  0.00  0.00    +0.063 A 
ENDROOT
BRANCH   1  11
ATOM     10  C   LIG    1      -23.173  74.199  31.084  0.00  0.00    +0.107 C 
ATOM     11  N   LIG    1      -24.126  73.309  31.819  0.00  0.00    -0.308 N 
ATOM     12  C   LIG    1      -23.587  73.038  33.162  0.00  0.00    +0.107 C 
ATOM     13  C   LIG    1      -22.095  73.034  32.930  0.00  0.00    +0.021 C 
ATOM     14  C   LIG    1      -21.933  74.242  32.016  0.00  0.00    +0.029 C 
BRANCH  10  16
ATOM     15  C   LIG    1      -23.094  76.599  30.056  0.00  0.00    +0.046 A 
ATOM     16  C   LIG    1      -23.734  75.600  30.826  0.00  0.00    -0.003 A 
ATOM     17  C   LIG    1      -24.951  75.976  31.433  0.00  0.00    +0.047 A 
ATOM     18  C   LIG    1      -25.487  77.243  31.249  0.00  0.00    +0.142 A 
ATOM     19  F   LIG    1      -26.640  77.585  31.836  0.00  0.00    -0.204 F 
ATOM     20  C   LIG    1      -24.810  78.137  30.457  0.00  0.00    +0.149 A 
ATOM     21  N   LIG    1      -23.641  77.838  29.859  0.00  0.00    -0.257 NA
BRANCH  15  23
ATOM     22  C   LIG    1      -20.669  77.281  30.022  0.00  0.00    +0.010 C 
ATOM     23  C   LIG    1      -21.769  76.457  29.346  0.00  0.00    +0.052 C 
ENDBRANCH  15  23
ENDBRANCH  10  16
ENDBRANCH   1  11
BRANCH   4  24
ATOM     24  C   LIG    1      -23.455  69.886  27.764  0.00  0.00    +0.221 C 
ATOM     25  N   LIG    1      -22.242  69.472  27.898  0.00  0.00    -0.247 NA
BRANCH  25  26
ATOM     26  C   LIG    1      -21.693  68.689  28.980  0.00  0.00    +0.109 C 
ATOM     27  C   LIG    1      -20.322  69.250  29.355  0.00  0.00    +0.029 C 
ATOM     28  C   LIG    1      -19.328  69.191  28.192  0.00  0.00    +0.033 C 
ATOM     29  C   LIG    1      -19.203  67.798  27.583  0.00  0.00    +0.115 C 
ATOM     30  C   LIG    1      -20.556  67.152  27.283  0.00  0.00    +0.033 C 
ATOM     31  C   LIG    1      -21.525  67.242  28.468  0.00  0.00    +0.029 C 
BRANCH  29  32
ATOM     32  O   LIG    1      -18.478  66.970  28.493  0.00  0.00    -0.392 OA
ATOM     33  H   LIG    1      -18.215  66.173  27.999  0.00  0.00    +0.210 HD
ENDBRANCH  29  32
ENDBRANCH  25  26
BRANCH  24  34
ATOM     34  O   LIG    1      -23.703  70.595  26.641  0.00  0.00    -0.492 OA
ATOM     35  H   LIG    1      -23.173  70.248  25.886  0.00  0.00    +0.294 HD
ENDBRANCH  24  34
ENDBRANCH   4  24
TORSDOF 7
ENDMDL
MODEL 7
REMARK VINA RESULT:      -5.7      6.614      9.954
REMARK  Name = pdb/CHEMBL3971680.pdb
REMARK                            x       y       z     vdW  Elec       q    Type
REMARK                         _______ _______ _______ _____ _____    ______ ____
ROOT
ATOM      1  C   LIG    1      -20.888  83.592  13.931  0.00  0.00    +0.126 A 
ATOM      2  N   LIG    1      -21.412  84.804  13.961  0.00  0.00    -0.212 NA
ATOM      3  C   LIG    1      -20.607  85.870  13.689  0.00  0.00    +0.170 A 
ATOM      4  C   LIG    1      -20.876  87.241  13.679  0.00  0.00    +0.100 A 
ATOM      5  C   LIG    1      -19.589  87.805  13.549  0.00  0.00    +0.150 A 
ATOM      6  N   LIG    1      -18.618  86.908  13.372  0.00  0.00    -0.173 NA
ATOM      7  N   LIG    1      -19.251  85.715  13.432  0.00  0.00    -0.221 N 
ATOM      8  C   LIG    1      -18.709  84.443  13.301  0.00  0.00    +0.118 A 
ATOM      9  C   LIG    1      -19.474  83.355  13.472  0.00  0.00    +0.063 A 
ENDROOT
BRANCH   1  11
ATOM     10  C   LIG    1      -23.104  82.652  14.738  0.00  0.00    +0.107 C 
ATOM     11  N   LIG    1      -21.645  82.531  14.425  0.00  0.00    -0.308 N 
ATOM     12  C   LIG    1      -21.022  81.621  15.399  0.00  0.00    +0.107 C 
ATOM     13  C   LIG    1      -21.820  81.876  16.655  0.00  0.00    +0.021 C 
ATOM     14  C   LIG    1      -23.238  81.923  16.101  0.00  0.00    +0.029 C 
BRANCH  10  16
ATOM     15  C   LIG    1      -24.377  82.645  12.456  0.00  0.00    +0.046 A 
ATOM     16  C   LIG    1      -24.004  82.022  13.671  0.00  0.00    -0.003 A 
ATOM     17  C   LIG    1      -24.566  80.750  13.908  0.00  0.00    +0.047 A 
ATOM     18  C   LIG    1      -25.407  80.150  12.981  0.00  0.00    +0.142 A 
ATOM     19  F   LIG    1      -25.936  78.945  13.225  0.00  0.00    -0.204 F 
ATOM     20  C   LIG    1      -25.687  80.817  11.815  0.00  0.00    +0.149 A 
ATOM     21  N   LIG    1      -25.186  82.036  11.537  0.00  0.00    -0.257 NA
BRANCH  15  23
ATOM     22  C   LIG    1      -22.953  83.939  10.831  0.00  0.00    +0.010 C 
ATOM     23  C   LIG    1      -23.944  84.016  11.995  0.00  0.00    +0.052 C 
ENDBRANCH  15  23
ENDBRANCH  10  16
ENDBRANCH   1  11
BRANCH   4  24
ATOM     24  C   LIG    1      -22.179  87.828  13.893  0.00  0.00    +0.221 C 
ATOM     25  N   LIG    1      -22.924  88.483  13.070  0.00  0.00    -0.247 NA
BRANCH  25  26
ATOM     26  C   LIG    1      -22.648  88.794  11.688  0.00  0.00    +0.109 C 
ATOM     27  C   LIG    1      -23.329  90.115  11.330  0.00  0.00    +0.029 C 
ATOM     28  C   LIG    1      -24.850  90.051  11.493  0.00  0.00    +0.033 C 
ATOM     29  C   LIG    1      -25.483  88.884  10.741  0.00  0.00    +0.115 C 
ATOM     30  C   LIG    1      -24.771  87.555  10.990  0.00  0.00    +0.033 C 
ATOM     31  C   LIG    1      -23.250  87.664  10.826  0.00  0.00    +0.029 C 
BRANCH  29  32
ATOM     32  O   LIG    1      -25.457  89.179   9.344  0.00  0.00    -0.392 OA
ATOM     33  H   LIG    1      -25.014  90.041   9.248  0.00  0.00    +0.210 HD
ENDBRANCH  29  32
ENDBRANCH  25  26
BRANCH  24  34
ATOM     34  O   LIG    1      -22.688  87.668  15.134  0.00  0.00    -0.492 OA
ATOM     35  H   LIG    1      -22.658  88.518  15.633  0.00  0.00    +0.294 HD
ENDBRANCH  24  34
ENDBRANCH   4  24
TORSDOF 7
ENDMDL
MODEL 8
REMARK VINA RESULT:      -5.6      5.674     10.372
REMARK  Name = pdb/CHEMBL3971680.pdb
REMARK                            x       y       z     vdW  Elec       q    Type
REMARK                         _______ _______ _______ _____ _____    ______ ____
ROOT
ATOM      1  C   LIG    1      -21.115  83.750  12.832  0.00  0.00    +0.126 A 
ATOM      2  N   LIG    1      -21.562  83.069  13.872  0.00  0.00    -0.212 NA
ATOM      3  C   LIG    1      -20.669  82.363  14.622  0.00  0.00    +0.170 A 
ATOM      4  C   LIG    1      -20.858  81.542  15.738  0.00  0.00    +0.100 A 
ATOM      5  C   LIG    1      -19.591  80.941  15.894  0.00  0.00    +0.150 A 
ATOM      6  N   LIG    1      -18.662  81.408  15.059  0.00  0.00    -0.173 NA
ATOM      7  N   LIG    1      -19.322  82.304  14.292  0.00  0.00    -0.221 N 
ATOM      8  C   LIG    1      -18.823  83.092  13.263  0.00  0.00    +0.118 A 
ATOM      9  C   LIG    1      -19.643  83.874  12.545  0.00  0.00    +0.063 A 
ENDROOT
BRANCH   1  11
ATOM     10  C   LIG    1      -23.339  84.888  12.383  0.00  0.00    +0.107 C 
ATOM     11  N   LIG    1      -22.045  84.282  11.940  0.00  0.00    -0.308 N 
ATOM     12  C   LIG    1      -22.255  83.593  10.657  0.00  0.00    +0.107 C 
ATOM     13  C   LIG    1      -23.676  83.096  10.771  0.00  0.00    +0.021 C 
ATOM     14  C   LIG    1      -24.368  84.311  11.376  0.00  0.00    +0.029 C 
BRANCH  10  16
ATOM     15  C   LIG    1      -22.744  87.239  13.357  0.00  0.00    +0.046 A 
ATOM     16  C   LIG    1      -23.326  86.419  12.361  0.00  0.00    -0.003 A 
ATOM     17  C   LIG    1      -23.982  87.098  11.311  0.00  0.00    +0.047 A 
ATOM     18  C   LIG    1      -24.018  88.485  11.262  0.00  0.00    +0.142 A 
ATOM     19  F   LIG    1      -24.649  89.112  10.263  0.00  0.00    -0.204 F 
ATOM     20  C   LIG    1      -23.397  89.197  12.257  0.00  0.00    +0.149 A 
ATOM     21  N   LIG    1      -22.762  88.605  13.287  0.00  0.00    -0.257 NA
BRANCH  15  23
ATOM     22  C   LIG    1      -20.571  87.225  14.629  0.00  0.00    +0.010 C 
ATOM     23  C   LIG    1      -22.027  86.754  14.594  0.00  0.00    +0.052 C 
ENDBRANCH  15  23
ENDBRANCH  10  16
ENDBRANCH   1  11
BRANCH   4  24
ATOM     24  C   LIG    1      -22.122  81.335  16.405  0.00  0.00    +0.221 C 
ATOM     25  N   LIG    1      -23.018  80.433  16.195  0.00  0.00    -0.247 NA
BRANCH  25  26
ATOM     26  C   LIG    1      -22.980  79.363  15.226  0.00  0.00    +0.109 C 
ATOM     27  C   LIG    1      -23.292  79.934  13.843  0.00  0.00    +0.029 C 
ATOM     28  C   LIG    1      -24.683  80.571  13.773  0.00  0.00    +0.033 C 
ATOM     29  C   LIG    1      -25.792  79.636  14.245  0.00  0.00    +0.115 C 
ATOM     30  C   LIG    1      -25.479  78.961  15.580  0.00  0.00    +0.033 C 
ATOM     31  C   LIG    1      -24.075  78.346  15.612  0.00  0.00    +0.029 C 
BRANCH  29  32
ATOM     32  O   LIG    1      -25.994  78.634  13.247  0.00  0.00    -0.392 OA
ATOM     33  H   LIG    1      -26.789  78.891  12.748  0.00  0.00    +0.210 HD
ENDBRANCH  29  32
ENDBRANCH  25  26
BRANCH  24  34
ATOM     34  O   LIG    1      -22.408  82.216  17.389  0.00  0.00    -0.492 OA
ATOM     35  H   LIG    1      -21.581  82.528  17.826  0.00  0.00    +0.294 HD
ENDBRANCH  24  34
ENDBRANCH   4  24
TORSDOF 7
ENDMDL
MODEL 9
REMARK VINA RESULT:      -5.6     16.144     18.620
REMARK  Name = pdb/CHEMBL3971680.pdb
REMARK                            x       y       z     vdW  Elec       q    Type
REMARK                         _______ _______ _______ _____ _____    ______ ____
ROOT
ATOM      1  C   LIG    1      -21.561  78.292  33.370  0.00  0.00    +0.126 A 
ATOM      2  N   LIG    1      -22.441  77.679  32.598  0.00  0.00    -0.212 NA
ATOM      3  C   LIG    1      -22.045  77.262  31.362  0.00  0.00    +0.170 A 
ATOM      4  C   LIG    1      -22.756  76.628  30.339  0.00  0.00    +0.100 A 
ATOM      5  C   LIG    1      -21.849  76.678  29.260  0.00  0.00    +0.150 A 
ATOM      6  N   LIG    1      -20.652  77.172  29.578  0.00  0.00    -0.173 NA
ATOM      7  N   LIG    1      -20.766  77.508  30.882  0.00  0.00    -0.221 N 
ATOM      8  C   LIG    1      -19.804  78.062  31.717  0.00  0.00    +0.118 A 
ATOM      9  C   LIG    1      -20.114  78.413  32.974  0.00  0.00    +0.063 A 
ENDROOT
BRANCH   1  11
ATOM     10  C   LIG    1      -23.405  79.464  34.664  0.00  0.00    +0.107 C 
ATOM     11  N   LIG    1      -22.019  78.914  34.530  0.00  0.00    -0.308 N 
ATOM     12  C   LIG    1      -21.089  79.781  35.272  0.00  0.00    +0.107 C 
ATOM     13  C   LIG    1      -21.708  81.149  35.117  0.00  0.00    +0.021 C 
ATOM     14  C   LIG    1      -23.180  80.836  35.350  0.00  0.00    +0.029 C 
BRANCH  10  16
ATOM     15  C   LIG    1      -25.365  77.761  34.955  0.00  0.00    +0.046 A 
ATOM     16  C   LIG    1      -24.331  78.566  35.488  0.00  0.00    -0.003 A 
ATOM     17  C   LIG    1      -24.209  78.558  36.894  0.00  0.00    +0.047 A 
ATOM     18  C   LIG    1      -25.043  77.780  37.686  0.00  0.00    +0.142 A 
ATOM     19  F   LIG    1      -24.918  77.788  39.018  0.00  0.00    -0.204 F 
ATOM     20  C   LIG    1      -25.998  77.005  37.076  0.00  0.00    +0.149 A 
ATOM     21  N   LIG    1      -26.166  76.977  35.739  0.00  0.00    -0.257 NA
BRANCH  15  23
ATOM     22  C   LIG    1      -27.078  76.950  33.296  0.00  0.00    +0.010 C 
ATOM     23  C   LIG    1      -25.722  77.633  33.493  0.00  0.00    +0.052 C 
ENDBRANCH  15  23
ENDBRANCH  10  16
ENDBRANCH   1  11
BRANCH   4  24
ATOM     24  C   LIG    1      -24.128  76.189  30.438  0.00  0.00    +0.221 C 
ATOM     25  N   LIG    1      -24.596  75.055  30.831  0.00  0.00    -0.247 NA
BRANCH  25  26
ATOM     26  C   LIG    1      -23.852  73.908  31.296  0.00  0.00    +0.109 C 
ATOM     27  C   LIG    1      -24.565  72.635  30.841  0.00  0.00    +0.029 C 
ATOM     28  C   LIG    1      -25.983  72.524  31.407  0.00  0.00    +0.033 C 
ATOM     29  C   LIG    1      -26.034  72.671  32.925  0.00  0.00    +0.115 C 
ATOM     30  C   LIG    1      -25.248  73.878  33.437  0.00  0.00    +0.033 C 
ATOM     31  C   LIG    1      -23.838  73.957  32.839  0.00  0.00    +0.029 C 
BRANCH  29  32
ATOM     32  O   LIG    1      -25.505  71.481  33.512  0.00  0.00    -0.392 OA
ATOM     33  H   LIG    1      -25.103  70.967  32.789  0.00  0.00    +0.210 HD
ENDBRANCH  29  32
ENDBRANCH  25  26
BRANCH  24  34
ATOM     34  O   LIG    1      -25.054  77.099  30.063  0.00  0.00    -0.492 OA
ATOM     35  H   LIG    1      -25.213  77.053  29.091  0.00  0.00    +0.294 HD
ENDBRANCH  24  34
ENDBRANCH   4  24
TORSDOF 7
ENDMDL
