MODEL 1
REMARK VINA RESULT:      -6.4      0.000      0.000
REMARK  Name = pdb/CHEMBL3951249.pdb
REMARK                            x       y       z     vdW  Elec       q    Type
REMARK                         _______ _______ _______ _____ _____    ______ ____
ROOT
ATOM      1  C   LIG    1      -24.394  78.159  32.920  0.00  0.00    +0.131 A 
ATOM      2  C   LIG    1      -24.359  78.745  34.162  0.00  0.00    +0.183 A 
ATOM      3  N   LIG    1      -23.414  79.520  34.775  0.00  0.00    -0.211 NA
ATOM      4  C   LIG    1      -23.617  79.896  36.020  0.00  0.00    +0.126 A 
ATOM      5  C   LIG    1      -24.898  79.543  36.744  0.00  0.00    +0.063 A 
ATOM      6  C   LIG    1      -25.811  78.825  36.076  0.00  0.00    +0.118 A 
ATOM      7  N   LIG    1      -25.562  78.410  34.777  0.00  0.00    -0.220 N 
ATOM      8  N   LIG    1      -26.364  77.678  33.963  0.00  0.00    -0.171 NA
ATOM      9  C   LIG    1      -25.635  77.508  32.855  0.00  0.00    +0.164 A 
ENDROOT
BRANCH   4  10
ATOM     10  N   LIG    1      -22.630  80.650  36.648  0.00  0.00    -0.308 N 
ATOM     11  C   LIG    1      -21.486  81.231  35.918  0.00  0.00    +0.108 C 
ATOM     12  C   LIG    1      -21.213  82.584  36.603  0.00  0.00    +0.029 C 
ATOM     13  C   LIG    1      -22.480  82.870  37.390  0.00  0.00    +0.021 C 
ATOM     14  C   LIG    1      -22.923  81.484  37.820  0.00  0.00    +0.107 C 
BRANCH  11  15
ATOM     15  C   LIG    1      -20.271  80.331  35.966  0.00  0.00    +0.011 A 
ATOM     16  C   LIG    1      -19.957  79.543  34.853  0.00  0.00    +0.129 A 
ATOM     17  F   LIG    1      -20.743  79.583  33.769  0.00  0.00    -0.205 F 
ATOM     18  C   LIG    1      -18.841  78.706  34.840  0.00  0.00    +0.041 A 
ATOM     19  C   LIG    1      -18.007  78.653  35.953  0.00  0.00    +0.041 A 
ATOM     20  C   LIG    1      -18.297  79.440  37.061  0.00  0.00    +0.124 A 
ATOM     21  F   LIG    1      -17.493  79.398  38.130  0.00  0.00    -0.205 F 
ATOM     22  C   LIG    1      -19.413  80.274  37.076  0.00  0.00    +0.046 A 
ENDBRANCH  11  15
ENDBRANCH   4  10
BRANCH   1  24
ATOM     23  C   LIG    1      -22.519  77.134  31.989  0.00  0.00    +0.203 C 
ATOM     24  N   LIG    1      -23.402  78.070  31.935  0.00  0.00    -0.211 NA
BRANCH  23  25
ATOM     25  C   LIG    1      -21.518  77.030  30.905  0.00  0.00    +0.141 C 
ATOM     26  C   LIG    1      -20.081  76.648  31.277  0.00  0.00    +0.026 C 
ATOM     27  C   LIG    1      -20.382  78.055  30.882  0.00  0.00    +0.026 C 
BRANCH  25  28
ATOM     28  C   LIG    1      -22.074  76.536  29.602  0.00  0.00    +0.404 C 
ATOM     29  F   LIG    1      -23.044  77.365  29.138  0.00  0.00    -0.170 F 
ATOM     30  F   LIG    1      -22.635  75.308  29.738  0.00  0.00    -0.170 F 
ATOM     31  F   LIG    1      -21.137  76.444  28.628  0.00  0.00    -0.170 F 
ENDBRANCH  25  28
ENDBRANCH  23  25
BRANCH  23  32
ATOM     32  O   LIG    1      -22.344  76.182  32.929  0.00  0.00    -0.495 OA
ATOM     33  H   LIG    1      -23.051  75.512  32.883  0.00  0.00    +0.293 HD
ENDBRANCH  23  32
ENDBRANCH   1  24
TORSDOF 6
ENDMDL
MODEL 2
REMARK VINA RESULT:      -6.3      2.413      5.378
REMARK  Name = pdb/CHEMBL3951249.pdb
REMARK                            x       y       z     vdW  Elec       q    Type
REMARK                         _______ _______ _______ _____ _____    ______ ____
ROOT
ATOM      1  C   LIG    1      -17.997  78.348  33.926  0.00  0.00    +0.131 A 
ATOM      2  C   LIG    1      -19.047  78.877  34.637  0.00  0.00    +0.183 A 
ATOM      3  N   LIG    1      -20.378  78.986  34.345  0.00  0.00    -0.211 NA
ATOM      4  C   LIG    1      -21.162  79.612  35.198  0.00  0.00    +0.126 A 
ATOM      5  C   LIG    1      -20.623  80.142  36.510  0.00  0.00    +0.063 A 
ATOM      6  C   LIG    1      -19.321  79.961  36.765  0.00  0.00    +0.118 A 
ATOM      7  N   LIG    1      -18.506  79.329  35.838  0.00  0.00    -0.220 N 
ATOM      8  N   LIG    1      -17.177  79.070  35.928  0.00  0.00    -0.171 NA
ATOM      9  C   LIG    1      -16.875  78.504  34.754  0.00  0.00    +0.164 A 
ENDROOT
BRANCH   4  10
ATOM     10  N   LIG    1      -22.507  79.753  34.873  0.00  0.00    -0.308 N 
ATOM     11  C   LIG    1      -23.458  78.626  34.913  0.00  0.00    +0.108 C 
ATOM     12  C   LIG    1      -24.790  79.236  35.395  0.00  0.00    +0.029 C 
ATOM     13  C   LIG    1      -24.394  80.571  36.000  0.00  0.00    +0.021 C 
ATOM     14  C   LIG    1      -23.236  81.003  35.121  0.00  0.00    +0.107 C 
BRANCH  11  15
ATOM     15  C   LIG    1      -23.609  77.966  33.559  0.00  0.00    +0.011 A 
ATOM     16  C   LIG    1      -23.156  76.654  33.382  0.00  0.00    +0.129 A 
ATOM     17  F   LIG    1      -22.581  76.007  34.404  0.00  0.00    -0.205 F 
ATOM     18  C   LIG    1      -23.282  75.996  32.158  0.00  0.00    +0.041 A 
ATOM     19  C   LIG    1      -23.882  76.647  31.084  0.00  0.00    +0.041 A 
ATOM     20  C   LIG    1      -24.349  77.946  31.249  0.00  0.00    +0.124 A 
ATOM     21  F   LIG    1      -24.933  78.572  30.220  0.00  0.00    -0.205 F 
ATOM     22  C   LIG    1      -24.221  78.605  32.469  0.00  0.00    +0.046 A 
ENDBRANCH  11  15
ENDBRANCH   4  10
BRANCH   1  24
ATOM     23  C   LIG    1      -18.732  76.914  32.242  0.00  0.00    +0.203 C 
ATOM     24  N   LIG    1      -17.947  77.866  32.612  0.00  0.00    -0.211 NA
BRANCH  23  25
ATOM     25  C   LIG    1      -18.698  76.464  30.833  0.00  0.00    +0.141 C 
ATOM     26  C   LIG    1      -17.891  75.206  30.492  0.00  0.00    +0.026 C 
ATOM     27  C   LIG    1      -17.362  76.542  30.091  0.00  0.00    +0.026 C 
BRANCH  25  28
ATOM     28  C   LIG    1      -19.964  76.729  30.073  0.00  0.00    +0.404 C 
ATOM     29  F   LIG    1      -20.595  77.835  30.544  0.00  0.00    -0.170 F 
ATOM     30  F   LIG    1      -20.835  75.696  30.191  0.00  0.00    -0.170 F 
ATOM     31  F   LIG    1      -19.755  76.929  28.750  0.00  0.00    -0.170 F 
ENDBRANCH  25  28
ENDBRANCH  23  25
BRANCH  23  32
ATOM     32  O   LIG    1      -19.627  76.217  32.972  0.00  0.00    -0.495 OA
ATOM     33  H   LIG    1      -20.328  75.846  32.403  0.00  0.00    +0.293 HD
ENDBRANCH  23  32
ENDBRANCH   1  24
TORSDOF 6
ENDMDL
MODEL 3
REMARK VINA RESULT:      -6.2     18.436     21.295
REMARK  Name = pdb/CHEMBL3951249.pdb
REMARK                            x       y       z     vdW  Elec       q    Type
REMARK                         _______ _______ _______ _____ _____    ______ ____
ROOT
ATOM      1  C   LIG    1      -18.729  85.384  13.346  0.00  0.00    +0.131 A 
ATOM      2  C   LIG    1      -18.963  84.051  13.586  0.00  0.00    +0.183 A 
ATOM      3  N   LIG    1      -20.054  83.396  14.085  0.00  0.00    -0.211 NA
ATOM      4  C   LIG    1      -19.977  82.096  14.276  0.00  0.00    +0.126 A 
ATOM      5  C   LIG    1      -18.734  81.322  13.889  0.00  0.00    +0.063 A 
ATOM      6  C   LIG    1      -17.715  82.009  13.357  0.00  0.00    +0.118 A 
ATOM      7  N   LIG    1      -17.805  83.384  13.196  0.00  0.00    -0.220 N 
ATOM      8  N   LIG    1      -16.875  84.231  12.686  0.00  0.00    -0.171 NA
ATOM      9  C   LIG    1      -17.433  85.440  12.810  0.00  0.00    +0.164 A 
ENDROOT
BRANCH   4  10
ATOM     10  N   LIG    1      -21.078  81.445  14.821  0.00  0.00    -0.308 N 
ATOM     11  C   LIG    1      -20.988  80.602  16.029  0.00  0.00    +0.108 C 
ATOM     12  C   LIG    1      -22.312  80.833  16.784  0.00  0.00    +0.029 C 
ATOM     13  C   LIG    1      -22.874  82.106  16.177  0.00  0.00    +0.021 C 
ATOM     14  C   LIG    1      -22.432  82.006  14.730  0.00  0.00    +0.107 C 
BRANCH  11  15
ATOM     15  C   LIG    1      -20.795  79.141  15.685  0.00  0.00    +0.011 A 
ATOM     16  C   LIG    1      -19.618  78.494  16.078  0.00  0.00    +0.129 A 
ATOM     17  F   LIG    1      -18.673  79.178  16.738  0.00  0.00    -0.205 F 
ATOM     18  C   LIG    1      -19.395  77.146  15.797  0.00  0.00    +0.041 A 
ATOM     19  C   LIG    1      -20.365  76.414  15.118  0.00  0.00    +0.041 A 
ATOM     20  C   LIG    1      -21.546  77.039  14.733  0.00  0.00    +0.124 A 
ATOM     21  F   LIG    1      -22.484  76.336  14.088  0.00  0.00    -0.205 F 
ATOM     22  C   LIG    1      -21.768  78.385  15.011  0.00  0.00    +0.046 A 
ENDBRANCH  11  15
ENDBRANCH   4  10
BRANCH   1  24
ATOM     23  C   LIG    1      -20.690  86.633  13.183  0.00  0.00    +0.203 C 
ATOM     24  N   LIG    1      -19.502  86.508  13.663  0.00  0.00    -0.211 NA
BRANCH  23  25
ATOM     25  C   LIG    1      -21.505  87.802  13.579  0.00  0.00    +0.141 C 
ATOM     26  C   LIG    1      -22.124  88.665  12.474  0.00  0.00    +0.026 C 
ATOM     27  C   LIG    1      -20.963  89.195  13.248  0.00  0.00    +0.026 C 
BRANCH  25  28
ATOM     28  C   LIG    1      -22.275  87.610  14.852  0.00  0.00    +0.404 C 
ATOM     29  F   LIG    1      -21.446  87.326  15.889  0.00  0.00    -0.170 F 
ATOM     30  F   LIG    1      -23.147  86.576  14.749  0.00  0.00    -0.170 F 
ATOM     31  F   LIG    1      -22.989  88.704  15.209  0.00  0.00    -0.170 F 
ENDBRANCH  25  28
ENDBRANCH  23  25
BRANCH  23  32
ATOM     32  O   LIG    1      -21.348  85.829  12.322  0.00  0.00    -0.495 OA
ATOM     33  H   LIG    1      -21.073  86.002  11.403  0.00  0.00    +0.293 HD
ENDBRANCH  23  32
ENDBRANCH   1  24
TORSDOF 6
ENDMDL
MODEL 4
REMARK VINA RESULT:      -6.2      2.352      5.918
REMARK  Name = pdb/CHEMBL3951249.pdb
REMARK                            x       y       z     vdW  Elec       q    Type
REMARK                         _______ _______ _______ _____ _____    ______ ____
ROOT
ATOM      1  C   LIG    1      -24.848  79.157  35.126  0.00  0.00    +0.131 A 
ATOM      2  C   LIG    1      -24.517  78.365  34.053  0.00  0.00    +0.183 A 
ATOM      3  N   LIG    1      -23.380  78.285  33.299  0.00  0.00    -0.211 NA
ATOM      4  C   LIG    1      -23.364  77.467  32.267  0.00  0.00    +0.126 A 
ATOM      5  C   LIG    1      -24.549  76.578  31.956  0.00  0.00    +0.063 A 
ATOM      6  C   LIG    1      -25.616  76.662  32.760  0.00  0.00    +0.118 A 
ATOM      7  N   LIG    1      -25.626  77.555  33.821  0.00  0.00    -0.220 N 
ATOM      8  N   LIG    1      -26.616  77.775  34.723  0.00  0.00    -0.171 NA
ATOM      9  C   LIG    1      -26.146  78.766  35.488  0.00  0.00    +0.164 A 
ENDROOT
BRANCH   4  10
ATOM     10  N   LIG    1      -22.216  77.422  31.482  0.00  0.00    -0.308 N 
ATOM     11  C   LIG    1      -21.064  76.558  31.804  0.00  0.00    +0.108 C 
ATOM     12  C   LIG    1      -20.515  76.091  30.442  0.00  0.00    +0.029 C 
ATOM     13  C   LIG    1      -21.643  76.373  29.465  0.00  0.00    +0.021 C 
ATOM     14  C   LIG    1      -22.262  77.636  30.031  0.00  0.00    +0.107 C 
BRANCH  11  15
ATOM     15  C   LIG    1      -20.010  77.295  32.602  0.00  0.00    +0.011 A 
ATOM     16  C   LIG    1      -20.065  77.266  34.000  0.00  0.00    +0.129 A 
ATOM     17  F   LIG    1      -21.055  76.603  34.612  0.00  0.00    -0.205 F 
ATOM     18  C   LIG    1      -19.112  77.918  34.783  0.00  0.00    +0.041 A 
ATOM     19  C   LIG    1      -18.070  78.608  34.168  0.00  0.00    +0.041 A 
ATOM     20  C   LIG    1      -17.995  78.634  32.781  0.00  0.00    +0.124 A 
ATOM     21  F   LIG    1      -16.991  79.290  32.187  0.00  0.00    -0.205 F 
ATOM     22  C   LIG    1      -18.947  77.986  31.998  0.00  0.00    +0.046 A 
ENDBRANCH  11  15
ENDBRANCH   4  10
BRANCH   1  24
ATOM     23  C   LIG    1      -23.009  80.038  36.256  0.00  0.00    +0.203 C 
ATOM     24  N   LIG    1      -24.156  80.230  35.704  0.00  0.00    -0.211 NA
BRANCH  23  25
ATOM     25  C   LIG    1      -22.275  81.198  36.808  0.00  0.00    +0.141 C 
ATOM     26  C   LIG    1      -22.482  81.553  38.284  0.00  0.00    +0.026 C 
ATOM     27  C   LIG    1      -23.091  82.421  37.234  0.00  0.00    +0.026 C 
BRANCH  25  28
ATOM     28  C   LIG    1      -20.918  81.408  36.205  0.00  0.00    +0.404 C 
ATOM     29  F   LIG    1      -20.579  82.723  36.209  0.00  0.00    -0.170 F 
ATOM     30  F   LIG    1      -20.882  80.994  34.914  0.00  0.00    -0.170 F 
ATOM     31  F   LIG    1      -19.937  80.748  36.866  0.00  0.00    -0.170 F 
ENDBRANCH  25  28
ENDBRANCH  23  25
BRANCH  23  32
ATOM     32  O   LIG    1      -22.331  78.884  36.430  0.00  0.00    -0.495 OA
ATOM     33  H   LIG    1      -21.412  79.058  36.709  0.00  0.00    +0.293 HD
ENDBRANCH  23  32
ENDBRANCH   1  24
TORSDOF 6
ENDMDL
MODEL 5
REMARK VINA RESULT:      -6.1     18.616     21.743
REMARK  Name = pdb/CHEMBL3951249.pdb
REMARK                            x       y       z     vdW  Elec       q    Type
REMARK                         _______ _______ _______ _____ _____    ______ ____
ROOT
ATOM      1  C   LIG    1      -24.245  82.252  12.683  0.00  0.00    +0.131 A 
ATOM      2  C   LIG    1      -23.779  83.519  12.426  0.00  0.00    +0.183 A 
ATOM      3  N   LIG    1      -22.983  84.359  13.152  0.00  0.00    -0.211 NA
ATOM      4  C   LIG    1      -22.747  85.567  12.685  0.00  0.00    +0.126 A 
ATOM      5  C   LIG    1      -23.284  86.002  11.338  0.00  0.00    +0.063 A 
ATOM      6  C   LIG    1      -24.016  85.118  10.647  0.00  0.00    +0.118 A 
ATOM      7  N   LIG    1      -24.281  83.863  11.174  0.00  0.00    -0.220 N 
ATOM      8  N   LIG    1      -25.003  82.857  10.619  0.00  0.00    -0.171 NA
ATOM      9  C   LIG    1      -24.999  81.900  11.553  0.00  0.00    +0.164 A 
ENDROOT
BRANCH   4  10
ATOM     10  N   LIG    1      -21.968  86.427  13.451  0.00  0.00    -0.308 N 
ATOM     11  C   LIG    1      -21.026  87.395  12.855  0.00  0.00    +0.108 C 
ATOM     12  C   LIG    1      -21.087  88.636  13.766  0.00  0.00    +0.029 C 
ATOM     13  C   LIG    1      -22.365  88.452  14.566  0.00  0.00    +0.021 C 
ATOM     14  C   LIG    1      -22.432  86.947  14.743  0.00  0.00    +0.107 C 
BRANCH  11  15
ATOM     15  C   LIG    1      -19.622  86.838  12.770  0.00  0.00    +0.011 A 
ATOM     16  C   LIG    1      -18.634  87.566  12.098  0.00  0.00    +0.129 A 
ATOM     17  F   LIG    1      -18.947  88.736  11.525  0.00  0.00    -0.205 F 
ATOM     18  C   LIG    1      -17.322  87.104  12.002  0.00  0.00    +0.041 A 
ATOM     19  C   LIG    1      -16.972  85.894  12.595  0.00  0.00    +0.041 A 
ATOM     20  C   LIG    1      -17.939  85.165  13.278  0.00  0.00    +0.124 A 
ATOM     21  F   LIG    1      -17.605  84.005  13.856  0.00  0.00    -0.205 F 
ATOM     22  C   LIG    1      -19.250  85.624  13.372  0.00  0.00    +0.046 A 
ENDBRANCH  11  15
ENDBRANCH   4  10
BRANCH   1  24
ATOM     23  C   LIG    1      -23.068  80.817  14.093  0.00  0.00    +0.203 C 
ATOM     24  N   LIG    1      -24.148  81.472  13.842  0.00  0.00    -0.211 NA
BRANCH  23  25
ATOM     25  C   LIG    1      -22.972  80.048  15.353  0.00  0.00    +0.141 C 
ATOM     26  C   LIG    1      -23.067  78.519  15.280  0.00  0.00    +0.026 C 
ATOM     27  C   LIG    1      -24.219  79.296  15.826  0.00  0.00    +0.026 C 
BRANCH  25  28
ATOM     28  C   LIG    1      -22.064  80.659  16.378  0.00  0.00    +0.404 C 
ATOM     29  F   LIG    1      -20.889  79.983  16.458  0.00  0.00    -0.170 F 
ATOM     30  F   LIG    1      -22.623  80.627  17.614  0.00  0.00    -0.170 F 
ATOM     31  F   LIG    1      -21.757  81.951  16.110  0.00  0.00    -0.170 F 
ENDBRANCH  25  28
ENDBRANCH  23  25
BRANCH  23  32
ATOM     32  O   LIG    1      -21.947  80.707  13.350  0.00  0.00    -0.495 OA
ATOM     33  H   LIG    1      -21.425  81.530  13.384  0.00  0.00    +0.293 HD
ENDBRANCH  23  32
ENDBRANCH   1  24
TORSDOF 6
ENDMDL
MODEL 6
REMARK VINA RESULT:      -6.0     18.956     22.749
REMARK  Name = pdb/CHEMBL3951249.pdb
REMARK                            x       y       z     vdW  Elec       q    Type
REMARK                         _______ _______ _______ _____ _____    ______ ____
ROOT
ATOM      1  C   LIG    1      -22.763  83.129  15.698  0.00  0.00    +0.131 A 
ATOM      2  C   LIG    1      -23.405  82.171  14.950  0.00  0.00    +0.183 A 
ATOM      3  N   LIG    1      -24.006  82.228  13.724  0.00  0.00    -0.211 NA
ATOM      4  C   LIG    1      -24.614  81.152  13.269  0.00  0.00    +0.126 A 
ATOM      5  C   LIG    1      -24.593  79.855  14.048  0.00  0.00    +0.063 A 
ATOM      6  C   LIG    1      -23.945  79.844  15.220  0.00  0.00    +0.118 A 
ATOM      7  N   LIG    1      -23.341  80.998  15.696  0.00  0.00    -0.220 N 
ATOM      8  N   LIG    1      -22.654  81.167  16.855  0.00  0.00    -0.171 NA
ATOM      9  C   LIG    1      -22.337  82.467  16.858  0.00  0.00    +0.164 A 
ENDROOT
BRANCH   4  10
ATOM     10  N   LIG    1      -25.257  81.232  12.038  0.00  0.00    -0.308 N 
ATOM     11  C   LIG    1      -24.706  81.992  10.899  0.00  0.00    +0.108 C 
ATOM     12  C   LIG    1      -25.085  81.177   9.647  0.00  0.00    +0.029 C 
ATOM     13  C   LIG    1      -25.448  79.805  10.186  0.00  0.00    +0.021 C 
ATOM     14  C   LIG    1      -26.083  80.133  11.524  0.00  0.00    +0.107 C 
BRANCH  11  15
ATOM     15  C   LIG    1      -25.264  83.397  10.835  0.00  0.00    +0.011 A 
ATOM     16  C   LIG    1      -24.526  84.400  10.196  0.00  0.00    +0.129 A 
ATOM     17  F   LIG    1      -23.331  84.108   9.665  0.00  0.00    -0.205 F 
ATOM     18  C   LIG    1      -25.000  85.708  10.099  0.00  0.00    +0.041 A 
ATOM     19  C   LIG    1      -26.241  86.033  10.638  0.00  0.00    +0.041 A 
ATOM     20  C   LIG    1      -26.993  85.045  11.263  0.00  0.00    +0.124 A 
ATOM     21  F   LIG    1      -28.191  85.352  11.775  0.00  0.00    -0.205 F 
ATOM     22  C   LIG    1      -26.520  83.739  11.364  0.00  0.00    +0.046 A 
ENDBRANCH  11  15
ENDBRANCH   4  10
BRANCH   1  24
ATOM     23  C   LIG    1      -22.006  84.949  14.453  0.00  0.00    +0.203 C 
ATOM     24  N   LIG    1      -22.639  84.508  15.484  0.00  0.00    -0.211 NA
BRANCH  23  25
ATOM     25  C   LIG    1      -21.939  86.408  14.223  0.00  0.00    +0.141 C 
ATOM     26  C   LIG    1      -20.617  87.129  14.509  0.00  0.00    +0.026 C 
ATOM     27  C   LIG    1      -21.767  87.316  15.443  0.00  0.00    +0.026 C 
BRANCH  25  28
ATOM     28  C   LIG    1      -22.781  86.888  13.078  0.00  0.00    +0.404 C 
ATOM     29  F   LIG    1      -23.943  86.189  12.997  0.00  0.00    -0.170 F 
ATOM     30  F   LIG    1      -22.140  86.727  11.893  0.00  0.00    -0.170 F 
ATOM     31  F   LIG    1      -23.116  88.196  13.179  0.00  0.00    -0.170 F 
ENDBRANCH  25  28
ENDBRANCH  23  25
BRANCH  23  32
ATOM     32  O   LIG    1      -21.352  84.257  13.497  0.00  0.00    -0.495 OA
ATOM     33  H   LIG    1      -20.386  84.350  13.598  0.00  0.00    +0.293 HD
ENDBRANCH  23  32
ENDBRANCH   1  24
TORSDOF 6
ENDMDL
MODEL 7
REMARK VINA RESULT:      -5.9     19.064     21.559
REMARK  Name = pdb/CHEMBL3951249.pdb
REMARK                            x       y       z     vdW  Elec       q    Type
REMARK                         _______ _______ _______ _____ _____    ______ ____
ROOT
ATOM      1  C   LIG    1      -23.506  84.679  11.987  0.00  0.00    +0.131 A 
ATOM      2  C   LIG    1      -24.154  83.467  12.011  0.00  0.00    +0.183 A 
ATOM      3  N   LIG    1      -24.080  82.414  12.880  0.00  0.00    -0.211 NA
ATOM      4  C   LIG    1      -24.778  81.329  12.617  0.00  0.00    +0.126 A 
ATOM      5  C   LIG    1      -25.698  81.264  11.417  0.00  0.00    +0.063 A 
ATOM      6  C   LIG    1      -25.769  82.344  10.629  0.00  0.00    +0.118 A 
ATOM      7  N   LIG    1      -25.000  83.464  10.906  0.00  0.00    -0.220 N 
ATOM      8  N   LIG    1      -24.942  84.632  10.216  0.00  0.00    -0.171 NA
ATOM      9  C   LIG    1      -24.014  85.346  10.862  0.00  0.00    +0.164 A 
ENDROOT
BRANCH   4  10
ATOM     10  N   LIG    1      -24.665  80.249  13.486  0.00  0.00    -0.308 N 
ATOM     11  C   LIG    1      -24.503  80.413  14.944  0.00  0.00    +0.108 C 
ATOM     12  C   LIG    1      -25.287  79.244  15.573  0.00  0.00    +0.029 C 
ATOM     13  C   LIG    1      -26.187  78.750  14.454  0.00  0.00    +0.021 C 
ATOM     14  C   LIG    1      -25.332  78.969  13.221  0.00  0.00    +0.107 C 
BRANCH  11  15
ATOM     15  C   LIG    1      -23.048  80.389  15.357  0.00  0.00    +0.011 A 
ATOM     16  C   LIG    1      -22.457  81.554  15.857  0.00  0.00    +0.129 A 
ATOM     17  F   LIG    1      -23.181  82.678  15.949  0.00  0.00    -0.205 F 
ATOM     18  C   LIG    1      -21.123  81.583  16.264  0.00  0.00    +0.041 A 
ATOM     19  C   LIG    1      -20.354  80.425  16.184  0.00  0.00    +0.041 A 
ATOM     20  C   LIG    1      -20.930  79.256  15.702  0.00  0.00    +0.124 A 
ATOM     21  F   LIG    1      -20.195  78.139  15.631  0.00  0.00    -0.205 F 
ATOM     22  C   LIG    1      -22.261  79.227  15.293  0.00  0.00    +0.046 A 
ENDBRANCH  11  15
ENDBRANCH   4  10
BRANCH   1  24
ATOM     23  C   LIG    1      -22.433  86.401  13.134  0.00  0.00    +0.203 C 
ATOM     24  N   LIG    1      -22.463  85.161  12.788  0.00  0.00    -0.211 NA
BRANCH  23  25
ATOM     25  C   LIG    1      -21.351  86.870  14.026  0.00  0.00    +0.141 C 
ATOM     26  C   LIG    1      -20.202  87.678  13.412  0.00  0.00    +0.026 C 
ATOM     27  C   LIG    1      -19.957  86.267  13.836  0.00  0.00    +0.026 C 
BRANCH  25  28
ATOM     28  C   LIG    1      -21.806  87.216  15.413  0.00  0.00    +0.404 C 
ATOM     29  F   LIG    1      -20.749  87.372  16.251  0.00  0.00    -0.170 F 
ATOM     30  F   LIG    1      -22.584  86.235  15.936  0.00  0.00    -0.170 F 
ATOM     31  F   LIG    1      -22.520  88.366  15.465  0.00  0.00    -0.170 F 
ENDBRANCH  25  28
ENDBRANCH  23  25
BRANCH  23  32
ATOM     32  O   LIG    1      -23.273  87.400  12.791  0.00  0.00    -0.495 OA
ATOM     33  H   LIG    1      -23.404  88.016  13.536  0.00  0.00    +0.293 HD
ENDBRANCH  23  32
ENDBRANCH   1  24
TORSDOF 6
ENDMDL
MODEL 8
REMARK VINA RESULT:      -5.9      3.127      7.852
REMARK  Name = pdb/CHEMBL3951249.pdb
REMARK                            x       y       z     vdW  Elec       q    Type
REMARK                         _______ _______ _______ _____ _____    ______ ____
ROOT
ATOM      1  C   LIG    1      -19.296  79.011  33.008  0.00  0.00    +0.131 A 
ATOM      2  C   LIG    1      -19.793  78.107  32.100  0.00  0.00    +0.183 A 
ATOM      3  N   LIG    1      -21.074  77.763  31.768  0.00  0.00    -0.211 NA
ATOM      4  C   LIG    1      -21.262  76.797  30.894  0.00  0.00    +0.126 A 
ATOM      5  C   LIG    1      -20.091  76.121  30.213  0.00  0.00    +0.063 A 
ATOM      6  C   LIG    1      -18.859  76.535  30.539  0.00  0.00    +0.118 A 
ATOM      7  N   LIG    1      -18.683  77.531  31.488  0.00  0.00    -0.220 N 
ATOM      8  N   LIG    1      -17.519  78.061  31.940  0.00  0.00    -0.171 NA
ATOM      9  C   LIG    1      -17.901  78.933  32.880  0.00  0.00    +0.164 A 
ENDROOT
BRANCH   4  10
ATOM     10  N   LIG    1      -22.568  76.427  30.593  0.00  0.00    -0.308 N 
ATOM     11  C   LIG    1      -23.475  75.824  31.589  0.00  0.00    +0.108 C 
ATOM     12  C   LIG    1      -24.872  76.383  31.257  0.00  0.00    +0.029 C 
ATOM     13  C   LIG    1      -24.596  77.586  30.373  0.00  0.00    +0.021 C 
ATOM     14  C   LIG    1      -23.367  77.151  29.597  0.00  0.00    +0.107 C 
BRANCH  11  15
ATOM     15  C   LIG    1      -23.455  74.312  31.529  0.00  0.00    +0.011 A 
ATOM     16  C   LIG    1      -22.448  73.612  32.204  0.00  0.00    +0.129 A 
ATOM     17  F   LIG    1      -21.509  74.288  32.880  0.00  0.00    -0.205 F 
ATOM     18  C   LIG    1      -22.391  72.218  32.191  0.00  0.00    +0.041 A 
ATOM     19  C   LIG    1      -23.360  71.495  31.500  0.00  0.00    +0.041 A 
ATOM     20  C   LIG    1      -24.374  72.176  30.836  0.00  0.00    +0.124 A 
ATOM     21  F   LIG    1      -25.311  71.484  30.178  0.00  0.00    -0.205 F 
ATOM     22  C   LIG    1      -24.431  73.567  30.846  0.00  0.00    +0.046 A 
ENDBRANCH  11  15
ENDBRANCH   4  10
BRANCH   1  24
ATOM     23  C   LIG    1      -20.651  79.199  34.895  0.00  0.00    +0.203 C 
ATOM     24  N   LIG    1      -19.959  79.777  33.975  0.00  0.00    -0.211 NA
BRANCH  23  25
ATOM     25  C   LIG    1      -21.294  80.030  35.937  0.00  0.00    +0.141 C 
ATOM     26  C   LIG    1      -20.401  80.692  36.992  0.00  0.00    +0.026 C 
ATOM     27  C   LIG    1      -21.247  79.525  37.381  0.00  0.00    +0.026 C 
BRANCH  25  28
ATOM     28  C   LIG    1      -22.513  80.767  35.468  0.00  0.00    +0.404 C 
ATOM     29  F   LIG    1      -22.199  82.024  35.060  0.00  0.00    -0.170 F 
ATOM     30  F   LIG    1      -23.427  80.892  36.464  0.00  0.00    -0.170 F 
ATOM     31  F   LIG    1      -23.132  80.160  34.428  0.00  0.00    -0.170 F 
ENDBRANCH  25  28
ENDBRANCH  23  25
BRANCH  23  32
ATOM     32  O   LIG    1      -20.905  77.886  35.070  0.00  0.00    -0.495 OA
ATOM     33  H   LIG    1      -20.083  77.393  35.253  0.00  0.00    +0.293 HD
ENDBRANCH  23  32
ENDBRANCH   1  24
TORSDOF 6
ENDMDL
MODEL 9
REMARK VINA RESULT:      -5.9     13.282     16.656
REMARK  Name = pdb/CHEMBL3951249.pdb
REMARK                            x       y       z     vdW  Elec       q    Type
REMARK                         _______ _______ _______ _____ _____    ______ ____
ROOT
ATOM      1  C   LIG    1      -38.996  78.235  27.047  0.00  0.00    +0.131 A 
ATOM      2  C   LIG    1      -37.785  78.756  27.434  0.00  0.00    +0.183 A 
ATOM      3  N   LIG    1      -36.519  78.246  27.384  0.00  0.00    -0.211 NA
ATOM      4  C   LIG    1      -35.533  78.951  27.898  0.00  0.00    +0.126 A 
ATOM      5  C   LIG    1      -35.776  80.331  28.472  0.00  0.00    +0.063 A 
ATOM      6  C   LIG    1      -37.030  80.801  28.447  0.00  0.00    +0.118 A 
ATOM      7  N   LIG    1      -38.059  80.027  27.932  0.00  0.00    -0.220 N 
ATOM      8  N   LIG    1      -39.376  80.340  27.837  0.00  0.00    -0.171 NA
ATOM      9  C   LIG    1      -39.937  79.237  27.328  0.00  0.00    +0.164 A 
ENDROOT
BRANCH   4  10
ATOM     10  N   LIG    1      -34.254  78.405  27.878  0.00  0.00    -0.308 N 
ATOM     11  C   LIG    1      -33.952  77.105  27.248  0.00  0.00    +0.108 C 
ATOM     12  C   LIG    1      -32.548  77.268  26.634  0.00  0.00    +0.029 C 
ATOM     13  C   LIG    1      -32.330  78.770  26.587  0.00  0.00    +0.021 C 
ATOM     14  C   LIG    1      -33.053  79.248  27.831  0.00  0.00    +0.107 C 
BRANCH  11  15
ATOM     15  C   LIG    1      -33.991  75.970  28.248  0.00  0.00    +0.011 A 
ATOM     16  C   LIG    1      -35.034  75.039  28.187  0.00  0.00    +0.129 A 
ATOM     17  F   LIG    1      -35.990  75.172  27.258  0.00  0.00    -0.205 F 
ATOM     18  C   LIG    1      -35.110  73.967  29.078  0.00  0.00    +0.041 A 
ATOM     19  C   LIG    1      -34.124  73.805  30.047  0.00  0.00    +0.041 A 
ATOM     20  C   LIG    1      -33.075  74.715  30.111  0.00  0.00    +0.124 A 
ATOM     21  F   LIG    1      -32.122  74.558  31.037  0.00  0.00    -0.205 F 
ATOM     22  C   LIG    1      -32.999  75.786  29.225  0.00  0.00    +0.046 A 
ENDBRANCH  11  15
ENDBRANCH   4  10
BRANCH   1  24
ATOM     23  C   LIG    1      -38.704  76.445  25.583  0.00  0.00    +0.203 C 
ATOM     24  N   LIG    1      -39.323  76.951  26.592  0.00  0.00    -0.211 NA
BRANCH  23  25
ATOM     25  C   LIG    1      -39.029  75.065  25.160  0.00  0.00    +0.141 C 
ATOM     26  C   LIG    1      -38.724  73.917  26.129  0.00  0.00    +0.026 C 
ATOM     27  C   LIG    1      -37.866  74.099  24.921  0.00  0.00    +0.026 C 
BRANCH  25  28
ATOM     28  C   LIG    1      -40.247  74.961  24.290  0.00  0.00    +0.404 C 
ATOM     29  F   LIG    1      -41.374  74.840  25.037  0.00  0.00    -0.170 F 
ATOM     30  F   LIG    1      -40.186  73.870  23.486  0.00  0.00    -0.170 F 
ATOM     31  F   LIG    1      -40.419  76.040  23.490  0.00  0.00    -0.170 F 
ENDBRANCH  25  28
ENDBRANCH  23  25
BRANCH  23  32
ATOM     32  O   LIG    1      -37.757  77.001  24.799  0.00  0.00    -0.495 OA
ATOM     33  H   LIG    1      -37.104  76.335  24.514  0.00  0.00    +0.293 HD
ENDBRANCH  23  32
ENDBRANCH   1  24
TORSDOF 6
ENDMDL
