MODEL 1
REMARK VINA RESULT:      -7.8      0.000      0.000
REMARK  Name = pdb/CHEMBL2037225.pdb
REMARK                            x       y       z     vdW  Elec       q    Type
REMARK                         _______ _______ _______ _____ _____    ______ ____
ROOT
ATOM      1  C   LIG    1      -42.112  72.475  23.025  0.00  0.00    +0.045 C 
ATOM      2  C   LIG    1      -40.925  73.137  23.669  0.00  0.00    -0.029 A 
ATOM      3  C   LIG    1      -39.769  72.456  24.103  0.00  0.00    +0.036 A 
ATOM      4  C   LIG    1      -38.671  73.201  24.596  0.00  0.00    +0.046 A 
ATOM      5  C   LIG    1      -38.686  74.600  24.630  0.00  0.00    +0.037 A 
ATOM      6  C   LIG    1      -39.869  75.245  24.273  0.00  0.00    +0.024 A 
ATOM      7  C   LIG    1      -40.964  74.531  23.789  0.00  0.00    +0.007 A 
ENDROOT
BRANCH   5   8
ATOM      8  N   LIG    1      -37.494  75.286  24.998  0.00  0.00    -0.269 N 
ATOM      9  H   LIG    1      -36.905  75.598  24.242  0.00  0.00    +0.156 HD
ATOM     10  C   LIG    1      -37.116  75.600  26.294  0.00  0.00    +0.308 C 
ATOM     11  N   LIG    1      -35.959  76.365  26.353  0.00  0.00    -0.269 N 
ATOM     12  H   LIG    1      -35.620  76.758  25.488  0.00  0.00    +0.156 HD
ATOM     13  O   LIG    1      -37.731  75.234  27.285  0.00  0.00    -0.252 OA
BRANCH  11  14
ATOM     14  C   LIG    1      -35.294  76.772  27.544  0.00  0.00    +0.035 A 
ATOM     15  C   LIG    1      -34.132  76.087  27.926  0.00  0.00    +0.035 A 
ATOM     16  C   LIG    1      -33.405  76.468  29.077  0.00  0.00    +0.057 A 
ATOM     17  C   LIG    1      -33.863  77.539  29.856  0.00  0.00    +0.012 A 
ATOM     18  C   LIG    1      -35.021  78.213  29.494  0.00  0.00    +0.002 A 
ATOM     19  C   LIG    1      -35.728  77.828  28.353  0.00  0.00    +0.023 A 
BRANCH  16  20
ATOM     20  C   LIG    1      -32.134  75.748  29.457  0.00  0.00    +0.417 C 
ATOM     21  F   LIG    1      -31.060  76.191  28.748  0.00  0.00    -0.166 F 
ATOM     22  F   LIG    1      -32.205  74.405  29.228  0.00  0.00    -0.166 F 
ATOM     23  F   LIG    1      -31.798  75.883  30.769  0.00  0.00    -0.166 F 
ENDBRANCH  16  20
ENDBRANCH  11  14
ENDBRANCH   5   8
BRANCH   3  24
ATOM     24  N   LIG    1      -39.687  71.044  24.254  0.00  0.00    -0.314 N 
ATOM     25  H   LIG    1      -40.632  70.685  24.383  0.00  0.00    +0.152 HD
BRANCH  24  26
ATOM     26  C   LIG    1      -38.896  70.142  23.505  0.00  0.00    +0.033 A 
ATOM     27  C   LIG    1      -37.590  69.851  23.917  0.00  0.00    +0.047 A 
ATOM     28  C   LIG    1      -36.868  68.942  23.168  0.00  0.00    +0.043 A 
ATOM     29  N   LIG    1      -35.587  68.485  23.437  0.00  0.00    -0.281 N 
ATOM     30  H   LIG    1      -35.005  68.758  24.214  0.00  0.00    +0.155 HD
ATOM     31  C   LIG    1      -35.183  67.530  22.517  0.00  0.00    +0.249 C 
ATOM     32  O   LIG    1      -34.140  66.931  22.553  0.00  0.00    -0.270 OA
ATOM     33  C   LIG    1      -36.342  67.386  21.553  0.00  0.00    +0.048 C 
ATOM     34  C   LIG    1      -36.475  66.579  20.486  0.00  0.00    +0.039 C 
ATOM     35  C   LIG    1      -37.375  68.326  22.020  0.00  0.00    +0.008 A 
ATOM     36  C   LIG    1      -38.638  68.646  21.568  0.00  0.00    +0.012 A 
ATOM     37  C   LIG    1      -39.380  69.576  22.305  0.00  0.00    +0.024 A 
BRANCH  34  38
ATOM     38  C   LIG    1      -35.533  65.631  20.006  0.00  0.00    +0.040 A 
ATOM     39  N   LIG    1      -34.323  66.021  19.482  0.00  0.00    -0.361 N 
ATOM     40  H   LIG    1      -34.044  66.982  19.312  0.00  0.00    +0.165 HD
ATOM     41  C   LIG    1      -33.589  64.926  19.108  0.00  0.00    +0.083 A 
ATOM     42  C   LIG    1      -34.324  63.805  19.411  0.00  0.00    +0.019 A 
ATOM     43  C   LIG    1      -35.538  64.245  19.996  0.00  0.00    +0.027 A 
ENDBRANCH  34  38
ENDBRANCH  24  26
ENDBRANCH   3  24
TORSDOF 6
ENDMDL
MODEL 2
REMARK VINA RESULT:      -7.6      1.638      2.073
REMARK  Name = pdb/CHEMBL2037225.pdb
REMARK                            x       y       z     vdW  Elec       q    Type
REMARK                         _______ _______ _______ _____ _____    ______ ____
ROOT
ATOM      1  C   LIG    1      -42.299  73.015  22.968  0.00  0.00    +0.045 C 
ATOM      2  C   LIG    1      -41.068  73.581  23.622  0.00  0.00    -0.029 A 
ATOM      3  C   LIG    1      -39.972  72.810  24.061  0.00  0.00    +0.036 A 
ATOM      4  C   LIG    1      -38.823  73.464  24.564  0.00  0.00    +0.046 A 
ATOM      5  C   LIG    1      -38.727  74.860  24.602  0.00  0.00    +0.037 A 
ATOM      6  C   LIG    1      -39.853  75.597  24.239  0.00  0.00    +0.024 A 
ATOM      7  C   LIG    1      -40.998  74.973  23.746  0.00  0.00    +0.007 A 
ENDROOT
BRANCH   5   8
ATOM      8  N   LIG    1      -37.488  75.449  24.980  0.00  0.00    -0.269 N 
ATOM      9  H   LIG    1      -36.901  75.780  24.230  0.00  0.00    +0.156 HD
ATOM     10  C   LIG    1      -37.057  75.648  26.283  0.00  0.00    +0.308 C 
ATOM     11  N   LIG    1      -35.856  76.339  26.359  0.00  0.00    -0.269 N 
ATOM     12  H   LIG    1      -35.517  76.773  25.513  0.00  0.00    +0.156 HD
ATOM     13  O   LIG    1      -37.666  75.246  27.264  0.00  0.00    -0.252 OA
BRANCH  11  14
ATOM     14  C   LIG    1      -35.136  76.621  27.554  0.00  0.00    +0.035 A 
ATOM     15  C   LIG    1      -35.301  77.877  28.152  0.00  0.00    +0.035 A 
ATOM     16  C   LIG    1      -34.644  78.203  29.361  0.00  0.00    +0.057 A 
ATOM     17  C   LIG    1      -33.802  77.257  29.963  0.00  0.00    +0.012 A 
ATOM     18  C   LIG    1      -33.620  76.016  29.368  0.00  0.00    +0.002 A 
ATOM     19  C   LIG    1      -34.278  75.706  28.176  0.00  0.00    +0.023 A 
BRANCH  16  20
ATOM     20  C   LIG    1      -34.860  79.546  30.016  0.00  0.00    +0.417 C 
ATOM     21  F   LIG    1      -34.094  80.521  29.455  0.00  0.00    -0.166 F 
ATOM     22  F   LIG    1      -34.543  79.537  31.342  0.00  0.00    -0.166 F 
ATOM     23  F   LIG    1      -36.144  79.991  29.944  0.00  0.00    -0.166 F 
ENDBRANCH  16  20
ENDBRANCH  11  14
ENDBRANCH   5   8
BRANCH   3  24
ATOM     24  N   LIG    1      -40.002  71.394  24.208  0.00  0.00    -0.314 N 
ATOM     25  H   LIG    1      -40.978  71.105  24.268  0.00  0.00    +0.152 HD
BRANCH  24  26
ATOM     26  C   LIG    1      -39.227  70.439  23.512  0.00  0.00    +0.033 A 
ATOM     27  C   LIG    1      -37.908  70.188  23.907  0.00  0.00    +0.047 A 
ATOM     28  C   LIG    1      -37.202  69.225  23.212  0.00  0.00    +0.043 A 
ATOM     29  N   LIG    1      -35.911  68.797  23.479  0.00  0.00    -0.281 N 
ATOM     30  H   LIG    1      -35.308  69.135  24.214  0.00  0.00    +0.155 HD
ATOM     31  C   LIG    1      -35.527  67.774  22.628  0.00  0.00    +0.249 C 
ATOM     32  O   LIG    1      -34.479  67.184  22.680  0.00  0.00    -0.270 OA
ATOM     33  C   LIG    1      -36.712  67.547  21.713  0.00  0.00    +0.048 C 
ATOM     34  C   LIG    1      -36.871  66.656  20.719  0.00  0.00    +0.039 C 
ATOM     35  C   LIG    1      -37.738  68.516  22.133  0.00  0.00    +0.008 A 
ATOM     36  C   LIG    1      -39.015  68.793  21.695  0.00  0.00    +0.012 A 
ATOM     37  C   LIG    1      -39.743  69.775  22.375  0.00  0.00    +0.024 A 
BRANCH  34  38
ATOM     38  C   LIG    1      -35.936  65.676  20.289  0.00  0.00    +0.040 A 
ATOM     39  N   LIG    1      -35.594  64.610  21.087  0.00  0.00    -0.361 N 
ATOM     40  H   LIG    1      -35.893  64.481  22.048  0.00  0.00    +0.165 HD
ATOM     41  C   LIG    1      -34.694  63.801  20.444  0.00  0.00    +0.083 A 
ATOM     42  C   LIG    1      -34.461  64.339  19.201  0.00  0.00    +0.019 A 
ATOM     43  C   LIG    1      -35.258  65.507  19.093  0.00  0.00    +0.027 A 
ENDBRANCH  34  38
ENDBRANCH  24  26
ENDBRANCH   3  24
TORSDOF 6
ENDMDL
MODEL 3
REMARK VINA RESULT:      -7.5     16.437     18.421
REMARK  Name = pdb/CHEMBL2037225.pdb
REMARK                            x       y       z     vdW  Elec       q    Type
REMARK                         _______ _______ _______ _____ _____    ______ ____
ROOT
ATOM      1  C   LIG    1      -31.242  76.106   9.487  0.00  0.00    +0.045 C 
ATOM      2  C   LIG    1      -30.223  76.628  10.464  0.00  0.00    -0.029 A 
ATOM      3  C   LIG    1      -29.951  77.994  10.680  0.00  0.00    +0.036 A 
ATOM      4  C   LIG    1      -29.047  78.366  11.703  0.00  0.00    +0.046 A 
ATOM      5  C   LIG    1      -28.443  77.416  12.533  0.00  0.00    +0.037 A 
ATOM      6  C   LIG    1      -28.664  76.070  12.247  0.00  0.00    +0.024 A 
ATOM      7  C   LIG    1      -29.547  75.681  11.241  0.00  0.00    +0.007 A 
ENDROOT
BRANCH   5   8
ATOM      8  N   LIG    1      -27.662  77.870  13.634  0.00  0.00    -0.269 N 
ATOM      9  H   LIG    1      -28.147  77.986  14.510  0.00  0.00    +0.156 HD
ATOM     10  C   LIG    1      -26.297  78.109  13.606  0.00  0.00    +0.308 C 
ATOM     11  N   LIG    1      -25.778  78.442  14.849  0.00  0.00    -0.269 N 
ATOM     12  H   LIG    1      -26.374  78.307  15.651  0.00  0.00    +0.156 HD
ATOM     13  O   LIG    1      -25.620  78.044  12.590  0.00  0.00    -0.252 OA
BRANCH  11  14
ATOM     14  C   LIG    1      -24.429  78.814  15.111  0.00  0.00    +0.035 A 
ATOM     15  C   LIG    1      -24.157  80.146  15.452  0.00  0.00    +0.035 A 
ATOM     16  C   LIG    1      -22.844  80.568  15.761  0.00  0.00    +0.057 A 
ATOM     17  C   LIG    1      -21.794  79.641  15.712  0.00  0.00    +0.012 A 
ATOM     18  C   LIG    1      -22.051  78.323  15.361  0.00  0.00    +0.002 A 
ATOM     19  C   LIG    1      -23.354  77.918  15.060  0.00  0.00    +0.023 A 
BRANCH  16  20
ATOM     20  C   LIG    1      -22.570  81.997  16.163  0.00  0.00    +0.417 C 
ATOM     21  F   LIG    1      -21.316  82.397  15.818  0.00  0.00    -0.166 F 
ATOM     22  F   LIG    1      -22.668  82.189  17.509  0.00  0.00    -0.166 F 
ATOM     23  F   LIG    1      -23.419  82.898  15.598  0.00  0.00    -0.166 F 
ENDBRANCH  16  20
ENDBRANCH  11  14
ENDBRANCH   5   8
BRANCH   3  24
ATOM     24  N   LIG    1      -30.386  79.038   9.816  0.00  0.00    -0.314 N 
ATOM     25  H   LIG    1      -30.257  78.725   8.855  0.00  0.00    +0.152 HD
BRANCH  24  26
ATOM     26  C   LIG    1      -31.547  79.835   9.944  0.00  0.00    +0.033 A 
ATOM     27  C   LIG    1      -31.505  81.013  10.700  0.00  0.00    +0.047 A 
ATOM     28  C   LIG    1      -32.658  81.771  10.770  0.00  0.00    +0.043 A 
ATOM     29  N   LIG    1      -32.807  82.986  11.419  0.00  0.00    -0.281 N 
ATOM     30  H   LIG    1      -32.094  83.481  11.935  0.00  0.00    +0.155 HD
ATOM     31  C   LIG    1      -34.078  83.508  11.242  0.00  0.00    +0.249 C 
ATOM     32  O   LIG    1      -34.453  84.575  11.651  0.00  0.00    -0.270 OA
ATOM     33  C   LIG    1      -34.813  82.491  10.394  0.00  0.00    +0.048 C 
ATOM     34  C   LIG    1      -36.071  82.518   9.920  0.00  0.00    +0.039 C 
ATOM     35  C   LIG    1      -33.852  81.404  10.143  0.00  0.00    +0.008 A 
ATOM     36  C   LIG    1      -33.925  80.217   9.444  0.00  0.00    +0.012 A 
ATOM     37  C   LIG    1      -32.773  79.427   9.372  0.00  0.00    +0.024 A 
BRANCH  34  38
ATOM     38  C   LIG    1      -37.032  83.548  10.098  0.00  0.00    +0.040 A 
ATOM     39  N   LIG    1      -37.645  83.759  11.311  0.00  0.00    -0.361 N 
ATOM     40  H   LIG    1      -37.540  83.165  12.128  0.00  0.00    +0.165 HD
ATOM     41  C   LIG    1      -38.512  84.816  11.231  0.00  0.00    +0.083 A 
ATOM     42  C   LIG    1      -38.450  85.314   9.951  0.00  0.00    +0.019 A 
ATOM     43  C   LIG    1      -37.503  84.531   9.243  0.00  0.00    +0.027 A 
ENDBRANCH  34  38
ENDBRANCH  24  26
ENDBRANCH   3  24
TORSDOF 6
ENDMDL
MODEL 4
REMARK VINA RESULT:      -7.3     18.370     21.121
REMARK  Name = pdb/CHEMBL2037225.pdb
REMARK                            x       y       z     vdW  Elec       q    Type
REMARK                         _______ _______ _______ _____ _____    ______ ____
ROOT
ATOM      1  C   LIG    1      -22.671  77.452  14.362  0.00  0.00    +0.045 C 
ATOM      2  C   LIG    1      -24.169  77.465  14.216  0.00  0.00    -0.029 A 
ATOM      3  C   LIG    1      -25.004  78.515  14.650  0.00  0.00    +0.036 A 
ATOM      4  C   LIG    1      -26.388  78.461  14.362  0.00  0.00    +0.046 A 
ATOM      5  C   LIG    1      -26.947  77.414  13.622  0.00  0.00    +0.037 A 
ATOM      6  C   LIG    1      -26.116  76.350  13.275  0.00  0.00    +0.024 A 
ATOM      7  C   LIG    1      -24.751  76.378  13.554  0.00  0.00    +0.007 A 
ENDROOT
BRANCH   5   8
ATOM      8  N   LIG    1      -28.316  77.501  13.242  0.00  0.00    -0.269 N 
ATOM      9  H   LIG    1      -28.980  77.045  13.849  0.00  0.00    +0.156 HD
ATOM     10  C   LIG    1      -28.803  78.199  12.148  0.00  0.00    +0.308 C 
ATOM     11  N   LIG    1      -30.190  78.200  12.077  0.00  0.00    -0.269 N 
ATOM     12  H   LIG    1      -30.694  77.868  12.885  0.00  0.00    +0.156 HD
ATOM     13  O   LIG    1      -28.087  78.748  11.323  0.00  0.00    -0.252 OA
BRANCH  11  14
ATOM     14  C   LIG    1      -30.965  78.768  11.027  0.00  0.00    +0.035 A 
ATOM     15  C   LIG    1      -31.661  79.958  11.280  0.00  0.00    +0.035 A 
ATOM     16  C   LIG    1      -32.416  80.592  10.268  0.00  0.00    +0.057 A 
ATOM     17  C   LIG    1      -32.483  80.011   8.993  0.00  0.00    +0.012 A 
ATOM     18  C   LIG    1      -31.810  78.824   8.738  0.00  0.00    +0.002 A 
ATOM     19  C   LIG    1      -31.064  78.210   9.747  0.00  0.00    +0.023 A 
BRANCH  16  20
ATOM     20  C   LIG    1      -33.130  81.893  10.541  0.00  0.00    +0.417 C 
ATOM     21  F   LIG    1      -32.393  82.730  11.323  0.00  0.00    -0.166 F 
ATOM     22  F   LIG    1      -34.313  81.714  11.195  0.00  0.00    -0.166 F 
ATOM     23  F   LIG    1      -33.431  82.600   9.418  0.00  0.00    -0.166 F 
ENDBRANCH  16  20
ENDBRANCH  11  14
ENDBRANCH   5   8
BRANCH   3  24
ATOM     24  N   LIG    1      -24.586  79.553  15.529  0.00  0.00    -0.314 N 
ATOM     25  H   LIG    1      -24.112  79.123  16.322  0.00  0.00    +0.152 HD
BRANCH  24  26
ATOM     26  C   LIG    1      -23.986  80.785  15.181  0.00  0.00    +0.033 A 
ATOM     27  C   LIG    1      -24.316  81.405  13.970  0.00  0.00    +0.047 A 
ATOM     28  C   LIG    1      -23.724  82.622  13.690  0.00  0.00    +0.043 A 
ATOM     29  N   LIG    1      -23.956  83.414  12.577  0.00  0.00    -0.281 N 
ATOM     30  H   LIG    1      -24.584  83.208  11.815  0.00  0.00    +0.155 HD
ATOM     31  C   LIG    1      -23.243  84.601  12.637  0.00  0.00    +0.249 C 
ATOM     32  O   LIG    1      -23.306  85.490  11.829  0.00  0.00    -0.270 OA
ATOM     33  C   LIG    1      -22.463  84.534  13.934  0.00  0.00    +0.048 C 
ATOM     34  C   LIG    1      -21.628  85.435  14.481  0.00  0.00    +0.039 C 
ATOM     35  C   LIG    1      -22.807  83.239  14.546  0.00  0.00    +0.008 A 
ATOM     36  C   LIG    1      -22.427  82.613  15.714  0.00  0.00    +0.012 A 
ATOM     37  C   LIG    1      -23.004  81.374  16.010  0.00  0.00    +0.024 A 
BRANCH  34  38
ATOM     38  C   LIG    1      -21.284  86.710  13.960  0.00  0.00    +0.040 A 
ATOM     39  N   LIG    1      -20.489  86.840  12.844  0.00  0.00    -0.361 N 
ATOM     40  H   LIG    1      -20.021  86.075  12.369  0.00  0.00    +0.165 HD
ATOM     41  C   LIG    1      -20.317  88.164  12.532  0.00  0.00    +0.083 A 
ATOM     42  C   LIG    1      -21.027  88.906  13.446  0.00  0.00    +0.019 A 
ATOM     43  C   LIG    1      -21.653  87.993  14.332  0.00  0.00    +0.027 A 
ENDBRANCH  34  38
ENDBRANCH  24  26
ENDBRANCH   3  24
TORSDOF 6
ENDMDL
MODEL 5
REMARK VINA RESULT:      -7.2     16.975     18.679
REMARK  Name = pdb/CHEMBL2037225.pdb
REMARK                            x       y       z     vdW  Elec       q    Type
REMARK                         _______ _______ _______ _____ _____    ______ ____
ROOT
ATOM      1  C   LIG    1      -30.859  75.296   9.263  0.00  0.00    +0.045 C 
ATOM      2  C   LIG    1      -31.251  76.568   9.965  0.00  0.00    -0.029 A 
ATOM      3  C   LIG    1      -30.355  77.605  10.298  0.00  0.00    +0.036 A 
ATOM      4  C   LIG    1      -30.860  78.801  10.861  0.00  0.00    +0.046 A 
ATOM      5  C   LIG    1      -32.230  79.000  11.060  0.00  0.00    +0.037 A 
ATOM      6  C   LIG    1      -33.086  77.932  10.799  0.00  0.00    +0.024 A 
ATOM      7  C   LIG    1      -32.610  76.742  10.249  0.00  0.00    +0.007 A 
ENDROOT
BRANCH   5   8
ATOM      8  N   LIG    1      -32.678  80.281  11.490  0.00  0.00    -0.269 N 
ATOM      9  H   LIG    1      -32.405  80.564  12.419  0.00  0.00    +0.156 HD
ATOM     10  C   LIG    1      -33.404  81.178  10.722  0.00  0.00    +0.308 C 
ATOM     11  N   LIG    1      -33.615  82.393  11.358  0.00  0.00    -0.269 N 
ATOM     12  H   LIG    1      -33.091  82.571  12.201  0.00  0.00    +0.156 HD
ATOM     13  O   LIG    1      -33.825  80.922   9.603  0.00  0.00    -0.252 OA
BRANCH  11  14
ATOM     14  C   LIG    1      -34.389  83.473  10.847  0.00  0.00    +0.035 A 
ATOM     15  C   LIG    1      -35.706  83.624  11.301  0.00  0.00    +0.035 A 
ATOM     16  C   LIG    1      -36.512  84.698  10.860  0.00  0.00    +0.057 A 
ATOM     17  C   LIG    1      -35.989  85.620   9.943  0.00  0.00    +0.012 A 
ATOM     18  C   LIG    1      -34.690  85.470   9.476  0.00  0.00    +0.002 A 
ATOM     19  C   LIG    1      -33.903  84.405   9.922  0.00  0.00    +0.023 A 
BRANCH  16  20
ATOM     20  C   LIG    1      -37.917  84.871  11.385  0.00  0.00    +0.417 C 
ATOM     21  F   LIG    1      -37.944  85.526  12.578  0.00  0.00    -0.166 F 
ATOM     22  F   LIG    1      -38.547  83.681  11.597  0.00  0.00    -0.166 F 
ATOM     23  F   LIG    1      -38.730  85.577  10.552  0.00  0.00    -0.166 F 
ENDBRANCH  16  20
ENDBRANCH  11  14
ENDBRANCH   5   8
BRANCH   3  24
ATOM     24  N   LIG    1      -28.939  77.469  10.280  0.00  0.00    -0.314 N 
ATOM     25  H   LIG    1      -28.630  77.521   9.310  0.00  0.00    +0.152 HD
BRANCH  24  26
ATOM     26  C   LIG    1      -28.003  78.078  11.148  0.00  0.00    +0.033 A 
ATOM     27  C   LIG    1      -27.936  77.682  12.489  0.00  0.00    +0.047 A 
ATOM     28  C   LIG    1      -26.986  78.287  13.289  0.00  0.00    +0.043 A 
ATOM     29  N   LIG    1      -26.726  78.001  14.620  0.00  0.00    -0.281 N 
ATOM     30  H   LIG    1      -27.200  77.315  15.189  0.00  0.00    +0.155 HD
ATOM     31  C   LIG    1      -25.667  78.750  15.106  0.00  0.00    +0.249 C 
ATOM     32  O   LIG    1      -25.199  78.656  16.211  0.00  0.00    -0.270 OA
ATOM     33  C   LIG    1      -25.222  79.616  13.946  0.00  0.00    +0.048 C 
ATOM     34  C   LIG    1      -24.222  80.511  13.877  0.00  0.00    +0.039 C 
ATOM     35  C   LIG    1      -26.117  79.279  12.825  0.00  0.00    +0.008 A 
ATOM     36  C   LIG    1      -26.210  79.721  11.522  0.00  0.00    +0.012 A 
ATOM     37  C   LIG    1      -27.175  79.131  10.699  0.00  0.00    +0.024 A 
BRANCH  34  38
ATOM     38  C   LIG    1      -23.308  80.855  14.907  0.00  0.00    +0.040 A 
ATOM     39  N   LIG    1      -22.204  80.080  15.178  0.00  0.00    -0.361 N 
ATOM     40  H   LIG    1      -22.002  79.183  14.748  0.00  0.00    +0.165 HD
ATOM     41  C   LIG    1      -21.472  80.630  16.198  0.00  0.00    +0.083 A 
ATOM     42  C   LIG    1      -22.099  81.790  16.586  0.00  0.00    +0.019 A 
ATOM     43  C   LIG    1      -23.242  81.945  15.760  0.00  0.00    +0.027 A 
ENDBRANCH  34  38
ENDBRANCH  24  26
ENDBRANCH   3  24
TORSDOF 6
ENDMDL
MODEL 6
REMARK VINA RESULT:      -7.1      5.714     11.714
REMARK  Name = pdb/CHEMBL2037225.pdb
REMARK                            x       y       z     vdW  Elec       q    Type
REMARK                         _______ _______ _______ _____ _____    ______ ____
ROOT
ATOM      1  C   LIG    1      -36.447  68.537  30.009  0.00  0.00    +0.045 C 
ATOM      2  C   LIG    1      -35.969  68.145  28.637  0.00  0.00    -0.029 A 
ATOM      3  C   LIG    1      -34.678  68.409  28.135  0.00  0.00    +0.036 A 
ATOM      4  C   LIG    1      -34.310  67.896  26.869  0.00  0.00    +0.046 A 
ATOM      5  C   LIG    1      -35.179  67.100  26.115  0.00  0.00    +0.037 A 
ATOM      6  C   LIG    1      -36.475  66.921  26.596  0.00  0.00    +0.024 A 
ATOM      7  C   LIG    1      -36.862  67.421  27.838  0.00  0.00    +0.007 A 
ENDROOT
BRANCH   5   8
ATOM      8  N   LIG    1      -34.690  66.496  24.922  0.00  0.00    -0.269 N 
ATOM      9  H   LIG    1      -34.210  65.617  25.029  0.00  0.00    +0.156 HD
ATOM     10  C   LIG    1      -34.869  66.992  23.640  0.00  0.00    +0.308 C 
ATOM     11  N   LIG    1      -34.378  66.145  22.656  0.00  0.00    -0.269 N 
ATOM     12  H   LIG    1      -34.116  65.213  22.937  0.00  0.00    +0.156 HD
ATOM     13  O   LIG    1      -35.396  68.069  23.400  0.00  0.00    -0.252 OA
BRANCH  11  14
ATOM     14  C   LIG    1      -34.352  66.423  21.260  0.00  0.00    +0.035 A 
ATOM     15  C   LIG    1      -35.571  66.622  20.597  0.00  0.00    +0.035 A 
ATOM     16  C   LIG    1      -35.610  66.940  19.220  0.00  0.00    +0.057 A 
ATOM     17  C   LIG    1      -34.409  67.044  18.504  0.00  0.00    +0.012 A 
ATOM     18  C   LIG    1      -33.198  66.833  19.150  0.00  0.00    +0.002 A 
ATOM     19  C   LIG    1      -33.174  66.522  20.511  0.00  0.00    +0.023 A 
BRANCH  16  20
ATOM     20  C   LIG    1      -36.926  67.189  18.526  0.00  0.00    +0.417 C 
ATOM     21  F   LIG    1      -37.429  68.423  18.802  0.00  0.00    -0.166 F 
ATOM     22  F   LIG    1      -37.891  66.300  18.898  0.00  0.00    -0.166 F 
ATOM     23  F   LIG    1      -36.854  67.110  17.169  0.00  0.00    -0.166 F 
ENDBRANCH  16  20
ENDBRANCH  11  14
ENDBRANCH   5   8
BRANCH   3  24
ATOM     24  N   LIG    1      -33.763  69.319  28.734  0.00  0.00    -0.314 N 
ATOM     25  H   LIG    1      -32.832  68.908  28.683  0.00  0.00    +0.152 HD
BRANCH  24  26
ATOM     26  C   LIG    1      -33.713  70.723  28.571  0.00  0.00    +0.033 A 
ATOM     27  C   LIG    1      -32.797  71.479  29.312  0.00  0.00    +0.047 A 
ATOM     28  C   LIG    1      -32.768  72.843  29.095  0.00  0.00    +0.043 A 
ATOM     29  N   LIG    1      -31.905  73.753  29.686  0.00  0.00    -0.281 N 
ATOM     30  H   LIG    1      -31.184  73.544  30.360  0.00  0.00    +0.155 HD
ATOM     31  C   LIG    1      -32.105  75.035  29.201  0.00  0.00    +0.249 C 
ATOM     32  O   LIG    1      -31.454  76.001  29.503  0.00  0.00    -0.270 OA
ATOM     33  C   LIG    1      -33.235  74.913  28.199  0.00  0.00    +0.048 C 
ATOM     34  C   LIG    1      -33.806  75.857  27.431  0.00  0.00    +0.039 C 
ATOM     35  C   LIG    1      -33.618  73.491  28.195  0.00  0.00    +0.008 A 
ATOM     36  C   LIG    1      -34.565  72.768  27.501  0.00  0.00    +0.012 A 
ATOM     37  C   LIG    1      -34.621  71.387  27.716  0.00  0.00    +0.024 A 
BRANCH  34  38
ATOM     38  C   LIG    1      -33.461  77.233  27.365  0.00  0.00    +0.040 A 
ATOM     39  N   LIG    1      -34.137  78.179  28.100  0.00  0.00    -0.361 N 
ATOM     40  H   LIG    1      -34.965  78.002  28.659  0.00  0.00    +0.165 HD
ATOM     41  C   LIG    1      -33.607  79.424  27.879  0.00  0.00    +0.083 A 
ATOM     42  C   LIG    1      -32.558  79.282  27.001  0.00  0.00    +0.019 A 
ATOM     43  C   LIG    1      -32.451  77.902  26.694  0.00  0.00    +0.027 A 
ENDBRANCH  34  38
ENDBRANCH  24  26
ENDBRANCH   3  24
TORSDOF 6
ENDMDL
MODEL 7
REMARK VINA RESULT:      -7.1      7.710     12.169
REMARK  Name = pdb/CHEMBL2037225.pdb
REMARK                            x       y       z     vdW  Elec       q    Type
REMARK                         _______ _______ _______ _____ _____    ______ ____
ROOT
ATOM      1  C   LIG    1      -32.365  73.889  33.013  0.00  0.00    +0.045 C 
ATOM      2  C   LIG    1      -31.071  74.562  32.643  0.00  0.00    -0.029 A 
ATOM      3  C   LIG    1      -30.658  74.823  31.321  0.00  0.00    +0.036 A 
ATOM      4  C   LIG    1      -29.470  75.560  31.100  0.00  0.00    +0.046 A 
ATOM      5  C   LIG    1      -28.713  76.071  32.160  0.00  0.00    +0.037 A 
ATOM      6  C   LIG    1      -29.098  75.731  33.456  0.00  0.00    +0.024 A 
ATOM      7  C   LIG    1      -30.261  75.002  33.696  0.00  0.00    +0.007 A 
ENDROOT
BRANCH   5   8
ATOM      8  N   LIG    1      -27.614  76.927  31.863  0.00  0.00    -0.269 N 
ATOM      9  H   LIG    1      -27.837  77.806  31.424  0.00  0.00    +0.156 HD
ATOM     10  C   LIG    1      -26.288  76.669  32.177  0.00  0.00    +0.308 C 
ATOM     11  N   LIG    1      -25.442  77.724  31.864  0.00  0.00    -0.269 N 
ATOM     12  H   LIG    1      -25.869  78.605  31.623  0.00  0.00    +0.156 HD
ATOM     13  O   LIG    1      -25.902  75.619  32.667  0.00  0.00    -0.252 OA
BRANCH  11  14
ATOM     14  C   LIG    1      -24.025  77.718  32.003  0.00  0.00    +0.035 A 
ATOM     15  C   LIG    1      -23.257  77.146  30.979  0.00  0.00    +0.035 A 
ATOM     16  C   LIG    1      -21.845  77.144  31.039  0.00  0.00    +0.057 A 
ATOM     17  C   LIG    1      -21.203  77.711  32.149  0.00  0.00    +0.012 A 
ATOM     18  C   LIG    1      -21.956  78.266  33.175  0.00  0.00    +0.002 A 
ATOM     19  C   LIG    1      -23.350  78.264  33.101  0.00  0.00    +0.023 A 
BRANCH  16  20
ATOM     20  C   LIG    1      -21.028  76.558  29.913  0.00  0.00    +0.417 C 
ATOM     21  F   LIG    1      -21.808  76.085  28.903  0.00  0.00    -0.166 F 
ATOM     22  F   LIG    1      -20.260  75.506  30.317  0.00  0.00    -0.166 F 
ATOM     23  F   LIG    1      -20.170  77.445  29.339  0.00  0.00    -0.166 F 
ENDBRANCH  16  20
ENDBRANCH  11  14
ENDBRANCH   5   8
BRANCH   3  24
ATOM     24  N   LIG    1      -31.256  74.239  30.169  0.00  0.00    -0.314 N 
ATOM     25  H   LIG    1      -31.283  73.229  30.307  0.00  0.00    +0.152 HD
BRANCH  24  26
ATOM     26  C   LIG    1      -32.398  74.691  29.469  0.00  0.00    +0.033 A 
ATOM     27  C   LIG    1      -32.740  76.048  29.492  0.00  0.00    +0.047 A 
ATOM     28  C   LIG    1      -33.848  76.443  28.769  0.00  0.00    +0.043 A 
ATOM     29  N   LIG    1      -34.318  77.739  28.623  0.00  0.00    -0.281 N 
ATOM     30  H   LIG    1      -33.918  78.571  29.031  0.00  0.00    +0.155 HD
ATOM     31  C   LIG    1      -35.416  77.792  27.780  0.00  0.00    +0.249 C 
ATOM     32  O   LIG    1      -35.981  78.798  27.439  0.00  0.00    -0.270 OA
ATOM     33  C   LIG    1      -35.670  76.359  27.362  0.00  0.00    +0.048 C 
ATOM     34  C   LIG    1      -36.607  75.858  26.537  0.00  0.00    +0.039 C 
ATOM     35  C   LIG    1      -34.642  75.552  28.042  0.00  0.00    +0.008 A 
ATOM     36  C   LIG    1      -34.353  74.204  28.056  0.00  0.00    +0.012 A 
ATOM     37  C   LIG    1      -33.243  73.780  28.795  0.00  0.00    +0.024 A 
BRANCH  34  38
ATOM     38  C   LIG    1      -37.600  76.584  25.829  0.00  0.00    +0.040 A 
ATOM     39  N   LIG    1      -38.474  77.427  26.476  0.00  0.00    -0.361 N 
ATOM     40  H   LIG    1      -38.545  77.532  27.483  0.00  0.00    +0.165 HD
ATOM     41  C   LIG    1      -39.319  78.022  25.576  0.00  0.00    +0.083 A 
ATOM     42  C   LIG    1      -38.979  77.573  24.322  0.00  0.00    +0.019 A 
ATOM     43  C   LIG    1      -37.885  76.686  24.477  0.00  0.00    +0.027 A 
ENDBRANCH  34  38
ENDBRANCH  24  26
ENDBRANCH   3  24
TORSDOF 6
ENDMDL
MODEL 8
REMARK VINA RESULT:      -7.0      4.074      7.227
REMARK  Name = pdb/CHEMBL2037225.pdb
REMARK                            x       y       z     vdW  Elec       q    Type
REMARK                         _______ _______ _______ _____ _____    ______ ____
ROOT
ATOM      1  C   LIG    1      -33.237  75.180  31.844  0.00  0.00    +0.045 C 
ATOM      2  C   LIG    1      -33.666  75.505  30.439  0.00  0.00    -0.029 A 
ATOM      3  C   LIG    1      -33.750  74.564  29.393  0.00  0.00    +0.036 A 
ATOM      4  C   LIG    1      -34.269  74.967  28.140  0.00  0.00    +0.046 A 
ATOM      5  C   LIG    1      -34.740  76.267  27.921  0.00  0.00    +0.037 A 
ATOM      6  C   LIG    1      -34.571  77.198  28.944  0.00  0.00    +0.024 A 
ATOM      7  C   LIG    1      -34.056  76.824  30.185  0.00  0.00    +0.007 A 
ENDROOT
BRANCH   5   8
ATOM      8  N   LIG    1      -35.385  76.560  26.687  0.00  0.00    -0.269 N 
ATOM      9  H   LIG    1      -34.804  76.944  25.957  0.00  0.00    +0.156 HD
ATOM     10  C   LIG    1      -36.718  76.312  26.398  0.00  0.00    +0.308 C 
ATOM     11  N   LIG    1      -37.052  76.602  25.082  0.00  0.00    -0.269 N 
ATOM     12  H   LIG    1      -36.295  76.781  24.441  0.00  0.00    +0.156 HD
ATOM     13  O   LIG    1      -37.520  75.892  27.219  0.00  0.00    -0.252 OA
BRANCH  11  14
ATOM     14  C   LIG    1      -38.358  76.519  24.521  0.00  0.00    +0.035 A 
ATOM     15  C   LIG    1      -38.963  75.259  24.422  0.00  0.00    +0.035 A 
ATOM     16  C   LIG    1      -40.273  75.115  23.911  0.00  0.00    +0.057 A 
ATOM     17  C   LIG    1      -40.972  76.253  23.483  0.00  0.00    +0.012 A 
ATOM     18  C   LIG    1      -40.375  77.503  23.562  0.00  0.00    +0.002 A 
ATOM     19  C   LIG    1      -39.081  77.631  24.073  0.00  0.00    +0.023 A 
BRANCH  16  20
ATOM     20  C   LIG    1      -40.929  73.758  23.844  0.00  0.00    +0.417 C 
ATOM     21  F   LIG    1      -40.035  72.767  23.575  0.00  0.00    -0.166 F 
ATOM     22  F   LIG    1      -41.877  73.682  22.867  0.00  0.00    -0.166 F 
ATOM     23  F   LIG    1      -41.554  73.393  24.997  0.00  0.00    -0.166 F 
ENDBRANCH  16  20
ENDBRANCH  11  14
ENDBRANCH   5   8
BRANCH   3  24
ATOM     24  N   LIG    1      -33.175  73.263  29.444  0.00  0.00    -0.314 N 
ATOM     25  H   LIG    1      -33.029  73.022  30.423  0.00  0.00    +0.152 HD
BRANCH  24  26
ATOM     26  C   LIG    1      -33.545  72.127  28.687  0.00  0.00    +0.033 A 
ATOM     27  C   LIG    1      -34.477  72.253  27.650  0.00  0.00    +0.047 A 
ATOM     28  C   LIG    1      -34.783  71.120  26.922  0.00  0.00    +0.043 A 
ATOM     29  N   LIG    1      -35.636  71.046  25.832  0.00  0.00    -0.281 N 
ATOM     30  H   LIG    1      -36.154  71.809  25.424  0.00  0.00    +0.155 HD
ATOM     31  C   LIG    1      -35.672  69.768  25.297  0.00  0.00    +0.249 C 
ATOM     32  O   LIG    1      -36.285  69.444  24.314  0.00  0.00    -0.270 OA
ATOM     33  C   LIG    1      -34.743  68.945  26.165  0.00  0.00    +0.048 C 
ATOM     34  C   LIG    1      -34.405  67.647  26.069  0.00  0.00    +0.039 C 
ATOM     35  C   LIG    1      -34.224  69.867  27.189  0.00  0.00    +0.008 A 
ATOM     36  C   LIG    1      -33.349  69.715  28.244  0.00  0.00    +0.012 A 
ATOM     37  C   LIG    1      -33.037  70.847  29.004  0.00  0.00    +0.024 A 
BRANCH  34  38
ATOM     38  C   LIG    1      -34.843  66.717  25.089  0.00  0.00    +0.040 A 
ATOM     39  N   LIG    1      -34.582  66.905  23.752  0.00  0.00    -0.361 N 
ATOM     40  H   LIG    1      -34.152  67.734  23.353  0.00  0.00    +0.165 HD
ATOM     41  C   LIG    1      -35.089  65.867  23.015  0.00  0.00    +0.083 A 
ATOM     42  C   LIG    1      -35.675  64.981  23.888  0.00  0.00    +0.019 A 
ATOM     43  C   LIG    1      -35.502  65.503  25.195  0.00  0.00    +0.027 A 
ENDBRANCH  34  38
ENDBRANCH  24  26
ENDBRANCH   3  24
TORSDOF 6
ENDMDL
MODEL 9
REMARK VINA RESULT:      -6.9     16.877     18.473
REMARK  Name = pdb/CHEMBL2037225.pdb
REMARK                            x       y       z     vdW  Elec       q    Type
REMARK                         _______ _______ _______ _____ _____    ______ ____
ROOT
ATOM      1  C   LIG    1      -29.633  75.013  11.066  0.00  0.00    +0.045 C 
ATOM      2  C   LIG    1      -28.747  75.940  11.853  0.00  0.00    -0.029 A 
ATOM      3  C   LIG    1      -28.578  77.312  11.572  0.00  0.00    +0.036 A 
ATOM      4  C   LIG    1      -27.802  78.106  12.449  0.00  0.00    +0.046 A 
ATOM      5  C   LIG    1      -27.228  77.577  13.610  0.00  0.00    +0.037 A 
ATOM      6  C   LIG    1      -27.341  76.204  13.821  0.00  0.00    +0.024 A 
ATOM      7  C   LIG    1      -28.097  75.401  12.968  0.00  0.00    +0.007 A 
ENDROOT
BRANCH   5   8
ATOM      8  N   LIG    1      -26.587  78.464  14.520  0.00  0.00    -0.269 N 
ATOM      9  H   LIG    1      -27.106  78.708  15.349  0.00  0.00    +0.156 HD
ATOM     10  C   LIG    1      -25.303  78.969  14.380  0.00  0.00    +0.308 C 
ATOM     11  N   LIG    1      -24.896  79.727  15.470  0.00  0.00    -0.269 N 
ATOM     12  H   LIG    1      -25.469  79.691  16.299  0.00  0.00    +0.156 HD
ATOM     13  O   LIG    1      -24.605  78.776  13.396  0.00  0.00    -0.252 OA
BRANCH  11  14
ATOM     14  C   LIG    1      -23.663  80.431  15.575  0.00  0.00    +0.035 A 
ATOM     15  C   LIG    1      -23.607  81.752  15.112  0.00  0.00    +0.035 A 
ATOM     16  C   LIG    1      -22.423  82.516  15.224  0.00  0.00    +0.057 A 
ATOM     17  C   LIG    1      -21.282  81.936  15.795  0.00  0.00    +0.012 A 
ATOM     18  C   LIG    1      -21.323  80.622  16.241  0.00  0.00    +0.002 A 
ATOM     19  C   LIG    1      -22.500  79.880  16.128  0.00  0.00    +0.023 A 
BRANCH  16  20
ATOM     20  C   LIG    1      -22.386  83.951  14.756  0.00  0.00    +0.417 C 
ATOM     21  F   LIG    1      -22.837  84.814  15.708  0.00  0.00    -0.166 F 
ATOM     22  F   LIG    1      -23.166  84.163  13.659  0.00  0.00    -0.166 F 
ATOM     23  F   LIG    1      -21.142  84.385  14.417  0.00  0.00    -0.166 F 
ENDBRANCH  16  20
ENDBRANCH  11  14
ENDBRANCH   5   8
BRANCH   3  24
ATOM     24  N   LIG    1      -28.985  77.932  10.358  0.00  0.00    -0.314 N 
ATOM     25  H   LIG    1      -28.744  77.308   9.589  0.00  0.00    +0.152 HD
BRANCH  24  26
ATOM     26  C   LIG    1      -30.198  78.612  10.102  0.00  0.00    +0.033 A 
ATOM     27  C   LIG    1      -30.674  79.557  11.018  0.00  0.00    +0.047 A 
ATOM     28  C   LIG    1      -31.849  80.215  10.709  0.00  0.00    +0.043 A 
ATOM     29  N   LIG    1      -32.455  81.215  11.454  0.00  0.00    -0.281 N 
ATOM     30  H   LIG    1      -32.123  81.595  12.328  0.00  0.00    +0.155 HD
ATOM     31  C   LIG    1      -33.590  81.702  10.827  0.00  0.00    +0.249 C 
ATOM     32  O   LIG    1      -34.270  82.609  11.230  0.00  0.00    -0.270 OA
ATOM     33  C   LIG    1      -33.716  80.902   9.547  0.00  0.00    +0.048 C 
ATOM     34  C   LIG    1      -34.633  80.987   8.568  0.00  0.00    +0.039 C 
ATOM     35  C   LIG    1      -32.581  79.963   9.545  0.00  0.00    +0.008 A 
ATOM     36  C   LIG    1      -32.156  78.993   8.662  0.00  0.00    +0.012 A 
ATOM     37  C   LIG    1      -30.976  78.305   8.963  0.00  0.00    +0.024 A 
BRANCH  34  38
ATOM     38  C   LIG    1      -35.727  81.890   8.496  0.00  0.00    +0.040 A 
ATOM     39  N   LIG    1      -35.534  83.246   8.370  0.00  0.00    -0.361 N 
ATOM     40  H   LIG    1      -34.634  83.713   8.408  0.00  0.00    +0.165 HD
ATOM     41  C   LIG    1      -36.739  83.896   8.303  0.00  0.00    +0.083 A 
ATOM     42  C   LIG    1      -37.731  82.947   8.368  0.00  0.00    +0.019 A 
ATOM     43  C   LIG    1      -37.097  81.683   8.467  0.00  0.00    +0.027 A 
ENDBRANCH  34  38
ENDBRANCH  24  26
ENDBRANCH   3  24
TORSDOF 6
ENDMDL
