MODEL 1
REMARK VINA RESULT:      -6.9      0.000      0.000
REMARK  Name = pdb/CHEMBL3931763.pdb
REMARK                            x       y       z     vdW  Elec       q    Type
REMARK                         _______ _______ _______ _____ _____    ______ ____
ROOT
ATOM      1  C   LIG    1      -31.629  87.050  30.463  0.00  0.00    +0.149 A 
ATOM      2  N   LIG    1      -32.636  87.837  30.044  0.00  0.00    -0.160 NA
ATOM      3  N   LIG    1      -33.614  86.985  29.639  0.00  0.00    -0.218 N 
ATOM      4  C   LIG    1      -33.187  85.651  29.688  0.00  0.00    +0.129 A 
ATOM      5  C   LIG    1      -31.927  85.689  30.217  0.00  0.00    +0.078 A 
ENDROOT
BRANCH   3   6
ATOM      6  C   LIG    1      -34.894  87.490  29.273  0.00  0.00    +0.067 A 
ATOM      7  C   LIG    1      -35.012  88.299  28.133  0.00  0.00    +0.028 A 
ATOM      8  C   LIG    1      -36.256  88.823  27.771  0.00  0.00    +0.002 A 
ATOM      9  C   LIG    1      -37.377  88.572  28.561  0.00  0.00    +0.000 A 
ATOM     10  C   LIG    1      -37.262  87.782  29.703  0.00  0.00    +0.002 A 
ATOM     11  C   LIG    1      -36.026  87.233  30.059  0.00  0.00    +0.028 A 
ENDBRANCH   3   6
BRANCH   4  12
ATOM     12  N   LIG    1      -33.871  84.526  29.208  0.00  0.00    -0.266 N 
ATOM     13  H   LIG    1      -33.767  84.297  28.233  0.00  0.00    +0.157 HD
ATOM     14  C   LIG    1      -34.666  83.680  30.060  0.00  0.00    +0.251 C 
ATOM     15  O   LIG    1      -34.872  83.981  31.217  0.00  0.00    -0.270 OA
BRANCH  14  16
ATOM     16  C   LIG    1      -35.309  82.482  29.477  0.00  0.00    +0.056 A 
ATOM     17  C   LIG    1      -36.683  82.300  29.370  0.00  0.00    +0.054 A 
ATOM     18 CL   LIG    1      -37.843  83.413  30.001  0.00  0.00    -0.083 Cl
ATOM     19  C   LIG    1      -37.181  81.170  28.720  0.00  0.00    +0.041 A 
ATOM     20  C   LIG    1      -36.316  80.191  28.199  0.00  0.00    +0.052 A 
ATOM     21 CL   LIG    1      -37.114  78.846  27.451  0.00  0.00    -0.083 Cl
ATOM     22  C   LIG    1      -34.916  80.306  28.329  0.00  0.00    +0.022 A 
ATOM     23  C   LIG    1      -34.445  81.490  28.953  0.00  0.00    +0.026 A 
BRANCH  22  24
ATOM     24  C   LIG    1      -33.948  79.272  27.869  0.00  0.00    +0.107 A 
ATOM     25  C   LIG    1      -33.769  78.040  28.512  0.00  0.00    +0.149 A 
ATOM     26  F   LIG    1      -34.458  77.720  29.619  0.00  0.00    -0.203 F 
ATOM     27  C   LIG    1      -32.878  77.104  27.997  0.00  0.00    +0.042 A 
ATOM     28  C   LIG    1      -32.181  77.401  26.834  0.00  0.00    +0.023 A 
ATOM     29  C   LIG    1      -32.390  78.639  26.255  0.00  0.00    +0.111 A 
ATOM     30  N   LIG    1      -33.230  79.574  26.759  0.00  0.00    -0.252 NA
ENDBRANCH  22  24
ENDBRANCH  14  16
ENDBRANCH   4  12
BRANCH   1  31
ATOM     31  C   LIG    1      -30.398  87.561  31.069  0.00  0.00    +0.236 C 
ATOM     32  N   LIG    1      -30.285  87.590  32.348  0.00  0.00    -0.244 NA
BRANCH  31  33
ATOM     33  O   LIG    1      -29.477  88.019  30.196  0.00  0.00    -0.491 OA
ATOM     34  H   LIG    1      -28.733  88.456  30.626  0.00  0.00    +0.294 HD
ENDBRANCH  31  33
BRANCH  32  35
ATOM     35  C   LIG    1      -29.071  88.095  32.973  0.00  0.00    +0.183 C 
BRANCH  35  36
ATOM     36  C   LIG    1      -28.549  87.161  34.020  0.00  0.00    +0.010 A 
ATOM     37  C   LIG    1      -29.281  86.095  34.504  0.00  0.00    +0.119 A 
ATOM     38  N   LIG    1      -28.830  85.231  35.438  0.00  0.00    -0.243 NA
ATOM     39  C   LIG    1      -27.596  85.471  35.906  0.00  0.00    +0.221 A 
ATOM     40  N   LIG    1      -26.793  86.474  35.525  0.00  0.00    -0.243 NA
ATOM     41  C   LIG    1      -27.298  87.304  34.588  0.00  0.00    +0.119 A 
ENDBRANCH  35  36
ENDBRANCH  32  35
ENDBRANCH   1  31
TORSDOF 8
ENDMDL
MODEL 2
REMARK VINA RESULT:      -6.8      8.381     10.711
REMARK  Name = pdb/CHEMBL3931763.pdb
REMARK                            x       y       z     vdW  Elec       q    Type
REMARK                         _______ _______ _______ _____ _____    ______ ____
ROOT
ATOM      1  C   LIG    1      -31.647  74.338  29.855  0.00  0.00    +0.149 A 
ATOM      2  N   LIG    1      -31.577  75.637  29.515  0.00  0.00    -0.160 NA
ATOM      3  N   LIG    1      -32.651  75.857  28.711  0.00  0.00    -0.218 N 
ATOM      4  C   LIG    1      -33.342  74.668  28.440  0.00  0.00    +0.129 A 
ATOM      5  C   LIG    1      -32.709  73.702  29.171  0.00  0.00    +0.078 A 
ENDROOT
BRANCH   3   6
ATOM      6  C   LIG    1      -32.967  77.179  28.290  0.00  0.00    +0.067 A 
ATOM      7  C   LIG    1      -32.269  77.742  27.211  0.00  0.00    +0.028 A 
ATOM      8  C   LIG    1      -32.550  79.047  26.798  0.00  0.00    +0.002 A 
ATOM      9  C   LIG    1      -33.501  79.806  27.477  0.00  0.00    +0.000 A 
ATOM     10  C   LIG    1      -34.187  79.257  28.559  0.00  0.00    +0.002 A 
ATOM     11  C   LIG    1      -33.931  77.943  28.964  0.00  0.00    +0.028 A 
ENDBRANCH   3   6
BRANCH   4  12
ATOM     12  N   LIG    1      -34.400  74.492  27.538  0.00  0.00    -0.266 N 
ATOM     13  H   LIG    1      -34.170  74.388  26.564  0.00  0.00    +0.157 HD
ATOM     14  C   LIG    1      -35.774  74.413  27.960  0.00  0.00    +0.251 C 
ATOM     15  O   LIG    1      -36.083  74.617  29.116  0.00  0.00    -0.270 OA
BRANCH  14  16
ATOM     16  C   LIG    1      -36.821  74.171  26.944  0.00  0.00    +0.056 A 
ATOM     17  C   LIG    1      -37.171  72.917  26.457  0.00  0.00    +0.054 A 
ATOM     18 CL   LIG    1      -36.355  71.461  26.902  0.00  0.00    -0.083 Cl
ATOM     19  C   LIG    1      -38.237  72.796  25.565  0.00  0.00    +0.041 A 
ATOM     20  C   LIG    1      -38.945  73.927  25.120  0.00  0.00    +0.052 A 
ATOM     21 CL   LIG    1      -40.218  73.586  23.993  0.00  0.00    -0.083 Cl
ATOM     22  C   LIG    1      -38.593  75.225  25.545  0.00  0.00    +0.022 A 
ATOM     23  C   LIG    1      -37.537  75.306  26.487  0.00  0.00    +0.026 A 
BRANCH  22  24
ATOM     24  C   LIG    1      -39.250  76.470  25.055  0.00  0.00    +0.107 A 
ATOM     25  C   LIG    1      -38.678  77.320  24.101  0.00  0.00    +0.149 A 
ATOM     26  F   LIG    1      -37.468  77.073  23.576  0.00  0.00    -0.203 F 
ATOM     27  C   LIG    1      -39.372  78.442  23.657  0.00  0.00    +0.042 A 
ATOM     28  C   LIG    1      -40.639  78.698  24.162  0.00  0.00    +0.023 A 
ATOM     29  C   LIG    1      -41.143  77.828  25.113  0.00  0.00    +0.111 A 
ATOM     30  N   LIG    1      -40.470  76.750  25.578  0.00  0.00    -0.252 NA
ENDBRANCH  22  24
ENDBRANCH  14  16
ENDBRANCH   4  12
BRANCH   1  31
ATOM     31  C   LIG    1      -30.724  73.694  30.792  0.00  0.00    +0.236 C 
ATOM     32  N   LIG    1      -30.119  74.403  31.675  0.00  0.00    -0.244 NA
BRANCH  31  33
ATOM     33  O   LIG    1      -30.548  72.370  30.604  0.00  0.00    -0.491 OA
ATOM     34  H   LIG    1      -29.622  72.103  30.638  0.00  0.00    +0.294 HD
ENDBRANCH  31  33
BRANCH  32  35
ATOM     35  C   LIG    1      -29.196  73.786  32.616  0.00  0.00    +0.183 C 
BRANCH  35  36
ATOM     36  C   LIG    1      -27.780  73.842  32.131  0.00  0.00    +0.010 A 
ATOM     37  C   LIG    1      -27.054  72.712  31.809  0.00  0.00    +0.119 A 
ATOM     38  N   LIG    1      -25.782  72.734  31.358  0.00  0.00    -0.243 NA
ATOM     39  C   LIG    1      -25.225  73.949  31.244  0.00  0.00    +0.221 A 
ATOM     40  N   LIG    1      -25.821  75.115  31.533  0.00  0.00    -0.243 NA
ATOM     41  C   LIG    1      -27.091  75.029  31.978  0.00  0.00    +0.119 A 
ENDBRANCH  35  36
ENDBRANCH  32  35
ENDBRANCH   1  31
TORSDOF 8
ENDMDL
MODEL 3
REMARK VINA RESULT:      -6.7     18.348     20.134
REMARK  Name = pdb/CHEMBL3931763.pdb
REMARK                            x       y       z     vdW  Elec       q    Type
REMARK                         _______ _______ _______ _____ _____    ______ ____
ROOT
ATOM      1  C   LIG    1      -22.761  82.897  15.476  0.00  0.00    +0.149 A 
ATOM      2  N   LIG    1      -23.674  82.296  14.692  0.00  0.00    -0.160 NA
ATOM      3  N   LIG    1      -23.494  80.963  14.888  0.00  0.00    -0.218 N 
ATOM      4  C   LIG    1      -22.385  80.708  15.706  0.00  0.00    +0.129 A 
ATOM      5  C   LIG    1      -21.921  81.937  16.086  0.00  0.00    +0.078 A 
ENDROOT
BRANCH   3   6
ATOM      6  C   LIG    1      -24.405  80.029  14.318  0.00  0.00    +0.067 A 
ATOM      7  C   LIG    1      -25.413  79.476  15.122  0.00  0.00    +0.028 A 
ATOM      8  C   LIG    1      -26.302  78.540  14.586  0.00  0.00    +0.002 A 
ATOM      9  C   LIG    1      -26.169  78.128  13.261  0.00  0.00    +0.000 A 
ATOM     10  C   LIG    1      -25.160  78.664  12.463  0.00  0.00    +0.002 A 
ATOM     11  C   LIG    1      -24.281  79.619  12.983  0.00  0.00    +0.028 A 
ENDBRANCH   3   6
BRANCH   4  12
ATOM     12  N   LIG    1      -21.817  79.461  15.996  0.00  0.00    -0.266 N 
ATOM     13  H   LIG    1      -21.976  79.078  16.913  0.00  0.00    +0.157 HD
ATOM     14  C   LIG    1      -21.065  78.707  15.027  0.00  0.00    +0.251 C 
ATOM     15  O   LIG    1      -20.790  79.183  13.946  0.00  0.00    -0.270 OA
BRANCH  14  16
ATOM     16  C   LIG    1      -20.547  77.374  15.405  0.00  0.00    +0.056 A 
ATOM     17  C   LIG    1      -19.236  77.119  15.792  0.00  0.00    +0.054 A 
ATOM     18 CL   LIG    1      -17.992  78.317  15.788  0.00  0.00    -0.083 Cl
ATOM     19  C   LIG    1      -18.879  75.839  16.216  0.00  0.00    +0.041 A 
ATOM     20  C   LIG    1      -19.814  74.788  16.226  0.00  0.00    +0.052 A 
ATOM     21 CL   LIG    1      -19.182  73.263  16.756  0.00  0.00    -0.083 Cl
ATOM     22  C   LIG    1      -21.142  74.986  15.793  0.00  0.00    +0.022 A 
ATOM     23  C   LIG    1      -21.482  76.310  15.415  0.00  0.00    +0.026 A 
BRANCH  22  24
ATOM     24  C   LIG    1      -22.161  73.902  15.707  0.00  0.00    +0.107 A 
ATOM     25  C   LIG    1      -23.057  73.601  16.740  0.00  0.00    +0.149 A 
ATOM     26  F   LIG    1      -23.036  74.268  17.904  0.00  0.00    -0.203 F 
ATOM     27  C   LIG    1      -24.013  72.604  16.568  0.00  0.00    +0.042 A 
ATOM     28  C   LIG    1      -24.074  71.924  15.360  0.00  0.00    +0.023 A 
ATOM     29  C   LIG    1      -23.152  72.258  14.384  0.00  0.00    +0.111 A 
ATOM     30  N   LIG    1      -22.196  73.204  14.544  0.00  0.00    -0.252 NA
ENDBRANCH  22  24
ENDBRANCH  14  16
ENDBRANCH   4  12
BRANCH   1  31
ATOM     31  C   LIG    1      -22.662  84.349  15.640  0.00  0.00    +0.236 C 
ATOM     32  N   LIG    1      -22.365  85.082  14.628  0.00  0.00    -0.244 NA
BRANCH  31  33
ATOM     33  O   LIG    1      -22.853  84.799  16.897  0.00  0.00    -0.491 OA
ATOM     34  H   LIG    1      -23.128  84.106  17.509  0.00  0.00    +0.294 HD
ENDBRANCH  31  33
BRANCH  32  35
ATOM     35  C   LIG    1      -22.259  86.528  14.767  0.00  0.00    +0.183 C 
BRANCH  35  36
ATOM     36  C   LIG    1      -21.134  87.089  13.953  0.00  0.00    +0.010 A 
ATOM     37  C   LIG    1      -19.818  86.710  14.134  0.00  0.00    +0.119 A 
ATOM     38  N   LIG    1      -18.787  87.189  13.407  0.00  0.00    -0.243 NA
ATOM     39  C   LIG    1      -19.106  88.097  12.473  0.00  0.00    +0.221 A 
ATOM     40  N   LIG    1      -20.339  88.551  12.208  0.00  0.00    -0.243 NA
ATOM     41  C   LIG    1      -21.328  88.035  12.966  0.00  0.00    +0.119 A 
ENDBRANCH  35  36
ENDBRANCH  32  35
ENDBRANCH   1  31
TORSDOF 8
ENDMDL
MODEL 4
REMARK VINA RESULT:      -6.7     18.577     20.314
REMARK  Name = pdb/CHEMBL3931763.pdb
REMARK                            x       y       z     vdW  Elec       q    Type
REMARK                         _______ _______ _______ _____ _____    ______ ____
ROOT
ATOM      1  C   LIG    1      -22.050  82.473  15.607  0.00  0.00    +0.149 A 
ATOM      2  N   LIG    1      -20.794  82.018  15.760  0.00  0.00    -0.160 NA
ATOM      3  N   LIG    1      -20.886  80.666  15.650  0.00  0.00    -0.218 N 
ATOM      4  C   LIG    1      -22.220  80.248  15.545  0.00  0.00    +0.129 A 
ATOM      5  C   LIG    1      -22.962  81.397  15.512  0.00  0.00    +0.078 A 
ENDROOT
BRANCH   3   6
ATOM      6  C   LIG    1      -19.706  79.872  15.612  0.00  0.00    +0.067 A 
ATOM      7  C   LIG    1      -18.857  79.954  14.498  0.00  0.00    +0.028 A 
ATOM      8  C   LIG    1      -17.706  79.165  14.433  0.00  0.00    +0.002 A 
ATOM      9  C   LIG    1      -17.414  78.268  15.459  0.00  0.00    +0.000 A 
ATOM     10  C   LIG    1      -18.262  78.171  16.562  0.00  0.00    +0.002 A 
ATOM     11  C   LIG    1      -19.403  78.975  16.647  0.00  0.00    +0.028 A 
ENDBRANCH   3   6
BRANCH   4  12
ATOM     12  N   LIG    1      -22.697  78.931  15.565  0.00  0.00    -0.266 N 
ATOM     13  H   LIG    1      -23.137  78.606  16.410  0.00  0.00    +0.157 HD
ATOM     14  C   LIG    1      -22.618  78.061  14.421  0.00  0.00    +0.251 C 
ATOM     15  O   LIG    1      -22.021  78.400  13.421  0.00  0.00    -0.270 OA
BRANCH  14  16
ATOM     16  C   LIG    1      -23.197  76.703  14.515  0.00  0.00    +0.056 A 
ATOM     17  C   LIG    1      -24.324  76.277  13.820  0.00  0.00    +0.054 A 
ATOM     18 CL   LIG    1      -25.273  77.315  12.818  0.00  0.00    -0.083 Cl
ATOM     19  C   LIG    1      -24.730  74.945  13.914  0.00  0.00    +0.041 A 
ATOM     20  C   LIG    1      -24.040  74.030  14.729  0.00  0.00    +0.052 A 
ATOM     21 CL   LIG    1      -24.706  72.429  14.743  0.00  0.00    -0.083 Cl
ATOM     22  C   LIG    1      -22.923  74.427  15.494  0.00  0.00    +0.022 A 
ATOM     23  C   LIG    1      -22.510  75.775  15.336  0.00  0.00    +0.026 A 
BRANCH  22  24
ATOM     24  C   LIG    1      -22.194  73.531  16.433  0.00  0.00    +0.107 A 
ATOM     25  C   LIG    1      -22.435  73.497  17.813  0.00  0.00    +0.149 A 
ATOM     26  F   LIG    1      -23.340  74.304  18.387  0.00  0.00    -0.203 F 
ATOM     27  C   LIG    1      -21.745  72.598  18.622  0.00  0.00    +0.042 A 
ATOM     28  C   LIG    1      -20.829  71.731  18.044  0.00  0.00    +0.023 A 
ATOM     29  C   LIG    1      -20.625  71.824  16.679  0.00  0.00    +0.111 A 
ATOM     30  N   LIG    1      -21.264  72.712  15.881  0.00  0.00    -0.252 NA
ENDBRANCH  22  24
ENDBRANCH  14  16
ENDBRANCH   4  12
BRANCH   1  31
ATOM     31  C   LIG    1      -22.398  83.896  15.568  0.00  0.00    +0.236 C 
ATOM     32  N   LIG    1      -22.313  84.539  14.460  0.00  0.00    -0.244 NA
BRANCH  31  33
ATOM     33  O   LIG    1      -22.743  84.434  16.756  0.00  0.00    -0.491 OA
ATOM     34  H   LIG    1      -22.006  84.489  17.375  0.00  0.00    +0.294 HD
ENDBRANCH  31  33
BRANCH  32  35
ATOM     35  C   LIG    1      -22.651  85.954  14.397  0.00  0.00    +0.183 C 
BRANCH  35  36
ATOM     36  C   LIG    1      -21.543  86.770  13.806  0.00  0.00    +0.010 A 
ATOM     37  C   LIG    1      -20.225  86.636  14.196  0.00  0.00    +0.119 A 
ATOM     38  N   LIG    1      -19.206  87.349  13.672  0.00  0.00    -0.243 NA
ATOM     39  C   LIG    1      -19.543  88.239  12.727  0.00  0.00    +0.221 A 
ATOM     40  N   LIG    1      -20.783  88.467  12.270  0.00  0.00    -0.243 NA
ATOM     41  C   LIG    1      -21.759  87.724  12.831  0.00  0.00    +0.119 A 
ENDBRANCH  35  36
ENDBRANCH  32  35
ENDBRANCH   1  31
TORSDOF 8
ENDMDL
MODEL 5
REMARK VINA RESULT:      -6.6      9.192     17.045
REMARK  Name = pdb/CHEMBL3931763.pdb
REMARK                            x       y       z     vdW  Elec       q    Type
REMARK                         _______ _______ _______ _____ _____    ______ ____
ROOT
ATOM      1  C   LIG    1      -37.128  70.024  24.678  0.00  0.00    +0.149 A 
ATOM      2  N   LIG    1      -36.689  68.973  25.393  0.00  0.00    -0.160 NA
ATOM      3  N   LIG    1      -35.812  69.492  26.293  0.00  0.00    -0.218 N 
ATOM      4  C   LIG    1      -35.600  70.860  26.075  0.00  0.00    +0.129 A 
ATOM      5  C   LIG    1      -36.440  71.202  25.052  0.00  0.00    +0.078 A 
ENDROOT
BRANCH   3   6
ATOM      6  C   LIG    1      -35.268  68.666  27.317  0.00  0.00    +0.067 A 
ATOM      7  C   LIG    1      -34.321  67.688  26.979  0.00  0.00    +0.028 A 
ATOM      8  C   LIG    1      -33.793  66.852  27.967  0.00  0.00    +0.002 A 
ATOM      9  C   LIG    1      -34.232  66.965  29.286  0.00  0.00    +0.000 A 
ATOM     10  C   LIG    1      -35.184  67.925  29.624  0.00  0.00    +0.002 A 
ATOM     11  C   LIG    1      -35.699  68.782  28.646  0.00  0.00    +0.028 A 
ENDBRANCH   3   6
BRANCH   4  12
ATOM     12  N   LIG    1      -34.658  71.681  26.708  0.00  0.00    -0.266 N 
ATOM     13  H   LIG    1      -33.714  71.664  26.360  0.00  0.00    +0.157 HD
ATOM     14  C   LIG    1      -35.003  72.564  27.792  0.00  0.00    +0.251 C 
ATOM     15  O   LIG    1      -36.112  72.543  28.283  0.00  0.00    -0.270 OA
BRANCH  14  16
ATOM     16  C   LIG    1      -33.953  73.435  28.365  0.00  0.00    +0.056 A 
ATOM     17  C   LIG    1      -32.897  72.985  29.149  0.00  0.00    +0.054 A 
ATOM     18 CL   LIG    1      -32.717  71.342  29.651  0.00  0.00    -0.083 Cl
ATOM     19  C   LIG    1      -31.912  73.882  29.561  0.00  0.00    +0.041 A 
ATOM     20  C   LIG    1      -31.986  75.247  29.229  0.00  0.00    +0.052 A 
ATOM     21 CL   LIG    1      -30.689  76.214  29.852  0.00  0.00    -0.083 Cl
ATOM     22  C   LIG    1      -33.066  75.761  28.480  0.00  0.00    +0.022 A 
ATOM     23  C   LIG    1      -34.022  74.812  28.037  0.00  0.00    +0.026 A 
BRANCH  22  24
ATOM     24  C   LIG    1      -33.245  77.204  28.158  0.00  0.00    +0.107 A 
ATOM     25  C   LIG    1      -32.550  77.858  27.132  0.00  0.00    +0.149 A 
ATOM     26  F   LIG    1      -31.645  77.217  26.378  0.00  0.00    -0.203 F 
ATOM     27  C   LIG    1      -32.805  79.199  26.859  0.00  0.00    +0.042 A 
ATOM     28  C   LIG    1      -33.762  79.873  27.606  0.00  0.00    +0.023 A 
ATOM     29  C   LIG    1      -34.403  79.175  28.613  0.00  0.00    +0.111 A 
ATOM     30  N   LIG    1      -34.147  77.879  28.913  0.00  0.00    -0.252 NA
ENDBRANCH  22  24
ENDBRANCH  14  16
ENDBRANCH   4  12
BRANCH   1  31
ATOM     31  C   LIG    1      -38.164  69.928  23.647  0.00  0.00    +0.236 C 
ATOM     32  N   LIG    1      -37.975  69.170  22.628  0.00  0.00    -0.244 NA
BRANCH  31  33
ATOM     33  O   LIG    1      -39.244  70.712  23.844  0.00  0.00    -0.491 OA
ATOM     34  H   LIG    1      -39.591  71.090  23.028  0.00  0.00    +0.294 HD
ENDBRANCH  31  33
BRANCH  32  35
ATOM     35  C   LIG    1      -38.989  69.059  21.589  0.00  0.00    +0.183 C 
BRANCH  35  36
ATOM     36  C   LIG    1      -38.532  68.205  20.447  0.00  0.00    +0.010 A 
ATOM     37  C   LIG    1      -39.123  66.997  20.133  0.00  0.00    +0.119 A 
ATOM     38  N   LIG    1      -38.740  66.214  19.104  0.00  0.00    -0.243 NA
ATOM     39  C   LIG    1      -37.709  66.670  18.377  0.00  0.00    +0.221 A 
ATOM     40  N   LIG    1      -37.048  67.817  18.586  0.00  0.00    -0.243 NA
ATOM     41  C   LIG    1      -37.477  68.558  19.629  0.00  0.00    +0.119 A 
ENDBRANCH  35  36
ENDBRANCH  32  35
ENDBRANCH   1  31
TORSDOF 8
ENDMDL
MODEL 6
REMARK VINA RESULT:      -6.5      8.542     14.543
REMARK  Name = pdb/CHEMBL3931763.pdb
REMARK                            x       y       z     vdW  Elec       q    Type
REMARK                         _______ _______ _______ _____ _____    ______ ____
ROOT
ATOM      1  C   LIG    1      -39.143  72.150  24.250  0.00  0.00    +0.149 A 
ATOM      2  N   LIG    1      -40.120  73.057  24.070  0.00  0.00    -0.160 NA
ATOM      3  N   LIG    1      -39.574  74.249  24.427  0.00  0.00    -0.218 N 
ATOM      4  C   LIG    1      -38.283  74.088  24.949  0.00  0.00    +0.129 A 
ATOM      5  C   LIG    1      -38.005  72.755  24.832  0.00  0.00    +0.078 A 
ENDROOT
BRANCH   3   6
ATOM      6  C   LIG    1      -40.296  75.457  24.213  0.00  0.00    +0.067 A 
ATOM      7  C   LIG    1      -39.624  76.578  23.702  0.00  0.00    +0.028 A 
ATOM      8  C   LIG    1      -40.312  77.779  23.507  0.00  0.00    +0.002 A 
ATOM      9  C   LIG    1      -41.659  77.877  23.851  0.00  0.00    +0.000 A 
ATOM     10  C   LIG    1      -42.327  76.771  24.373  0.00  0.00    +0.002 A 
ATOM     11  C   LIG    1      -41.654  75.558  24.548  0.00  0.00    +0.028 A 
ENDBRANCH   3   6
BRANCH   4  12
ATOM     12  N   LIG    1      -37.485  75.071  25.549  0.00  0.00    -0.266 N 
ATOM     13  H   LIG    1      -36.700  75.419  25.024  0.00  0.00    +0.157 HD
ATOM     14  C   LIG    1      -37.774  75.618  26.849  0.00  0.00    +0.251 C 
ATOM     15  O   LIG    1      -38.664  75.158  27.534  0.00  0.00    -0.270 OA
BRANCH  14  16
ATOM     16  C   LIG    1      -36.908  76.692  27.381  0.00  0.00    +0.056 A 
ATOM     17  C   LIG    1      -37.209  78.048  27.323  0.00  0.00    +0.054 A 
ATOM     18 CL   LIG    1      -38.602  78.681  26.522  0.00  0.00    -0.083 Cl
ATOM     19  C   LIG    1      -36.362  78.970  27.939  0.00  0.00    +0.041 A 
ATOM     20  C   LIG    1      -35.186  78.556  28.590  0.00  0.00    +0.052 A 
ATOM     21 CL   LIG    1      -34.245  79.842  29.272  0.00  0.00    -0.083 Cl
ATOM     22  C   LIG    1      -34.812  77.196  28.631  0.00  0.00    +0.022 A 
ATOM     23  C   LIG    1      -35.720  76.283  28.037  0.00  0.00    +0.026 A 
BRANCH  22  24
ATOM     24  C   LIG    1      -33.545  76.697  29.236  0.00  0.00    +0.107 A 
ATOM     25  C   LIG    1      -32.311  76.722  28.575  0.00  0.00    +0.149 A 
ATOM     26  F   LIG    1      -32.196  77.184  27.320  0.00  0.00    -0.203 F 
ATOM     27  C   LIG    1      -31.160  76.281  29.223  0.00  0.00    +0.042 A 
ATOM     28  C   LIG    1      -31.251  75.830  30.532  0.00  0.00    +0.023 A 
ATOM     29  C   LIG    1      -32.501  75.817  31.125  0.00  0.00    +0.111 A 
ATOM     30  N   LIG    1      -33.635  76.213  30.500  0.00  0.00    -0.252 NA
ENDBRANCH  22  24
ENDBRANCH  14  16
ENDBRANCH   4  12
BRANCH   1  31
ATOM     31  C   LIG    1      -39.276  70.734  23.900  0.00  0.00    +0.236 C 
ATOM     32  N   LIG    1      -38.272  70.108  23.401  0.00  0.00    -0.244 NA
BRANCH  31  33
ATOM     33  O   LIG    1      -40.503  70.208  24.095  0.00  0.00    -0.491 OA
ATOM     34  H   LIG    1      -40.638  69.378  23.623  0.00  0.00    +0.294 HD
ENDBRANCH  31  33
BRANCH  32  35
ATOM     35  C   LIG    1      -38.381  68.701  23.044  0.00  0.00    +0.183 C 
BRANCH  35  36
ATOM     36  C   LIG    1      -37.051  68.105  22.699  0.00  0.00    +0.010 A 
ATOM     37  C   LIG    1      -35.929  68.274  23.486  0.00  0.00    +0.119 A 
ATOM     38  N   LIG    1      -34.722  67.739  23.206  0.00  0.00    -0.243 NA
ATOM     39  C   LIG    1      -34.652  67.018  22.078  0.00  0.00    +0.221 A 
ATOM     40  N   LIG    1      -35.664  66.789  21.229  0.00  0.00    -0.243 NA
ATOM     41  C   LIG    1      -36.846  67.348  21.562  0.00  0.00    +0.119 A 
ENDBRANCH  35  36
ENDBRANCH  32  35
ENDBRANCH   1  31
TORSDOF 8
ENDMDL
MODEL 7
REMARK VINA RESULT:      -6.5      4.158      6.232
REMARK  Name = pdb/CHEMBL3931763.pdb
REMARK                            x       y       z     vdW  Elec       q    Type
REMARK                         _______ _______ _______ _____ _____    ______ ____
ROOT
ATOM      1  C   LIG    1      -32.163  85.981  30.712  0.00  0.00    +0.149 A 
ATOM      2  N   LIG    1      -32.367  87.303  30.572  0.00  0.00    -0.160 NA
ATOM      3  N   LIG    1      -33.225  87.425  29.525  0.00  0.00    -0.218 N 
ATOM      4  C   LIG    1      -33.477  86.186  28.920  0.00  0.00    +0.129 A 
ATOM      5  C   LIG    1      -32.807  85.266  29.677  0.00  0.00    +0.078 A 
ENDROOT
BRANCH   3   6
ATOM      6  C   LIG    1      -33.775  88.697  29.198  0.00  0.00    +0.067 A 
ATOM      7  C   LIG    1      -35.138  88.935  29.426  0.00  0.00    +0.028 A 
ATOM      8  C   LIG    1      -35.700  90.169  29.089  0.00  0.00    +0.002 A 
ATOM      9  C   LIG    1      -34.916  91.156  28.495  0.00  0.00    +0.000 A 
ATOM     10  C   LIG    1      -33.564  90.919  28.253  0.00  0.00    +0.002 A 
ATOM     11  C   LIG    1      -32.987  89.696  28.609  0.00  0.00    +0.028 A 
ENDBRANCH   3   6
BRANCH   4  12
ATOM     12  N   LIG    1      -34.188  85.953  27.735  0.00  0.00    -0.266 N 
ATOM     13  H   LIG    1      -33.681  86.008  26.868  0.00  0.00    +0.157 HD
ATOM     14  C   LIG    1      -35.584  85.602  27.725  0.00  0.00    +0.251 C 
ATOM     15  O   LIG    1      -36.236  85.610  28.749  0.00  0.00    -0.270 OA
BRANCH  14  16
ATOM     16  C   LIG    1      -36.241  85.321  26.430  0.00  0.00    +0.056 A 
ATOM     17  C   LIG    1      -36.492  84.046  25.935  0.00  0.00    +0.054 A 
ATOM     18 CL   LIG    1      -35.975  82.599  26.724  0.00  0.00    -0.083 Cl
ATOM     19  C   LIG    1      -37.200  83.896  24.742  0.00  0.00    +0.041 A 
ATOM     20  C   LIG    1      -37.637  85.015  24.010  0.00  0.00    +0.052 A 
ATOM     21 CL   LIG    1      -38.476  84.635  22.541  0.00  0.00    -0.083 Cl
ATOM     22  C   LIG    1      -37.362  86.328  24.445  0.00  0.00    +0.022 A 
ATOM     23  C   LIG    1      -36.682  86.442  25.685  0.00  0.00    +0.026 A 
BRANCH  22  24
ATOM     24  C   LIG    1      -37.728  87.554  23.682  0.00  0.00    +0.107 A 
ATOM     25  C   LIG    1      -39.045  88.007  23.536  0.00  0.00    +0.149 A 
ATOM     26  F   LIG    1      -40.081  87.339  24.066  0.00  0.00    -0.203 F 
ATOM     27  C   LIG    1      -39.306  89.188  22.847  0.00  0.00    +0.042 A 
ATOM     28  C   LIG    1      -38.247  89.913  22.320  0.00  0.00    +0.023 A 
ATOM     29  C   LIG    1      -36.971  89.405  22.485  0.00  0.00    +0.111 A 
ATOM     30  N   LIG    1      -36.701  88.243  23.126  0.00  0.00    -0.252 NA
ENDBRANCH  22  24
ENDBRANCH  14  16
ENDBRANCH   4  12
BRANCH   1  31
ATOM     31  C   LIG    1      -31.362  85.394  31.789  0.00  0.00    +0.236 C 
ATOM     32  N   LIG    1      -31.349  85.952  32.946  0.00  0.00    -0.244 NA
BRANCH  31  33
ATOM     33  O   LIG    1      -30.645  84.306  31.442  0.00  0.00    -0.491 OA
ATOM     34  H   LIG    1      -30.770  83.562  32.043  0.00  0.00    +0.294 HD
ENDBRANCH  31  33
BRANCH  32  35
ATOM     35  C   LIG    1      -30.559  85.388  34.031  0.00  0.00    +0.183 C 
BRANCH  35  36
ATOM     36  C   LIG    1      -29.371  86.238  34.361  0.00  0.00    +0.010 A 
ATOM     37  C   LIG    1      -28.223  85.729  34.935  0.00  0.00    +0.119 A 
ATOM     38  N   LIG    1      -27.134  86.469  35.231  0.00  0.00    -0.243 NA
ATOM     39  C   LIG    1      -27.223  87.776  34.945  0.00  0.00    +0.221 A 
ATOM     40  N   LIG    1      -28.282  88.390  34.397  0.00  0.00    -0.243 NA
ATOM     41  C   LIG    1      -29.339  87.598  34.123  0.00  0.00    +0.119 A 
ENDBRANCH  35  36
ENDBRANCH  32  35
ENDBRANCH   1  31
TORSDOF 8
ENDMDL
MODEL 8
REMARK VINA RESULT:      -6.5      6.066     10.032
REMARK  Name = pdb/CHEMBL3931763.pdb
REMARK                            x       y       z     vdW  Elec       q    Type
REMARK                         _______ _______ _______ _____ _____    ______ ____
ROOT
ATOM      1  C   LIG    1      -37.177  79.915  27.604  0.00  0.00    +0.149 A 
ATOM      2  N   LIG    1      -36.211  79.134  28.118  0.00  0.00    -0.160 NA
ATOM      3  N   LIG    1      -36.486  77.881  27.668  0.00  0.00    -0.218 N 
ATOM      4  C   LIG    1      -37.697  77.841  26.963  0.00  0.00    +0.129 A 
ATOM      5  C   LIG    1      -38.135  79.136  26.917  0.00  0.00    +0.078 A 
ENDROOT
BRANCH   3   6
ATOM      6  C   LIG    1      -35.565  76.821  27.903  0.00  0.00    +0.067 A 
ATOM      7  C   LIG    1      -35.888  75.826  28.838  0.00  0.00    +0.028 A 
ATOM      8  C   LIG    1      -34.986  74.790  29.099  0.00  0.00    +0.002 A 
ATOM      9  C   LIG    1      -33.750  74.761  28.456  0.00  0.00    +0.000 A 
ATOM     10  C   LIG    1      -33.419  75.755  27.537  0.00  0.00    +0.002 A 
ATOM     11  C   LIG    1      -34.324  76.781  27.251  0.00  0.00    +0.028 A 
ENDBRANCH   3   6
BRANCH   4  12
ATOM     12  N   LIG    1      -38.363  76.703  26.489  0.00  0.00    -0.266 N 
ATOM     13  H   LIG    1      -39.106  76.328  27.055  0.00  0.00    +0.157 HD
ATOM     14  C   LIG    1      -38.050  76.093  25.223  0.00  0.00    +0.251 C 
ATOM     15  O   LIG    1      -37.106  76.476  24.564  0.00  0.00    -0.270 OA
BRANCH  14  16
ATOM     16  C   LIG    1      -38.842  74.925  24.778  0.00  0.00    +0.056 A 
ATOM     17  C   LIG    1      -40.079  75.007  24.149  0.00  0.00    +0.054 A 
ATOM     18 CL   LIG    1      -40.919  76.493  23.889  0.00  0.00    -0.083 Cl
ATOM     19  C   LIG    1      -40.697  73.844  23.689  0.00  0.00    +0.041 A 
ATOM     20  C   LIG    1      -40.107  72.581  23.881  0.00  0.00    +0.052 A 
ATOM     21 CL   LIG    1      -41.032  71.249  23.268  0.00  0.00    -0.083 Cl
ATOM     22  C   LIG    1      -38.877  72.444  24.559  0.00  0.00    +0.022 A 
ATOM     23  C   LIG    1      -38.256  73.650  24.970  0.00  0.00    +0.026 A 
BRANCH  22  24
ATOM     24  C   LIG    1      -38.234  71.135  24.863  0.00  0.00    +0.107 A 
ATOM     25  C   LIG    1      -38.460  70.419  26.046  0.00  0.00    +0.149 A 
ATOM     26  F   LIG    1      -39.267  70.891  27.008  0.00  0.00    -0.203 F 
ATOM     27  C   LIG    1      -37.858  69.179  26.239  0.00  0.00    +0.042 A 
ATOM     28  C   LIG    1      -37.046  68.657  25.243  0.00  0.00    +0.023 A 
ATOM     29  C   LIG    1      -36.852  69.418  24.104  0.00  0.00    +0.111 A 
ATOM     30  N   LIG    1      -37.404  70.639  23.911  0.00  0.00    -0.252 NA
ENDBRANCH  22  24
ENDBRANCH  14  16
ENDBRANCH   4  12
BRANCH   1  31
ATOM     31  C   LIG    1      -37.216  81.370  27.768  0.00  0.00    +0.236 C 
ATOM     32  N   LIG    1      -36.118  82.037  27.772  0.00  0.00    -0.244 NA
BRANCH  31  33
ATOM     33  O   LIG    1      -38.444  81.894  27.957  0.00  0.00    -0.491 OA
ATOM     34  H   LIG    1      -38.945  81.445  28.649  0.00  0.00    +0.294 HD
ENDBRANCH  31  33
BRANCH  32  35
ATOM     35  C   LIG    1      -36.131  83.484  27.936  0.00  0.00    +0.183 C 
BRANCH  35  36
ATOM     36  C   LIG    1      -35.197  83.934  29.016  0.00  0.00    +0.010 A 
ATOM     37  C   LIG    1      -34.570  83.056  29.878  0.00  0.00    +0.119 A 
ATOM     38  N   LIG    1      -33.715  83.433  30.851  0.00  0.00    -0.243 NA
ATOM     39  C   LIG    1      -33.501  84.753  30.959  0.00  0.00    +0.221 A 
ATOM     40  N   LIG    1      -34.054  85.703  30.192  0.00  0.00    -0.243 NA
ATOM     41  C   LIG    1      -34.899  85.265  29.236  0.00  0.00    +0.119 A 
ENDBRANCH  35  36
ENDBRANCH  32  35
ENDBRANCH   1  31
TORSDOF 8
ENDMDL
MODEL 9
REMARK VINA RESULT:      -6.4     11.557     13.465
REMARK  Name = pdb/CHEMBL3931763.pdb
REMARK                            x       y       z     vdW  Elec       q    Type
REMARK                         _______ _______ _______ _____ _____    ______ ____
ROOT
ATOM      1  C   LIG    1      -24.372  78.323  34.297  0.00  0.00    +0.149 A 
ATOM      2  N   LIG    1      -23.296  78.329  33.490  0.00  0.00    -0.160 NA
ATOM      3  N   LIG    1      -23.362  77.163  32.795  0.00  0.00    -0.218 N 
ATOM      4  C   LIG    1      -24.416  76.355  33.244  0.00  0.00    +0.129 A 
ATOM      5  C   LIG    1      -25.063  77.095  34.195  0.00  0.00    +0.078 A 
ENDROOT
BRANCH   3   6
ATOM      6  C   LIG    1      -22.448  76.913  31.732  0.00  0.00    +0.067 A 
ATOM      7  C   LIG    1      -21.086  76.746  32.023  0.00  0.00    +0.028 A 
ATOM      8  C   LIG    1      -20.171  76.523  30.991  0.00  0.00    +0.002 A 
ATOM      9  C   LIG    1      -20.603  76.500  29.666  0.00  0.00    +0.000 A 
ATOM     10  C   LIG    1      -21.953  76.680  29.370  0.00  0.00    +0.002 A 
ATOM     11  C   LIG    1      -22.880  76.879  30.399  0.00  0.00    +0.028 A 
ENDBRANCH   3   6
BRANCH   4  12
ATOM     12  N   LIG    1      -24.691  75.035  32.864  0.00  0.00    -0.266 N 
ATOM     13  H   LIG    1      -24.281  74.297  33.412  0.00  0.00    +0.157 HD
ATOM     14  C   LIG    1      -25.559  74.710  31.763  0.00  0.00    +0.251 C 
ATOM     15  O   LIG    1      -25.998  75.578  31.038  0.00  0.00    -0.270 OA
BRANCH  14  16
ATOM     16  C   LIG    1      -25.835  73.286  31.468  0.00  0.00    +0.056 A 
ATOM     17  C   LIG    1      -27.058  72.661  31.683  0.00  0.00    +0.054 A 
ATOM     18 CL   LIG    1      -28.408  73.439  32.428  0.00  0.00    -0.083 Cl
ATOM     19  C   LIG    1      -27.235  71.336  31.283  0.00  0.00    +0.041 A 
ATOM     20  C   LIG    1      -26.185  70.607  30.695  0.00  0.00    +0.052 A 
ATOM     21 CL   LIG    1      -26.581  68.969  30.288  0.00  0.00    -0.083 Cl
ATOM     22  C   LIG    1      -24.912  71.183  30.503  0.00  0.00    +0.022 A 
ATOM     23  C   LIG    1      -24.782  72.545  30.878  0.00  0.00    +0.026 A 
BRANCH  22  24
ATOM     24  C   LIG    1      -23.737  70.447  29.957  0.00  0.00    +0.107 A 
ATOM     25  C   LIG    1      -23.617  70.073  28.613  0.00  0.00    +0.149 A 
ATOM     26  F   LIG    1      -24.583  70.340  27.721  0.00  0.00    -0.203 F 
ATOM     27  C   LIG    1      -22.468  69.427  28.166  0.00  0.00    +0.042 A 
ATOM     28  C   LIG    1      -21.442  69.170  29.065  0.00  0.00    +0.023 A 
ATOM     29  C   LIG    1      -21.627  69.551  30.382  0.00  0.00    +0.111 A 
ATOM     30  N   LIG    1      -22.750  70.153  30.840  0.00  0.00    -0.252 NA
ENDBRANCH  22  24
ENDBRANCH  14  16
ENDBRANCH   4  12
BRANCH   1  31
ATOM     31  C   LIG    1      -24.740  79.444  35.165  0.00  0.00    +0.236 C 
ATOM     32  N   LIG    1      -23.881  80.368  35.407  0.00  0.00    -0.244 NA
BRANCH  31  33
ATOM     33  O   LIG    1      -25.980  79.378  35.692  0.00  0.00    -0.491 OA
ATOM     34  H   LIG    1      -26.649  79.798  35.139  0.00  0.00    +0.294 HD
ENDBRANCH  31  33
BRANCH  32  35
ATOM     35  C   LIG    1      -24.223  81.490  36.269  0.00  0.00    +0.183 C 
BRANCH  35  36
ATOM     36  C   LIG    1      -23.006  82.158  36.830  0.00  0.00    +0.010 A 
ATOM     37  C   LIG    1      -23.029  82.896  37.997  0.00  0.00    +0.119 A 
ATOM     38  N   LIG    1      -21.946  83.498  38.532  0.00  0.00    -0.243 NA
ATOM     39  C   LIG    1      -20.802  83.354  37.846  0.00  0.00    +0.221 A 
ATOM     40  N   LIG    1      -20.653  82.673  36.701  0.00  0.00    -0.243 NA
ATOM     41  C   LIG    1      -21.770  82.093  36.216  0.00  0.00    +0.119 A 
ENDBRANCH  35  36
ENDBRANCH  32  35
ENDBRANCH   1  31
TORSDOF 8
ENDMDL
