MODEL 1
REMARK VINA RESULT:      -5.3      0.000      0.000
REMARK  Name = pdb/CHEMBL3675924.pdb
REMARK                            x       y       z     vdW  Elec       q    Type
REMARK                         _______ _______ _______ _____ _____    ______ ____
ROOT
ATOM      1  C   LIG    1      -20.479  77.125  30.391  0.00  0.00    +0.100 A 
ATOM      2  C   LIG    1      -20.131  77.746  31.579  0.00  0.00    +0.170 A 
ATOM      3  N   LIG    1      -20.885  78.382  32.532  0.00  0.00    -0.212 NA
ATOM      4  C   LIG    1      -20.261  78.924  33.558  0.00  0.00    +0.126 A 
ATOM      5  C   LIG    1      -18.757  78.853  33.702  0.00  0.00    +0.063 A 
ATOM      6  C   LIG    1      -18.078  78.183  32.764  0.00  0.00    +0.118 A 
ATOM      7  N   LIG    1      -18.746  77.623  31.688  0.00  0.00    -0.221 N 
ATOM      8  N   LIG    1      -18.212  76.927  30.657  0.00  0.00    -0.173 NA
ATOM      9  C   LIG    1      -19.258  76.641  29.880  0.00  0.00    +0.150 A 
ENDROOT
BRANCH   4  10
ATOM     10  N   LIG    1      -21.005  79.515  34.567  0.00  0.00    -0.308 N 
ATOM     11  C   LIG    1      -22.484  79.642  34.548  0.00  0.00    +0.108 C 
ATOM     12  C   LIG    1      -22.691  80.939  35.361  0.00  0.00    +0.029 C 
ATOM     13  C   LIG    1      -21.603  80.871  36.415  0.00  0.00    +0.021 C 
ATOM     14  C   LIG    1      -20.420  80.322  35.635  0.00  0.00    +0.107 C 
BRANCH  11  15
ATOM     15  C   LIG    1      -23.143  78.376  35.094  0.00  0.00    +0.011 A 
ATOM     16  C   LIG    1      -24.514  78.112  34.954  0.00  0.00    +0.129 A 
ATOM     17  F   LIG    1      -25.319  78.961  34.307  0.00  0.00    -0.205 F 
ATOM     18  C   LIG    1      -25.105  76.947  35.455  0.00  0.00    +0.041 A 
ATOM     19  C   LIG    1      -24.325  75.982  36.080  0.00  0.00    +0.041 A 
ATOM     20  C   LIG    1      -22.961  76.192  36.184  0.00  0.00    +0.124 A 
ATOM     21  F   LIG    1      -22.189  75.259  36.757  0.00  0.00    -0.205 F 
ATOM     22  C   LIG    1      -22.375  77.358  35.700  0.00  0.00    +0.046 A 
ENDBRANCH  11  15
ENDBRANCH   4  10
BRANCH   1  25
ATOM     23  N   LIG    1      -22.798  77.659  30.463  0.00  0.00    -0.310 N 
ATOM     24  H   LIG    1      -22.539  78.186  31.297  0.00  0.00    +0.149 HD
ATOM     25  C   LIG    1      -21.794  76.995  29.798  0.00  0.00    +0.249 C 
ATOM     26  O   LIG    1      -21.989  76.343  28.777  0.00  0.00    -0.270 OA
BRANCH  23  27
ATOM     27  C   LIG    1      -24.162  77.708  29.972  0.00  0.00    +0.121 C 
BRANCH  27  28
ATOM     28  C   LIG    1      -25.185  77.322  31.045  0.00  0.00    +0.124 C 
BRANCH  28  29
ATOM     29  N   LIG    1      -25.454  75.870  30.983  0.00  0.00    -0.193 NA
ATOM     30  H   LIG    1      -26.429  75.601  30.841  0.00  0.00    +0.148 HD
BRANCH  29  32
ATOM     31  C   LIG    1      -23.997  73.591  31.001  0.00  0.00    +0.214 C 
ATOM     32  S   LIG    1      -24.648  74.867  32.061  0.00  0.00    +0.027 S 
ATOM     33  O   LIG    1      -23.535  75.645  32.563  0.00  0.00    -0.158 OA
ATOM     34  O   LIG    1      -25.626  74.279  32.942  0.00  0.00    -0.158 OA
ENDBRANCH  29  32
ENDBRANCH  28  29
ENDBRANCH  27  28
ENDBRANCH  23  27
ENDBRANCH   1  25
TORSDOF 7
ENDMDL
MODEL 2
REMARK VINA RESULT:      -5.3      3.557      5.878
REMARK  Name = pdb/CHEMBL3675924.pdb
REMARK                            x       y       z     vdW  Elec       q    Type
REMARK                         _______ _______ _______ _____ _____    ______ ____
ROOT
ATOM      1  C   LIG    1      -24.820  77.713  32.352  0.00  0.00    +0.100 A 
ATOM      2  C   LIG    1      -23.551  77.590  31.812  0.00  0.00    +0.170 A 
ATOM      3  N   LIG    1      -22.305  77.773  32.356  0.00  0.00    -0.212 NA
ATOM      4  C   LIG    1      -21.257  77.619  31.573  0.00  0.00    +0.126 A 
ATOM      5  C   LIG    1      -21.402  77.244  30.115  0.00  0.00    +0.063 A 
ATOM      6  C   LIG    1      -22.639  77.035  29.651  0.00  0.00    +0.118 A 
ATOM      7  N   LIG    1      -23.732  77.206  30.483  0.00  0.00    -0.221 N 
ATOM      8  N   LIG    1      -25.039  77.046  30.171  0.00  0.00    -0.173 NA
ATOM      9  C   LIG    1      -25.684  77.362  31.295  0.00  0.00    +0.150 A 
ENDROOT
BRANCH   4  10
ATOM     10  N   LIG    1      -19.986  77.735  32.114  0.00  0.00    -0.308 N 
ATOM     11  C   LIG    1      -19.546  78.861  32.975  0.00  0.00    +0.108 C 
ATOM     12  C   LIG    1      -18.039  78.934  32.639  0.00  0.00    +0.029 C 
ATOM     13  C   LIG    1      -17.654  77.481  32.440  0.00  0.00    +0.021 C 
ATOM     14  C   LIG    1      -18.850  76.919  31.690  0.00  0.00    +0.107 C 
BRANCH  11  15
ATOM     15  C   LIG    1      -19.912  78.601  34.435  0.00  0.00    +0.011 A 
ATOM     16  C   LIG    1      -20.394  79.606  35.288  0.00  0.00    +0.129 A 
ATOM     17  F   LIG    1      -20.577  80.856  34.849  0.00  0.00    -0.205 F 
ATOM     18  C   LIG    1      -20.730  79.355  36.622  0.00  0.00    +0.041 A 
ATOM     19  C   LIG    1      -20.634  78.067  37.136  0.00  0.00    +0.041 A 
ATOM     20  C   LIG    1      -20.213  77.047  36.302  0.00  0.00    +0.124 A 
ATOM     21  F   LIG    1      -20.142  75.794  36.771  0.00  0.00    -0.205 F 
ATOM     22  C   LIG    1      -19.863  77.299  34.978  0.00  0.00    +0.046 A 
ENDBRANCH  11  15
ENDBRANCH   4  10
BRANCH   1  25
ATOM     23  N   LIG    1      -24.165  78.642  34.444  0.00  0.00    -0.310 N 
ATOM     24  H   LIG    1      -23.251  78.719  33.999  0.00  0.00    +0.149 HD
ATOM     25  C   LIG    1      -25.190  78.113  33.693  0.00  0.00    +0.249 C 
ATOM     26  O   LIG    1      -26.332  77.988  34.122  0.00  0.00    -0.270 OA
BRANCH  23  27
ATOM     27  C   LIG    1      -24.366  79.170  35.780  0.00  0.00    +0.121 C 
BRANCH  27  28
ATOM     28  C   LIG    1      -24.092  80.675  35.861  0.00  0.00    +0.124 C 
BRANCH  28  29
ATOM     29  N   LIG    1      -25.298  81.380  36.342  0.00  0.00    -0.193 NA
ATOM     30  H   LIG    1      -26.113  81.344  35.727  0.00  0.00    +0.148 HD
BRANCH  29  32
ATOM     31  C   LIG    1      -25.979  82.666  38.622  0.00  0.00    +0.214 C 
ATOM     32  S   LIG    1      -25.103  82.873  37.085  0.00  0.00    +0.027 S 
ATOM     33  O   LIG    1      -23.690  82.979  37.383  0.00  0.00    -0.158 OA
ATOM     34  O   LIG    1      -25.791  83.860  36.292  0.00  0.00    -0.158 OA
ENDBRANCH  29  32
ENDBRANCH  28  29
ENDBRANCH  27  28
ENDBRANCH  23  27
ENDBRANCH   1  25
TORSDOF 7
ENDMDL
MODEL 3
REMARK VINA RESULT:      -5.3      2.627      5.313
REMARK  Name = pdb/CHEMBL3675924.pdb
REMARK                            x       y       z     vdW  Elec       q    Type
REMARK                         _______ _______ _______ _____ _____    ______ ____
ROOT
ATOM      1  C   LIG    1      -21.511  79.605  34.978  0.00  0.00    +0.100 A 
ATOM      2  C   LIG    1      -20.360  78.972  34.541  0.00  0.00    +0.170 A 
ATOM      3  N   LIG    1      -20.118  78.155  33.465  0.00  0.00    -0.212 NA
ATOM      4  C   LIG    1      -18.907  77.658  33.323  0.00  0.00    +0.126 A 
ATOM      5  C   LIG    1      -17.798  77.971  34.303  0.00  0.00    +0.063 A 
ATOM      6  C   LIG    1      -18.080  78.808  35.307  0.00  0.00    +0.118 A 
ATOM      7  N   LIG    1      -19.359  79.320  35.449  0.00  0.00    -0.221 N 
ATOM      8  N   LIG    1      -19.809  80.163  36.406  0.00  0.00    -0.173 NA
ATOM      9  C   LIG    1      -21.103  80.321  36.121  0.00  0.00    +0.150 A 
ENDROOT
BRANCH   4  10
ATOM     10  N   LIG    1      -18.621  76.883  32.210  0.00  0.00    -0.308 N 
ATOM     11  C   LIG    1      -19.012  75.459  32.062  0.00  0.00    +0.108 C 
ATOM     12  C   LIG    1      -17.875  74.919  31.166  0.00  0.00    +0.029 C 
ATOM     13  C   LIG    1      -17.574  76.083  30.241  0.00  0.00    +0.021 C 
ATOM     14  C   LIG    1      -17.672  77.280  31.172  0.00  0.00    +0.107 C 
BRANCH  11  15
ATOM     15  C   LIG    1      -20.433  75.343  31.513  0.00  0.00    +0.011 A 
ATOM     16  C   LIG    1      -21.376  74.441  32.029  0.00  0.00    +0.129 A 
ATOM     17  F   LIG    1      -21.076  73.640  33.057  0.00  0.00    -0.205 F 
ATOM     18  C   LIG    1      -22.676  74.347  31.520  0.00  0.00    +0.041 A 
ATOM     19  C   LIG    1      -23.087  75.192  30.497  0.00  0.00    +0.041 A 
ATOM     20  C   LIG    1      -22.195  76.128  30.005  0.00  0.00    +0.124 A 
ATOM     21  F   LIG    1      -22.584  76.971  29.040  0.00  0.00    -0.205 F 
ATOM     22  C   LIG    1      -20.896  76.212  30.501  0.00  0.00    +0.046 A 
ENDBRANCH  11  15
ENDBRANCH   4  10
BRANCH   1  25
ATOM     23  N   LIG    1      -22.977  78.681  33.345  0.00  0.00    -0.310 N 
ATOM     24  H   LIG    1      -22.153  78.148  33.067  0.00  0.00    +0.149 HD
ATOM     25  C   LIG    1      -22.838  79.551  34.402  0.00  0.00    +0.249 C 
ATOM     26  O   LIG    1      -23.765  80.231  34.829  0.00  0.00    -0.270 OA
BRANCH  23  27
ATOM     27  C   LIG    1      -24.251  78.435  32.696  0.00  0.00    +0.121 C 
BRANCH  27  28
ATOM     28  C   LIG    1      -25.018  77.273  33.334  0.00  0.00    +0.124 C 
BRANCH  28  29
ATOM     29  N   LIG    1      -26.472  77.501  33.207  0.00  0.00    -0.193 NA
ATOM     30  H   LIG    1      -27.005  77.493  34.079  0.00  0.00    +0.148 HD
BRANCH  29  32
ATOM     31  C   LIG    1      -27.922  75.278  32.686  0.00  0.00    +0.214 C 
ATOM     32  S   LIG    1      -27.284  76.762  31.937  0.00  0.00    +0.027 S 
ATOM     33  O   LIG    1      -28.403  77.629  31.630  0.00  0.00    -0.158 OA
ATOM     34  O   LIG    1      -26.311  76.392  30.939  0.00  0.00    -0.158 OA
ENDBRANCH  29  32
ENDBRANCH  28  29
ENDBRANCH  27  28
ENDBRANCH  23  27
ENDBRANCH   1  25
TORSDOF 7
ENDMDL
MODEL 4
REMARK VINA RESULT:      -5.2      2.375      3.763
REMARK  Name = pdb/CHEMBL3675924.pdb
REMARK                            x       y       z     vdW  Elec       q    Type
REMARK                         _______ _______ _______ _____ _____    ______ ____
ROOT
ATOM      1  C   LIG    1      -23.952  77.136  30.870  0.00  0.00    +0.100 A 
ATOM      2  C   LIG    1      -22.740  77.482  31.443  0.00  0.00    +0.170 A 
ATOM      3  N   LIG    1      -22.393  77.779  32.737  0.00  0.00    -0.212 NA
ATOM      4  C   LIG    1      -21.144  78.118  32.983  0.00  0.00    +0.126 A 
ATOM      5  C   LIG    1      -20.105  78.176  31.885  0.00  0.00    +0.063 A 
ATOM      6  C   LIG    1      -20.491  77.834  30.651  0.00  0.00    +0.118 A 
ATOM      7  N   LIG    1      -21.808  77.486  30.405  0.00  0.00    -0.221 N 
ATOM      8  N   LIG    1      -22.359  77.127  29.223  0.00  0.00    -0.173 NA
ATOM      9  C   LIG    1      -23.647  76.928  29.509  0.00  0.00    +0.150 A 
ENDROOT
BRANCH   4  10
ATOM     10  N   LIG    1      -20.754  78.359  34.290  0.00  0.00    -0.308 N 
ATOM     11  C   LIG    1      -20.458  79.706  34.838  0.00  0.00    +0.108 C 
ATOM     12  C   LIG    1      -19.400  79.376  35.914  0.00  0.00    +0.029 C 
ATOM     13  C   LIG    1      -19.862  78.039  36.462  0.00  0.00    +0.021 C 
ATOM     14  C   LIG    1      -20.322  77.309  35.211  0.00  0.00    +0.107 C 
BRANCH  11  15
ATOM     15  C   LIG    1      -21.738  80.388  35.319  0.00  0.00    +0.011 A 
ATOM     16  C   LIG    1      -21.761  81.703  35.808  0.00  0.00    +0.129 A 
ATOM     17  F   LIG    1      -20.648  82.441  35.858  0.00  0.00    -0.205 F 
ATOM     18  C   LIG    1      -22.941  82.317  36.242  0.00  0.00    +0.041 A 
ATOM     19  C   LIG    1      -24.152  81.641  36.158  0.00  0.00    +0.041 A 
ATOM     20  C   LIG    1      -24.166  80.363  35.630  0.00  0.00    +0.124 A 
ATOM     21  F   LIG    1      -25.328  79.707  35.513  0.00  0.00    -0.205 F 
ATOM     22  C   LIG    1      -22.990  79.745  35.212  0.00  0.00    +0.046 A 
ENDBRANCH  11  15
ENDBRANCH   4  10
BRANCH   1  25
ATOM     23  N   LIG    1      -25.215  77.028  32.885  0.00  0.00    -0.310 N 
ATOM     24  H   LIG    1      -24.304  77.132  33.332  0.00  0.00    +0.149 HD
ATOM     25  C   LIG    1      -25.245  77.015  31.509  0.00  0.00    +0.249 C 
ATOM     26  O   LIG    1      -26.285  76.910  30.868  0.00  0.00    -0.270 OA
BRANCH  23  27
ATOM     27  C   LIG    1      -26.419  76.998  33.694  0.00  0.00    +0.121 C 
BRANCH  27  28
ATOM     28  C   LIG    1      -26.786  75.580  34.143  0.00  0.00    +0.124 C 
BRANCH  28  29
ATOM     29  N   LIG    1      -27.364  74.828  33.009  0.00  0.00    -0.193 NA
ATOM     30  H   LIG    1      -28.382  74.746  32.998  0.00  0.00    +0.148 HD
BRANCH  29  32
ATOM     31  C   LIG    1      -25.117  73.408  33.515  0.00  0.00    +0.214 C 
ATOM     32  S   LIG    1      -26.588  73.426  32.509  0.00  0.00    +0.027 S 
ATOM     33  O   LIG    1      -27.438  72.335  32.937  0.00  0.00    -0.158 OA
ATOM     34  O   LIG    1      -26.201  73.595  31.131  0.00  0.00    -0.158 OA
ENDBRANCH  29  32
ENDBRANCH  28  29
ENDBRANCH  27  28
ENDBRANCH  23  27
ENDBRANCH   1  25
TORSDOF 7
ENDMDL
MODEL 5
REMARK VINA RESULT:      -5.2      2.913      5.711
REMARK  Name = pdb/CHEMBL3675924.pdb
REMARK                            x       y       z     vdW  Elec       q    Type
REMARK                         _______ _______ _______ _____ _____    ______ ____
ROOT
ATOM      1  C   LIG    1      -22.339  79.258  35.738  0.00  0.00    +0.100 A 
ATOM      2  C   LIG    1      -21.582  78.951  34.620  0.00  0.00    +0.170 A 
ATOM      3  N   LIG    1      -21.858  78.196  33.508  0.00  0.00    -0.212 NA
ATOM      4  C   LIG    1      -20.910  78.046  32.607  0.00  0.00    +0.126 A 
ATOM      5  C   LIG    1      -19.550  78.688  32.771  0.00  0.00    +0.063 A 
ATOM      6  C   LIG    1      -19.352  79.449  33.853  0.00  0.00    +0.118 A 
ATOM      7  N   LIG    1      -20.356  79.593  34.795  0.00  0.00    -0.221 N 
ATOM      8  N   LIG    1      -20.316  80.312  35.941  0.00  0.00    -0.173 NA
ATOM      9  C   LIG    1      -21.505  80.098  36.504  0.00  0.00    +0.150 A 
ENDROOT
BRANCH   4  10
ATOM     10  N   LIG    1      -21.185  77.342  31.446  0.00  0.00    -0.308 N 
ATOM     11  C   LIG    1      -20.149  76.738  30.572  0.00  0.00    +0.108 C 
ATOM     12  C   LIG    1      -20.831  76.815  29.187  0.00  0.00    +0.029 C 
ATOM     13  C   LIG    1      -22.293  76.564  29.502  0.00  0.00    +0.021 C 
ATOM     14  C   LIG    1      -22.493  77.340  30.794  0.00  0.00    +0.107 C 
BRANCH  11  15
ATOM     15  C   LIG    1      -19.765  75.346  31.071  0.00  0.00    +0.011 A 
ATOM     16  C   LIG    1      -18.483  74.803  30.897  0.00  0.00    +0.129 A 
ATOM     17  F   LIG    1      -17.514  75.499  30.293  0.00  0.00    -0.205 F 
ATOM     18  C   LIG    1      -18.142  73.529  31.363  0.00  0.00    +0.041 A 
ATOM     19  C   LIG    1      -19.072  72.769  32.062  0.00  0.00    +0.041 A 
ATOM     20  C   LIG    1      -20.328  73.301  32.295  0.00  0.00    +0.124 A 
ATOM     21  F   LIG    1      -21.227  72.596  32.993  0.00  0.00    -0.205 F 
ATOM     22  C   LIG    1      -20.673  74.563  31.818  0.00  0.00    +0.046 A 
ENDBRANCH  11  15
ENDBRANCH   4  10
BRANCH   1  25
ATOM     23  N   LIG    1      -24.612  79.023  35.070  0.00  0.00    -0.310 N 
ATOM     24  H   LIG    1      -24.285  79.448  34.201  0.00  0.00    +0.149 HD
ATOM     25  C   LIG    1      -23.681  78.819  36.061  0.00  0.00    +0.249 C 
ATOM     26  O   LIG    1      -23.959  78.305  37.139  0.00  0.00    -0.270 OA
BRANCH  23  27
ATOM     27  C   LIG    1      -25.987  78.576  35.183  0.00  0.00    +0.121 C 
BRANCH  27  28
ATOM     28  C   LIG    1      -26.267  77.326  34.344  0.00  0.00    +0.124 C 
BRANCH  28  29
ATOM     29  N   LIG    1      -25.862  77.562  32.942  0.00  0.00    -0.193 NA
ATOM     30  H   LIG    1      -25.593  78.519  32.708  0.00  0.00    +0.148 HD
BRANCH  29  32
ATOM     31  C   LIG    1      -27.125  75.224  32.435  0.00  0.00    +0.214 C 
ATOM     32  S   LIG    1      -26.742  76.813  31.725  0.00  0.00    +0.027 S 
ATOM     33  O   LIG    1      -27.975  77.565  31.613  0.00  0.00    -0.158 OA
ATOM     34  O   LIG    1      -25.866  76.614  30.597  0.00  0.00    -0.158 OA
ENDBRANCH  29  32
ENDBRANCH  28  29
ENDBRANCH  27  28
ENDBRANCH  23  27
ENDBRANCH   1  25
TORSDOF 7
ENDMDL
MODEL 6
REMARK VINA RESULT:      -5.2     18.412     21.021
REMARK  Name = pdb/CHEMBL3675924.pdb
REMARK                            x       y       z     vdW  Elec       q    Type
REMARK                         _______ _______ _______ _____ _____    ______ ____
ROOT
ATOM      1  C   LIG    1      -18.747  85.328  12.881  0.00  0.00    +0.100 A 
ATOM      2  C   LIG    1      -19.111  84.024  13.173  0.00  0.00    +0.170 A 
ATOM      3  N   LIG    1      -20.003  83.504  14.076  0.00  0.00    -0.212 NA
ATOM      4  C   LIG    1      -20.111  82.194  14.158  0.00  0.00    +0.126 A 
ATOM      5  C   LIG    1      -19.289  81.272  13.286  0.00  0.00    +0.063 A 
ATOM      6  C   LIG    1      -18.467  81.836  12.394  0.00  0.00    +0.118 A 
ATOM      7  N   LIG    1      -18.359  83.214  12.322  0.00  0.00    -0.221 N 
ATOM      8  N   LIG    1      -17.574  83.937  11.490  0.00  0.00    -0.173 NA
ATOM      9  C   LIG    1      -17.806  85.203  11.839  0.00  0.00    +0.150 A 
ENDROOT
BRANCH   4  10
ATOM     10  N   LIG    1      -21.052  81.646  15.016  0.00  0.00    -0.308 N 
ATOM     11  C   LIG    1      -22.328  82.307  15.387  0.00  0.00    +0.108 C 
ATOM     12  C   LIG    1      -22.558  81.754  16.811  0.00  0.00    +0.029 C 
ATOM     13  C   LIG    1      -22.037  80.332  16.724  0.00  0.00    +0.021 C 
ATOM     14  C   LIG    1      -20.790  80.488  15.868  0.00  0.00    +0.107 C 
BRANCH  11  15
ATOM     15  C   LIG    1      -23.412  82.011  14.351  0.00  0.00    +0.011 A 
ATOM     16  C   LIG    1      -23.551  82.748  13.165  0.00  0.00    +0.129 A 
ATOM     17  F   LIG    1      -22.715  83.749  12.871  0.00  0.00    -0.205 F 
ATOM     18  C   LIG    1      -24.545  82.465  12.223  0.00  0.00    +0.041 A 
ATOM     19  C   LIG    1      -25.411  81.396  12.421  0.00  0.00    +0.041 A 
ATOM     20  C   LIG    1      -25.262  80.619  13.556  0.00  0.00    +0.124 A 
ATOM     21  F   LIG    1      -26.068  79.568  13.750  0.00  0.00    -0.205 F 
ATOM     22  C   LIG    1      -24.283  80.910  14.502  0.00  0.00    +0.046 A 
ENDBRANCH  11  15
ENDBRANCH   4  10
BRANCH   1  25
ATOM     23  N   LIG    1      -20.307  86.400  14.326  0.00  0.00    -0.310 N 
ATOM     24  H   LIG    1      -20.681  85.458  14.440  0.00  0.00    +0.149 HD
ATOM     25  C   LIG    1      -19.217  86.550  13.501  0.00  0.00    +0.249 C 
ATOM     26  O   LIG    1      -18.678  87.634  13.301  0.00  0.00    -0.270 OA
BRANCH  23  27
ATOM     27  C   LIG    1      -20.865  87.498  15.092  0.00  0.00    +0.121 C 
BRANCH  27  28
ATOM     28  C   LIG    1      -22.221  87.960  14.550  0.00  0.00    +0.124 C 
BRANCH  28  29
ATOM     29  N   LIG    1      -22.893  86.841  13.858  0.00  0.00    -0.193 NA
ATOM     30  H   LIG    1      -22.587  85.903  14.121  0.00  0.00    +0.148 HD
BRANCH  29  32
ATOM     31  C   LIG    1      -23.437  88.748  12.018  0.00  0.00    +0.214 C 
ATOM     32  S   LIG    1      -23.201  86.993  12.215  0.00  0.00    +0.027 S 
ATOM     33  O   LIG    1      -21.968  86.627  11.550  0.00  0.00    -0.158 OA
ATOM     34  O   LIG    1      -24.447  86.326  11.929  0.00  0.00    -0.158 OA
ENDBRANCH  29  32
ENDBRANCH  28  29
ENDBRANCH  27  28
ENDBRANCH  23  27
ENDBRANCH   1  25
TORSDOF 7
ENDMDL
MODEL 7
REMARK VINA RESULT:      -5.1      2.477      3.611
REMARK  Name = pdb/CHEMBL3675924.pdb
REMARK                            x       y       z     vdW  Elec       q    Type
REMARK                         _______ _______ _______ _____ _____    ______ ____
ROOT
ATOM      1  C   LIG    1      -22.451  77.059  30.607  0.00  0.00    +0.100 A 
ATOM      2  C   LIG    1      -21.392  77.347  31.451  0.00  0.00    +0.170 A 
ATOM      3  N   LIG    1      -21.345  77.648  32.789  0.00  0.00    -0.212 NA
ATOM      4  C   LIG    1      -20.173  77.920  33.323  0.00  0.00    +0.126 A 
ATOM      5  C   LIG    1      -18.901  77.900  32.504  0.00  0.00    +0.063 A 
ATOM      6  C   LIG    1      -19.002  77.557  31.215  0.00  0.00    +0.118 A 
ATOM      7  N   LIG    1      -20.242  77.279  30.665  0.00  0.00    -0.221 N 
ATOM      8  N   LIG    1      -20.517  76.929  29.387  0.00  0.00    -0.173 NA
ATOM      9  C   LIG    1      -21.845  76.809  29.360  0.00  0.00    +0.150 A 
ENDROOT
BRANCH   4  10
ATOM     10  N   LIG    1      -20.090  78.164  34.685  0.00  0.00    -0.308 N 
ATOM     11  C   LIG    1      -19.911  79.510  35.282  0.00  0.00    +0.108 C 
ATOM     12  C   LIG    1      -19.133  79.173  36.574  0.00  0.00    +0.029 C 
ATOM     13  C   LIG    1      -19.726  77.845  37.004  0.00  0.00    +0.021 C 
ATOM     14  C   LIG    1      -19.896  77.113  35.683  0.00  0.00    +0.107 C 
BRANCH  11  15
ATOM     15  C   LIG    1      -21.258  80.209  35.455  0.00  0.00    +0.011 A 
ATOM     16  C   LIG    1      -21.377  81.525  35.928  0.00  0.00    +0.129 A 
ATOM     17  F   LIG    1      -20.296  82.248  36.238  0.00  0.00    -0.205 F 
ATOM     18  C   LIG    1      -22.617  82.156  36.078  0.00  0.00    +0.041 A 
ATOM     19  C   LIG    1      -23.784  81.496  35.714  0.00  0.00    +0.041 A 
ATOM     20  C   LIG    1      -23.693  80.218  35.193  0.00  0.00    +0.124 A 
ATOM     21  F   LIG    1      -24.804  79.578  34.809  0.00  0.00    -0.205 F 
ATOM     22  C   LIG    1      -22.460  79.583  35.059  0.00  0.00    +0.046 A 
ENDBRANCH  11  15
ENDBRANCH   4  10
BRANCH   1  25
ATOM     23  N   LIG    1      -24.166  77.166  32.256  0.00  0.00    -0.310 N 
ATOM     24  H   LIG    1      -23.386  77.295  32.900  0.00  0.00    +0.149 HD
ATOM     25  C   LIG    1      -23.865  77.023  30.921  0.00  0.00    +0.249 C 
ATOM     26  O   LIG    1      -24.723  76.876  30.058  0.00  0.00    -0.270 OA
BRANCH  23  27
ATOM     27  C   LIG    1      -25.529  77.235  32.747  0.00  0.00    +0.121 C 
BRANCH  27  28
ATOM     28  C   LIG    1      -26.211  75.863  32.774  0.00  0.00    +0.124 C 
BRANCH  28  29
ATOM     29  N   LIG    1      -27.167  75.756  31.652  0.00  0.00    -0.193 NA
ATOM     30  H   LIG    1      -26.786  75.927  30.720  0.00  0.00    +0.148 HD
BRANCH  29  32
ATOM     31  C   LIG    1      -28.903  76.388  33.628  0.00  0.00    +0.214 C 
ATOM     32  S   LIG    1      -28.706  76.394  31.857  0.00  0.00    +0.027 S 
ATOM     33  O   LIG    1      -28.620  77.772  31.419  0.00  0.00    -0.158 OA
ATOM     34  O   LIG    1      -29.654  75.470  31.286  0.00  0.00    -0.158 OA
ENDBRANCH  29  32
ENDBRANCH  28  29
ENDBRANCH  27  28
ENDBRANCH  23  27
ENDBRANCH   1  25
TORSDOF 7
ENDMDL
MODEL 8
REMARK VINA RESULT:      -5.0      2.066      3.417
REMARK  Name = pdb/CHEMBL3675924.pdb
REMARK                            x       y       z     vdW  Elec       q    Type
REMARK                         _______ _______ _______ _____ _____    ______ ____
ROOT
ATOM      1  C   LIG    1      -20.337  76.851  30.658  0.00  0.00    +0.100 A 
ATOM      2  C   LIG    1      -20.204  76.968  32.031  0.00  0.00    +0.170 A 
ATOM      3  N   LIG    1      -21.134  77.091  33.032  0.00  0.00    -0.212 NA
ATOM      4  C   LIG    1      -20.701  77.228  34.269  0.00  0.00    +0.126 A 
ATOM      5  C   LIG    1      -19.225  77.242  34.597  0.00  0.00    +0.063 A 
ATOM      6  C   LIG    1      -18.366  77.074  33.586  0.00  0.00    +0.118 A 
ATOM      7  N   LIG    1      -18.834  76.938  32.290  0.00  0.00    -0.221 N 
ATOM      8  N   LIG    1      -18.104  76.771  31.163  0.00  0.00    -0.173 NA
ATOM      9  C   LIG    1      -19.014  76.730  30.188  0.00  0.00    +0.150 A 
ENDROOT
BRANCH   4  10
ATOM     10  N   LIG    1      -21.620  77.289  35.304  0.00  0.00    -0.308 N 
ATOM     11  C   LIG    1      -21.422  78.069  36.551  0.00  0.00    +0.108 C 
ATOM     12  C   LIG    1      -22.223  77.229  37.570  0.00  0.00    +0.029 C 
ATOM     13  C   LIG    1      -23.402  76.725  36.760  0.00  0.00    +0.021 C 
ATOM     14  C   LIG    1      -22.766  76.388  35.422  0.00  0.00    +0.107 C 
BRANCH  11  15
ATOM     15  C   LIG    1      -21.862  79.519  36.358  0.00  0.00    +0.011 A 
ATOM     16  C   LIG    1      -20.962  80.553  36.060  0.00  0.00    +0.129 A 
ATOM     17  F   LIG    1      -19.656  80.311  35.909  0.00  0.00    -0.205 F 
ATOM     18  C   LIG    1      -21.379  81.877  35.882  0.00  0.00    +0.041 A 
ATOM     19  C   LIG    1      -22.728  82.200  35.954  0.00  0.00    +0.041 A 
ATOM     20  C   LIG    1      -23.644  81.190  36.193  0.00  0.00    +0.124 A 
ATOM     21  F   LIG    1      -24.951  81.477  36.237  0.00  0.00    -0.205 F 
ATOM     22  C   LIG    1      -23.228  79.875  36.387  0.00  0.00    +0.046 A 
ENDBRANCH  11  15
ENDBRANCH   4  10
BRANCH   1  25
ATOM     23  N   LIG    1      -22.635  77.448  30.477  0.00  0.00    -0.310 N 
ATOM     24  H   LIG    1      -22.492  77.842  31.407  0.00  0.00    +0.149 HD
ATOM     25  C   LIG    1      -21.553  76.853  29.871  0.00  0.00    +0.249 C 
ATOM     26  O   LIG    1      -21.607  76.360  28.749  0.00  0.00    -0.270 OA
BRANCH  23  27
ATOM     27  C   LIG    1      -23.912  77.615  29.809  0.00  0.00    +0.121 C 
BRANCH  27  28
ATOM     28  C   LIG    1      -25.059  77.859  30.794  0.00  0.00    +0.124 C 
BRANCH  28  29
ATOM     29  N   LIG    1      -26.051  76.768  30.691  0.00  0.00    -0.193 NA
ATOM     30  H   LIG    1      -26.451  76.613  29.764  0.00  0.00    +0.148 HD
BRANCH  29  32
ATOM     31  C   LIG    1      -26.276  77.161  33.358  0.00  0.00    +0.214 C 
ATOM     32  S   LIG    1      -27.174  76.597  31.927  0.00  0.00    +0.027 S 
ATOM     33  O   LIG    1      -28.219  77.558  31.643  0.00  0.00    -0.158 OA
ATOM     34  O   LIG    1      -27.455  75.191  32.084  0.00  0.00    -0.158 OA
ENDBRANCH  29  32
ENDBRANCH  28  29
ENDBRANCH  27  28
ENDBRANCH  23  27
ENDBRANCH   1  25
TORSDOF 7
ENDMDL
MODEL 9
REMARK VINA RESULT:      -4.9     18.803     21.948
REMARK  Name = pdb/CHEMBL3675924.pdb
REMARK                            x       y       z     vdW  Elec       q    Type
REMARK                         _______ _______ _______ _____ _____    ______ ____
ROOT
ATOM      1  C   LIG    1      -20.853  82.180  14.870  0.00  0.00    +0.100 A 
ATOM      2  C   LIG    1      -22.108  81.894  14.359  0.00  0.00    +0.170 A 
ATOM      3  N   LIG    1      -22.701  82.209  13.163  0.00  0.00    -0.212 NA
ATOM      4  C   LIG    1      -23.946  81.828  12.967  0.00  0.00    +0.126 A 
ATOM      5  C   LIG    1      -24.715  81.056  14.016  0.00  0.00    +0.063 A 
ATOM      6  C   LIG    1      -24.072  80.738  15.145  0.00  0.00    +0.118 A 
ATOM      7  N   LIG    1      -22.765  81.152  15.340  0.00  0.00    -0.221 N 
ATOM      8  N   LIG    1      -21.981  80.925  16.420  0.00  0.00    -0.173 NA
ATOM      9  C   LIG    1      -20.840  81.554  16.133  0.00  0.00    +0.150 A 
ENDROOT
BRANCH   4  10
ATOM     10  N   LIG    1      -24.545  82.077  11.743  0.00  0.00    -0.308 N 
ATOM     11  C   LIG    1      -25.636  83.062  11.533  0.00  0.00    +0.108 C 
ATOM     12  C   LIG    1      -26.408  82.420  10.358  0.00  0.00    +0.029 C 
ATOM     13  C   LIG    1      -25.312  81.792   9.519  0.00  0.00    +0.021 C 
ATOM     14  C   LIG    1      -24.375  81.220  10.570  0.00  0.00    +0.107 C 
BRANCH  11  15
ATOM     15  C   LIG    1      -25.064  84.459  11.298  0.00  0.00    +0.011 A 
ATOM     16  C   LIG    1      -25.872  85.602  11.187  0.00  0.00    +0.129 A 
ATOM     17  F   LIG    1      -27.201  85.522  11.304  0.00  0.00    -0.205 F 
ATOM     18  C   LIG    1      -25.336  86.877  10.976  0.00  0.00    +0.041 A 
ATOM     19  C   LIG    1      -23.960  87.054  10.912  0.00  0.00    +0.041 A 
ATOM     20  C   LIG    1      -23.138  85.953  11.071  0.00  0.00    +0.124 A 
ATOM     21  F   LIG    1      -21.808  86.109  11.042  0.00  0.00    -0.205 F 
ATOM     22  C   LIG    1      -23.670  84.681  11.266  0.00  0.00    +0.046 A 
ENDBRANCH  11  15
ENDBRANCH   4  10
BRANCH   1  25
ATOM     23  N   LIG    1      -20.144  84.218  13.863  0.00  0.00    -0.310 N 
ATOM     24  H   LIG    1      -21.105  84.511  14.039  0.00  0.00    +0.149 HD
ATOM     25  C   LIG    1      -19.789  82.949  14.259  0.00  0.00    +0.249 C 
ATOM     26  O   LIG    1      -18.659  82.497  14.109  0.00  0.00    -0.270 OA
BRANCH  23  27
ATOM     27  C   LIG    1      -19.191  85.159  13.305  0.00  0.00    +0.121 C 
BRANCH  27  28
ATOM     28  C   LIG    1      -19.594  86.615  13.553  0.00  0.00    +0.124 C 
BRANCH  28  29
ATOM     29  N   LIG    1      -20.209  86.746  14.890  0.00  0.00    -0.193 NA
ATOM     30  H   LIG    1      -19.933  86.045  15.581  0.00  0.00    +0.148 HD
BRANCH  29  32
ATOM     31  C   LIG    1      -21.997  88.423  13.746  0.00  0.00    +0.214 C 
ATOM     32  S   LIG    1      -21.837  87.147  14.980  0.00  0.00    +0.027 S 
ATOM     33  O   LIG    1      -22.555  85.979  14.515  0.00  0.00    -0.158 OA
ATOM     34  O   LIG    1      -22.084  87.728  16.276  0.00  0.00    -0.158 OA
ENDBRANCH  29  32
ENDBRANCH  28  29
ENDBRANCH  27  28
ENDBRANCH  23  27
ENDBRANCH   1  25
TORSDOF 7
ENDMDL
