MODEL 1
REMARK VINA RESULT:      -6.2      0.000      0.000
REMARK  Name = pdb/CHEMBL1794058.pdb
REMARK                            x       y       z     vdW  Elec       q    Type
REMARK                         _______ _______ _______ _____ _____    ______ ____
ROOT
ATOM      1  N   LIG    1      -22.228  84.178  15.433  0.00  0.00    -0.363 N 
ATOM      2  H   LIG    1      -21.562  84.523  16.125  0.00  0.00    +0.165 HD
ATOM      3  C   LIG    1      -22.570  85.078  14.453  0.00  0.00    +0.078 C 
ENDROOT
BRANCH   3   4
ATOM      4  C   LIG    1      -22.178  86.342  14.265  0.00  0.00    +0.129 C 
ATOM      5  C   LIG    1      -21.976  86.981  12.966  0.00  0.00    -0.004 A 
ATOM      6  C   LIG    1      -22.078  86.524  11.663  0.00  0.00    +0.007 A 
ATOM      7  C   LIG    1      -21.805  87.426  10.631  0.00  0.00    +0.000 A 
ATOM      8  C   LIG    1      -21.445  88.756  10.913  0.00  0.00    +0.002 A 
ATOM      9  C   LIG    1      -21.344  89.209  12.234  0.00  0.00    +0.023 A 
ATOM     10  C   LIG    1      -21.610  88.301  13.239  0.00  0.00    +0.038 A 
ATOM     11  N   LIG    1      -21.559  88.517  14.617  0.00  0.00    -0.284 N 
ATOM     12  H   LIG    1      -21.307  89.383  15.067  0.00  0.00    +0.155 HD
ATOM     13  C   LIG    1      -21.884  87.362  15.322  0.00  0.00    +0.235 C 
ATOM     14  O   LIG    1      -21.921  87.210  16.529  0.00  0.00    -0.274 OA
ENDBRANCH   3   4
BRANCH   1  18
ATOM     15  C   LIG    1      -23.580  80.184  15.776  0.00  0.00    +0.048 A 
ATOM     16  C   LIG    1      -24.111  81.030  14.808  0.00  0.00    +0.026 A 
ATOM     17  C   LIG    1      -23.645  82.349  14.701  0.00  0.00    +0.027 A 
ATOM     18  C   LIG    1      -22.663  82.847  15.571  0.00  0.00    +0.039 A 
ATOM     19  C   LIG    1      -22.164  81.975  16.551  0.00  0.00    +0.027 A 
ATOM     20  C   LIG    1      -22.619  80.658  16.661  0.00  0.00    +0.026 A 
BRANCH  15  21
ATOM     21  N   LIG    1      -24.050  78.841  15.897  0.00  0.00    -0.221 N 
ATOM     22  H   LIG    1      -25.059  78.754  15.751  0.00  0.00    +0.173 HD
BRANCH  21  24
ATOM     23  C   LIG    1      -24.469  77.575  13.586  0.00  0.00    +0.218 C 
ATOM     24  S   LIG    1      -23.294  77.680  14.915  0.00  0.00    +0.040 S 
ATOM     25  O   LIG    1      -22.105  78.331  14.401  0.00  0.00    -0.155 OA
ATOM     26  O   LIG    1      -23.234  76.399  15.580  0.00  0.00    -0.155 OA
ENDBRANCH  21  24
ENDBRANCH  15  21
ENDBRANCH   1  18
TORSDOF 4
ENDMDL
MODEL 2
REMARK VINA RESULT:      -5.9     19.442     21.067
REMARK  Name = pdb/CHEMBL1794058.pdb
REMARK                            x       y       z     vdW  Elec       q    Type
REMARK                         _______ _______ _______ _____ _____    ______ ____
ROOT
ATOM      1  N   LIG    1      -36.695  77.072  26.825  0.00  0.00    -0.363 N 
ATOM      2  H   LIG    1      -37.306  77.829  27.134  0.00  0.00    +0.165 HD
ATOM      3  C   LIG    1      -37.216  76.263  25.846  0.00  0.00    +0.078 C 
ENDROOT
BRANCH   3   4
ATOM      4  C   LIG    1      -38.405  76.299  25.236  0.00  0.00    +0.129 C 
ATOM      5  C   LIG    1      -39.130  75.137  24.724  0.00  0.00    -0.004 A 
ATOM      6  C   LIG    1      -38.835  73.785  24.680  0.00  0.00    +0.007 A 
ATOM      7  C   LIG    1      -39.777  72.929  24.104  0.00  0.00    +0.000 A 
ATOM      8  C   LIG    1      -40.987  73.431  23.591  0.00  0.00    +0.002 A 
ATOM      9  C   LIG    1      -41.276  74.799  23.640  0.00  0.00    +0.023 A 
ATOM     10  C   LIG    1      -40.330  75.629  24.207  0.00  0.00    +0.038 A 
ATOM     11  N   LIG    1      -40.390  77.015  24.350  0.00  0.00    -0.284 N 
ATOM     12  H   LIG    1      -41.148  77.606  24.045  0.00  0.00    +0.155 HD
ATOM     13  C   LIG    1      -39.243  77.511  24.964  0.00  0.00    +0.235 C 
ATOM     14  O   LIG    1      -38.975  78.669  25.223  0.00  0.00    -0.274 OA
ENDBRANCH   3   4
BRANCH   1  18
ATOM     15  C   LIG    1      -32.884  76.914  28.655  0.00  0.00    +0.048 A 
ATOM     16  C   LIG    1      -33.654  78.069  28.725  0.00  0.00    +0.026 A 
ATOM     17  C   LIG    1      -34.921  78.102  28.121  0.00  0.00    +0.027 A 
ATOM     18  C   LIG    1      -35.423  76.994  27.422  0.00  0.00    +0.039 A 
ATOM     19  C   LIG    1      -34.610  75.852  27.350  0.00  0.00    +0.027 A 
ATOM     20  C   LIG    1      -33.351  75.809  27.954  0.00  0.00    +0.026 A 
BRANCH  15  21
ATOM     21  N   LIG    1      -31.592  76.871  29.262  0.00  0.00    -0.221 N 
ATOM     22  H   LIG    1      -31.307  77.767  29.666  0.00  0.00    +0.173 HD
BRANCH  21  24
ATOM     23  C   LIG    1      -29.831  76.259  31.171  0.00  0.00    +0.218 C 
ATOM     24  S   LIG    1      -31.349  75.680  30.449  0.00  0.00    +0.040 S 
ATOM     25  O   LIG    1      -32.406  75.889  31.420  0.00  0.00    -0.155 OA
ATOM     26  O   LIG    1      -31.111  74.389  29.848  0.00  0.00    -0.155 OA
ENDBRANCH  21  24
ENDBRANCH  15  21
ENDBRANCH   1  18
TORSDOF 4
ENDMDL
MODEL 3
REMARK VINA RESULT:      -5.8     19.839     22.319
REMARK  Name = pdb/CHEMBL1794058.pdb
REMARK                            x       y       z     vdW  Elec       q    Type
REMARK                         _______ _______ _______ _____ _____    ______ ____
ROOT
ATOM      1  N   LIG    1      -39.272  78.373  24.042  0.00  0.00    -0.363 N 
ATOM      2  H   LIG    1      -38.266  78.478  24.182  0.00  0.00    +0.165 HD
ATOM      3  C   LIG    1      -39.753  77.096  24.192  0.00  0.00    +0.078 C 
ENDROOT
BRANCH   3   4
ATOM      4  C   LIG    1      -39.112  75.959  24.481  0.00  0.00    +0.129 C 
ATOM      5  C   LIG    1      -39.633  74.612  24.253  0.00  0.00    -0.004 A 
ATOM      6  C   LIG    1      -40.834  74.136  23.755  0.00  0.00    +0.007 A 
ATOM      7  C   LIG    1      -41.005  72.752  23.672  0.00  0.00    +0.000 A 
ATOM      8  C   LIG    1      -39.983  71.875  24.078  0.00  0.00    +0.002 A 
ATOM      9  C   LIG    1      -38.772  72.365  24.581  0.00  0.00    +0.023 A 
ATOM     10  C   LIG    1      -38.626  73.736  24.661  0.00  0.00    +0.038 A 
ATOM     11  N   LIG    1      -37.525  74.448  25.140  0.00  0.00    -0.284 N 
ATOM     12  H   LIG    1      -36.676  74.043  25.504  0.00  0.00    +0.155 HD
ATOM     13  C   LIG    1      -37.743  75.820  25.074  0.00  0.00    +0.235 C 
ATOM     14  O   LIG    1      -36.993  76.714  25.421  0.00  0.00    -0.274 OA
ENDBRANCH   3   4
BRANCH   1  18
ATOM     15  C   LIG    1      -41.401  81.912  23.122  0.00  0.00    +0.048 A 
ATOM     16  C   LIG    1      -40.057  81.787  22.784  0.00  0.00    +0.026 A 
ATOM     17  C   LIG    1      -39.368  80.602  23.088  0.00  0.00    +0.027 A 
ATOM     18  C   LIG    1      -40.002  79.541  23.751  0.00  0.00    +0.039 A 
ATOM     19  C   LIG    1      -41.352  79.708  24.098  0.00  0.00    +0.027 A 
ATOM     20  C   LIG    1      -42.047  80.882  23.794  0.00  0.00    +0.026 A 
BRANCH  15  21
ATOM     21  N   LIG    1      -42.111  83.114  22.822  0.00  0.00    -0.221 N 
ATOM     22  H   LIG    1      -41.609  83.959  23.108  0.00  0.00    +0.173 HD
BRANCH  21  24
ATOM     23  C   LIG    1      -43.851  84.566  21.414  0.00  0.00    +0.218 C 
ATOM     24  S   LIG    1      -42.589  83.332  21.207  0.00  0.00    +0.040 S 
ATOM     25  O   LIG    1      -41.458  83.963  20.556  0.00  0.00    -0.155 OA
ATOM     26  O   LIG    1      -43.199  82.133  20.682  0.00  0.00    -0.155 OA
ENDBRANCH  21  24
ENDBRANCH  15  21
ENDBRANCH   1  18
TORSDOF 4
ENDMDL
MODEL 4
REMARK VINA RESULT:      -5.7      2.578      3.171
REMARK  Name = pdb/CHEMBL1794058.pdb
REMARK                            x       y       z     vdW  Elec       q    Type
REMARK                         _______ _______ _______ _____ _____    ______ ____
ROOT
ATOM      1  N   LIG    1      -22.343  82.134  14.430  0.00  0.00    -0.363 N 
ATOM      2  H   LIG    1      -21.405  81.756  14.566  0.00  0.00    +0.165 HD
ATOM      3  C   LIG    1      -22.395  83.472  14.130  0.00  0.00    +0.078 C 
ENDROOT
BRANCH   3   4
ATOM      4  C   LIG    1      -21.412  84.368  13.997  0.00  0.00    +0.129 C 
ATOM      5  C   LIG    1      -21.586  85.820  13.981  0.00  0.00    -0.004 A 
ATOM      6  C   LIG    1      -22.700  86.638  14.055  0.00  0.00    +0.007 A 
ATOM      7  C   LIG    1      -22.500  88.020  14.008  0.00  0.00    +0.000 A 
ATOM      8  C   LIG    1      -21.205  88.557  13.897  0.00  0.00    +0.002 A 
ATOM      9  C   LIG    1      -20.084  87.722  13.824  0.00  0.00    +0.023 A 
ATOM     10  C   LIG    1      -20.303  86.359  13.863  0.00  0.00    +0.038 A 
ATOM     11  N   LIG    1      -19.351  85.342  13.790  0.00  0.00    -0.284 N 
ATOM     12  H   LIG    1      -18.357  85.473  13.689  0.00  0.00    +0.155 HD
ATOM     13  C   LIG    1      -19.947  84.086  13.855  0.00  0.00    +0.235 C 
ATOM     14  O   LIG    1      -19.405  82.998  13.806  0.00  0.00    -0.274 OA
ENDBRANCH   3   4
BRANCH   1  18
ATOM     15  C   LIG    1      -25.542  79.396  14.839  0.00  0.00    +0.048 A 
ATOM     16  C   LIG    1      -24.457  79.349  15.707  0.00  0.00    +0.026 A 
ATOM     17  C   LIG    1      -23.408  80.271  15.564  0.00  0.00    +0.027 A 
ATOM     18  C   LIG    1      -23.418  81.232  14.542  0.00  0.00    +0.039 A 
ATOM     19  C   LIG    1      -24.517  81.238  13.669  0.00  0.00    +0.027 A 
ATOM     20  C   LIG    1      -25.568  80.327  13.808  0.00  0.00    +0.026 A 
BRANCH  15  21
ATOM     21  N   LIG    1      -26.613  78.460  14.972  0.00  0.00    -0.221 N 
ATOM     22  H   LIG    1      -27.536  78.902  14.975  0.00  0.00    +0.173 HD
BRANCH  21  24
ATOM     23  C   LIG    1      -27.883  77.827  12.712  0.00  0.00    +0.218 C 
ATOM     24  S   LIG    1      -26.661  77.196  13.838  0.00  0.00    +0.040 S 
ATOM     25  O   LIG    1      -25.378  77.240  13.164  0.00  0.00    -0.155 OA
ATOM     26  O   LIG    1      -27.167  75.983  14.436  0.00  0.00    -0.155 OA
ENDBRANCH  21  24
ENDBRANCH  15  21
ENDBRANCH   1  18
TORSDOF 4
ENDMDL
MODEL 5
REMARK VINA RESULT:      -5.6     19.444     21.272
REMARK  Name = pdb/CHEMBL1794058.pdb
REMARK                            x       y       z     vdW  Elec       q    Type
REMARK                         _______ _______ _______ _____ _____    ______ ____
ROOT
ATOM      1  N   LIG    1      -36.355  76.455  25.945  0.00  0.00    -0.363 N 
ATOM      2  H   LIG    1      -35.881  77.227  25.475  0.00  0.00    +0.165 HD
ATOM      3  C   LIG    1      -35.760  76.024  27.105  0.00  0.00    +0.078 C 
ENDROOT
BRANCH   3   4
ATOM      4  C   LIG    1      -34.647  76.445  27.714  0.00  0.00    +0.129 C 
ATOM      5  C   LIG    1      -33.647  75.582  28.342  0.00  0.00    -0.004 A 
ATOM      6  C   LIG    1      -33.559  74.212  28.518  0.00  0.00    +0.007 A 
ATOM      7  C   LIG    1      -32.437  73.708  29.180  0.00  0.00    +0.000 A 
ATOM      8  C   LIG    1      -31.429  74.571  29.647  0.00  0.00    +0.002 A 
ATOM      9  C   LIG    1      -31.526  75.956  29.465  0.00  0.00    +0.023 A 
ATOM     10  C   LIG    1      -32.646  76.434  28.814  0.00  0.00    +0.038 A 
ATOM     11  N   LIG    1      -32.966  77.763  28.535  0.00  0.00    -0.284 N 
ATOM     12  H   LIG    1      -32.410  78.566  28.785  0.00  0.00    +0.155 HD
ATOM     13  C   LIG    1      -34.183  77.861  27.869  0.00  0.00    +0.235 C 
ATOM     14  O   LIG    1      -34.752  78.871  27.496  0.00  0.00    -0.274 OA
ENDBRANCH   3   4
BRANCH   1  18
ATOM     15  C   LIG    1      -39.907  74.951  24.208  0.00  0.00    +0.048 A 
ATOM     16  C   LIG    1      -38.969  74.086  24.761  0.00  0.00    +0.026 A 
ATOM     17  C   LIG    1      -37.801  74.602  25.343  0.00  0.00    +0.027 A 
ATOM     18  C   LIG    1      -37.542  75.980  25.358  0.00  0.00    +0.039 A 
ATOM     19  C   LIG    1      -38.498  76.824  24.770  0.00  0.00    +0.027 A 
ATOM     20  C   LIG    1      -39.667  76.320  24.195  0.00  0.00    +0.026 A 
BRANCH  15  21
ATOM     21  N   LIG    1      -41.098  74.437  23.610  0.00  0.00    -0.221 N 
ATOM     22  H   LIG    1      -40.963  73.526  23.165  0.00  0.00    +0.173 HD
BRANCH  21  24
ATOM     23  C   LIG    1      -43.536  75.495  23.838  0.00  0.00    +0.218 C 
ATOM     24  S   LIG    1      -42.461  74.313  24.615  0.00  0.00    +0.040 S 
ATOM     25  O   LIG    1      -43.003  72.992  24.362  0.00  0.00    -0.155 OA
ATOM     26  O   LIG    1      -42.162  74.770  25.952  0.00  0.00    -0.155 OA
ENDBRANCH  21  24
ENDBRANCH  15  21
ENDBRANCH   1  18
TORSDOF 4
ENDMDL
MODEL 6
REMARK VINA RESULT:      -5.6     19.427     21.793
REMARK  Name = pdb/CHEMBL1794058.pdb
REMARK                            x       y       z     vdW  Elec       q    Type
REMARK                         _______ _______ _______ _____ _____    ______ ____
ROOT
ATOM      1  N   LIG    1      -39.030  78.764  24.885  0.00  0.00    -0.363 N 
ATOM      2  H   LIG    1      -38.533  78.664  25.771  0.00  0.00    +0.165 HD
ATOM      3  C   LIG    1      -39.238  77.594  24.197  0.00  0.00    +0.078 C 
ENDROOT
BRANCH   3   4
ATOM      4  C   LIG    1      -38.882  76.341  24.495  0.00  0.00    +0.129 C 
ATOM      5  C   LIG    1      -39.674  75.145  24.210  0.00  0.00    -0.004 A 
ATOM      6  C   LIG    1      -40.919  74.951  23.637  0.00  0.00    +0.007 A 
ATOM      7  C   LIG    1      -41.386  73.641  23.515  0.00  0.00    +0.000 A 
ATOM      8  C   LIG    1      -40.608  72.555  23.957  0.00  0.00    +0.002 A 
ATOM      9  C   LIG    1      -39.350  72.760  24.535  0.00  0.00    +0.023 A 
ATOM     10  C   LIG    1      -38.909  74.063  24.653  0.00  0.00    +0.038 A 
ATOM     11  N   LIG    1      -37.708  74.509  25.205  0.00  0.00    -0.284 N 
ATOM     12  H   LIG    1      -36.992  73.923  25.606  0.00  0.00    +0.155 HD
ATOM     13  C   LIG    1      -37.614  75.896  25.158  0.00  0.00    +0.235 C 
ATOM     14  O   LIG    1      -36.706  76.598  25.565  0.00  0.00    -0.274 OA
ENDBRANCH   3   4
BRANCH   1  18
ATOM     15  C   LIG    1      -40.282  82.635  23.727  0.00  0.00    +0.048 A 
ATOM     16  C   LIG    1      -39.959  81.681  22.769  0.00  0.00    +0.026 A 
ATOM     17  C   LIG    1      -39.555  80.398  23.170  0.00  0.00    +0.027 A 
ATOM     18  C   LIG    1      -39.445  80.060  24.527  0.00  0.00    +0.039 A 
ATOM     19  C   LIG    1      -39.756  81.053  25.468  0.00  0.00    +0.027 A 
ATOM     20  C   LIG    1      -40.165  82.332  25.078  0.00  0.00    +0.026 A 
BRANCH  15  21
ATOM     21  N   LIG    1      -40.690  83.946  23.331  0.00  0.00    -0.221 N 
ATOM     22  H   LIG    1      -41.028  84.515  24.111  0.00  0.00    +0.173 HD
BRANCH  21  24
ATOM     23  C   LIG    1      -40.151  86.510  22.828  0.00  0.00    +0.218 C 
ATOM     24  S   LIG    1      -39.546  84.874  22.486  0.00  0.00    +0.040 S 
ATOM     25  O   LIG    1      -38.303  84.703  23.214  0.00  0.00    -0.155 OA
ATOM     26  O   LIG    1      -39.635  84.637  21.064  0.00  0.00    -0.155 OA
ENDBRANCH  21  24
ENDBRANCH  15  21
ENDBRANCH   1  18
TORSDOF 4
ENDMDL
MODEL 7
REMARK VINA RESULT:      -5.3      2.783      4.060
REMARK  Name = pdb/CHEMBL1794058.pdb
REMARK                            x       y       z     vdW  Elec       q    Type
REMARK                         _______ _______ _______ _____ _____    ______ ____
ROOT
ATOM      1  N   LIG    1      -21.776  80.615  15.489  0.00  0.00    -0.363 N 
ATOM      2  H   LIG    1      -20.823  80.980  15.509  0.00  0.00    +0.165 HD
ATOM      3  C   LIG    1      -22.766  81.563  15.562  0.00  0.00    +0.078 C 
ENDROOT
BRANCH   3   4
ATOM      4  C   LIG    1      -22.684  82.893  15.667  0.00  0.00    +0.129 C 
ATOM      5  C   LIG    1      -22.624  83.830  14.545  0.00  0.00    -0.004 A 
ATOM      6  C   LIG    1      -22.600  83.657  13.172  0.00  0.00    +0.007 A 
ATOM      7  C   LIG    1      -22.537  84.800  12.371  0.00  0.00    +0.000 A 
ATOM      8  C   LIG    1      -22.506  86.083  12.948  0.00  0.00    +0.002 A 
ATOM      9  C   LIG    1      -22.531  86.248  14.337  0.00  0.00    +0.023 A 
ATOM     10  C   LIG    1      -22.585  85.106  15.111  0.00  0.00    +0.038 A 
ATOM     11  N   LIG    1      -22.603  85.022  16.504  0.00  0.00    -0.284 N 
ATOM     12  H   LIG    1      -22.569  85.803  17.141  0.00  0.00    +0.155 HD
ATOM     13  C   LIG    1      -22.653  83.699  16.931  0.00  0.00    +0.235 C 
ATOM     14  O   LIG    1      -22.667  83.282  18.074  0.00  0.00    -0.274 OA
ENDBRANCH   3   4
BRANCH   1  18
ATOM     15  C   LIG    1      -22.138  76.417  15.116  0.00  0.00    +0.048 A 
ATOM     16  C   LIG    1      -20.886  77.023  15.104  0.00  0.00    +0.026 A 
ATOM     17  C   LIG    1      -20.783  78.416  15.239  0.00  0.00    +0.027 A 
ATOM     18  C   LIG    1      -21.925  79.222  15.362  0.00  0.00    +0.039 A 
ATOM     19  C   LIG    1      -23.173  78.581  15.347  0.00  0.00    +0.027 A 
ATOM     20  C   LIG    1      -23.285  77.194  15.219  0.00  0.00    +0.026 A 
BRANCH  15  21
ATOM     21  N   LIG    1      -22.255  75.001  14.974  0.00  0.00    -0.221 N 
ATOM     22  H   LIG    1      -21.558  74.601  14.340  0.00  0.00    +0.173 HD
BRANCH  21  24
ATOM     23  C   LIG    1      -22.613  72.478  15.766  0.00  0.00    +0.218 C 
ATOM     24  S   LIG    1      -22.217  74.088  16.406  0.00  0.00    +0.040 S 
ATOM     25  O   LIG    1      -20.825  74.071  16.812  0.00  0.00    -0.155 OA
ATOM     26  O   LIG    1      -23.269  74.497  17.308  0.00  0.00    -0.155 OA
ENDBRANCH  21  24
ENDBRANCH  15  21
ENDBRANCH   1  18
TORSDOF 4
ENDMDL
MODEL 8
REMARK VINA RESULT:      -5.1     18.471     19.614
REMARK  Name = pdb/CHEMBL1794058.pdb
REMARK                            x       y       z     vdW  Elec       q    Type
REMARK                         _______ _______ _______ _____ _____    ______ ____
ROOT
ATOM      1  N   LIG    1      -34.290  85.349  28.098  0.00  0.00    -0.363 N 
ATOM      2  H   LIG    1      -34.356  84.378  28.408  0.00  0.00    +0.165 HD
ATOM      3  C   LIG    1      -35.106  85.683  27.047  0.00  0.00    +0.078 C 
ENDROOT
BRANCH   3   4
ATOM      4  C   LIG    1      -35.969  84.936  26.350  0.00  0.00    +0.129 C 
ATOM      5  C   LIG    1      -36.752  85.395  25.203  0.00  0.00    -0.004 A 
ATOM      6  C   LIG    1      -36.865  86.618  24.566  0.00  0.00    +0.007 A 
ATOM      7  C   LIG    1      -37.730  86.709  23.472  0.00  0.00    +0.000 A 
ATOM      8  C   LIG    1      -38.455  85.586  23.034  0.00  0.00    +0.002 A 
ATOM      9  C   LIG    1      -38.334  84.352  23.684  0.00  0.00    +0.023 A 
ATOM     10  C   LIG    1      -37.481  84.286  24.767  0.00  0.00    +0.038 A 
ATOM     11  N   LIG    1      -37.213  83.180  25.574  0.00  0.00    -0.284 N 
ATOM     12  H   LIG    1      -37.625  82.264  25.472  0.00  0.00    +0.155 HD
ATOM     13  C   LIG    1      -36.302  83.493  26.578  0.00  0.00    +0.235 C 
ATOM     14  O   LIG    1      -35.870  82.763  27.450  0.00  0.00    -0.274 OA
ENDBRANCH   3   4
BRANCH   1  18
ATOM     15  C   LIG    1      -31.592  87.802  30.243  0.00  0.00    +0.048 A 
ATOM     16  C   LIG    1      -31.457  86.418  30.262  0.00  0.00    +0.026 A 
ATOM     17  C   LIG    1      -32.354  85.619  29.537  0.00  0.00    +0.027 A 
ATOM     18  C   LIG    1      -33.409  86.187  28.807  0.00  0.00    +0.039 A 
ATOM     19  C   LIG    1      -33.531  87.585  28.828  0.00  0.00    +0.027 A 
ATOM     20  C   LIG    1      -32.638  88.389  29.542  0.00  0.00    +0.026 A 
BRANCH  15  21
ATOM     21  N   LIG    1      -30.687  88.625  30.981  0.00  0.00    -0.221 N 
ATOM     22  H   LIG    1      -30.783  89.620  30.768  0.00  0.00    +0.173 HD
BRANCH  21  24
ATOM     23  C   LIG    1      -30.034  90.031  33.153  0.00  0.00    +0.218 C 
ATOM     24  S   LIG    1      -30.721  88.464  32.672  0.00  0.00    +0.040 S 
ATOM     25  O   LIG    1      -32.127  88.472  33.027  0.00  0.00    -0.155 OA
ATOM     26  O   LIG    1      -29.830  87.415  33.111  0.00  0.00    -0.155 OA
ENDBRANCH  21  24
ENDBRANCH  15  21
ENDBRANCH   1  18
TORSDOF 4
ENDMDL
MODEL 9
REMARK VINA RESULT:      -5.1     18.266     19.316
REMARK  Name = pdb/CHEMBL1794058.pdb
REMARK                            x       y       z     vdW  Elec       q    Type
REMARK                         _______ _______ _______ _____ _____    ______ ____
ROOT
ATOM      1  N   LIG    1      -35.868  87.297  26.682  0.00  0.00    -0.363 N 
ATOM      2  H   LIG    1      -36.048  88.256  26.382  0.00  0.00    +0.165 HD
ATOM      3  C   LIG    1      -36.344  86.322  25.841  0.00  0.00    +0.078 C 
ENDROOT
BRANCH   3   4
ATOM      4  C   LIG    1      -37.020  86.426  24.692  0.00  0.00    +0.129 C 
ATOM      5  C   LIG    1      -37.909  85.406  24.138  0.00  0.00    -0.004 A 
ATOM      6  C   LIG    1      -38.268  84.137  24.559  0.00  0.00    +0.007 A 
ATOM      7  C   LIG    1      -39.164  83.415  23.767  0.00  0.00    +0.000 A 
ATOM      8  C   LIG    1      -39.687  83.968  22.583  0.00  0.00    +0.002 A 
ATOM      9  C   LIG    1      -39.318  85.252  22.166  0.00  0.00    +0.023 A 
ATOM     10  C   LIG    1      -38.426  85.946  22.958  0.00  0.00    +0.038 A 
ATOM     11  N   LIG    1      -37.906  87.222  22.738  0.00  0.00    -0.284 N 
ATOM     12  H   LIG    1      -38.114  87.814  21.948  0.00  0.00    +0.155 HD
ATOM     13  C   LIG    1      -37.026  87.591  23.750  0.00  0.00    +0.235 C 
ATOM     14  O   LIG    1      -36.396  88.628  23.852  0.00  0.00    -0.274 OA
ENDBRANCH   3   4
BRANCH   1  18
ATOM     15  C   LIG    1      -33.677  86.705  30.252  0.00  0.00    +0.048 A 
ATOM     16  C   LIG    1      -33.946  85.637  29.403  0.00  0.00    +0.026 A 
ATOM     17  C   LIG    1      -34.665  85.852  28.217  0.00  0.00    +0.027 A 
ATOM     18  C   LIG    1      -35.145  87.126  27.878  0.00  0.00    +0.039 A 
ATOM     19  C   LIG    1      -34.877  88.177  28.768  0.00  0.00    +0.027 A 
ATOM     20  C   LIG    1      -34.156  87.973  29.948  0.00  0.00    +0.026 A 
BRANCH  15  21
ATOM     21  N   LIG    1      -32.949  86.496  31.464  0.00  0.00    -0.221 N 
ATOM     22  H   LIG    1      -33.466  85.945  32.153  0.00  0.00    +0.173 HD
BRANCH  21  24
ATOM     23  C   LIG    1      -30.620  86.462  32.764  0.00  0.00    +0.218 C 
ATOM     24  S   LIG    1      -31.407  85.801  31.314  0.00  0.00    +0.040 S 
ATOM     25  O   LIG    1      -31.606  84.381  31.529  0.00  0.00    -0.155 OA
ATOM     26  O   LIG    1      -30.723  86.306  30.147  0.00  0.00    -0.155 OA
ENDBRANCH  21  24
ENDBRANCH  15  21
ENDBRANCH   1  18
TORSDOF 4
ENDMDL
