MODEL 1
REMARK VINA RESULT:      -6.8      0.000      0.000
REMARK  Name = pdb/CHEMBL3671388.pdb
REMARK                            x       y       z     vdW  Elec       q    Type
REMARK                         _______ _______ _______ _____ _____    ______ ____
ROOT
ATOM      1  C   LIG    1      -39.405  72.296  24.446  0.00  0.00    +0.042 A 
ATOM      2  C   LIG    1      -38.313  73.001  24.977  0.00  0.00    +0.038 A 
ATOM      3  C   LIG    1      -38.299  74.402  24.950  0.00  0.00    +0.053 A 
ATOM      4  C   LIG    1      -39.378  75.039  24.340  0.00  0.00    +0.134 A 
ATOM      5  N   LIG    1      -40.466  74.385  23.858  0.00  0.00    -0.261 NA
ATOM      6  C   LIG    1      -40.469  73.036  23.952  0.00  0.00    +0.122 A 
ENDROOT
BRANCH   3   7
ATOM      7  N   LIG    1      -37.212  75.088  25.548  0.00  0.00    -0.279 N 
ATOM      8  H   LIG    1      -36.521  75.478  24.908  0.00  0.00    +0.155 HD
ATOM      9  C   LIG    1      -37.014  75.303  26.901  0.00  0.00    +0.267 C 
ATOM     10  O   LIG    1      -37.800  74.996  27.787  0.00  0.00    -0.268 OA
BRANCH   9  11
ATOM     11  C   LIG    1      -35.774  75.975  27.232  0.00  0.00    +0.128 A 
ATOM     12  C   LIG    1      -34.573  75.634  27.839  0.00  0.00    +0.032 A 
ATOM     13  C   LIG    1      -34.208  74.419  28.393  0.00  0.00    +0.012 A 
ATOM     14  C   LIG    1      -32.934  74.469  28.997  0.00  0.00    +0.001 A 
ATOM     15  C   LIG    1      -32.123  75.642  29.047  0.00  0.00    +0.002 A 
ATOM     16  C   LIG    1      -32.509  76.877  28.488  0.00  0.00    +0.030 A 
ATOM     17  C   LIG    1      -33.777  76.860  27.883  0.00  0.00    +0.093 A 
ATOM     18  N   LIG    1      -34.450  77.857  27.289  0.00  0.00    -0.173 NA
ATOM     19  N   LIG    1      -35.630  77.310  26.956  0.00  0.00    -0.271 N 
ATOM     20  H   LIG    1      -36.325  77.907  26.506  0.00  0.00    +0.189 HD
ENDBRANCH   9  11
ENDBRANCH   3   7
BRANCH   1  21
ATOM     21  C   LIG    1      -39.507  70.811  24.405  0.00  0.00    +0.197 C 
ATOM     22  O   LIG    1      -40.538  70.280  24.809  0.00  0.00    -0.287 OA
BRANCH  21  30
ATOM     23  N   LIG    1      -37.193  68.753  22.452  0.00  0.00    -0.329 N 
ATOM     24  C   LIG    1      -36.445  68.888  23.595  0.00  0.00    +0.145 A 
ATOM     25  N   LIG    1      -35.219  68.369  23.789  0.00  0.00    -0.218 NA
ATOM     26  C   LIG    1      -34.745  68.646  25.015  0.00  0.00    +0.223 A 
ATOM     27  N   LIG    1      -35.356  69.332  25.999  0.00  0.00    -0.243 NA
ATOM     28  C   LIG    1      -36.596  69.826  25.755  0.00  0.00    +0.124 A 
ATOM     29  C   LIG    1      -37.187  69.632  24.505  0.00  0.00    +0.048 A 
ATOM     30  C   LIG    1      -38.407  70.018  23.857  0.00  0.00    +0.051 A 
ATOM     31  C   LIG    1      -38.384  69.420  22.607  0.00  0.00    +0.100 A 
BRANCH  23  33
ATOM     32  C   LIG    1      -37.126  66.508  21.447  0.00  0.00    +0.030 C 
ATOM     33  C   LIG    1      -36.788  67.988  21.273  0.00  0.00    +0.083 C 
ATOM     34  C   LIG    1      -37.399  68.539  19.981  0.00  0.00    +0.030 C 
ENDBRANCH  23  33
ENDBRANCH  21  30
ENDBRANCH   1  21
TORSDOF 5
ENDMDL
MODEL 2
REMARK VINA RESULT:      -6.6      0.866      2.544
REMARK  Name = pdb/CHEMBL3671388.pdb
REMARK                            x       y       z     vdW  Elec       q    Type
REMARK                         _______ _______ _______ _____ _____    ______ ____
ROOT
ATOM      1  C   LIG    1      -39.426  72.845  24.237  0.00  0.00    +0.042 A 
ATOM      2  C   LIG    1      -38.287  73.466  24.772  0.00  0.00    +0.038 A 
ATOM      3  C   LIG    1      -38.266  74.855  24.961  0.00  0.00    +0.053 A 
ATOM      4  C   LIG    1      -39.390  75.571  24.555  0.00  0.00    +0.134 A 
ATOM      5  N   LIG    1      -40.522  74.993  24.076  0.00  0.00    -0.261 NA
ATOM      6  C   LIG    1      -40.525  73.645  23.960  0.00  0.00    +0.122 A 
ENDROOT
BRANCH   3   7
ATOM      7  N   LIG    1      -37.125  75.448  25.559  0.00  0.00    -0.279 N 
ATOM      8  H   LIG    1      -36.498  75.948  24.929  0.00  0.00    +0.155 HD
ATOM      9  C   LIG    1      -36.798  75.439  26.904  0.00  0.00    +0.267 C 
ATOM     10  O   LIG    1      -37.497  74.980  27.797  0.00  0.00    -0.268 OA
BRANCH   9  11
ATOM     11  C   LIG    1      -35.531  76.064  27.223  0.00  0.00    +0.128 A 
ATOM     12  C   LIG    1      -34.354  75.692  27.858  0.00  0.00    +0.032 A 
ATOM     13  C   LIG    1      -34.054  74.484  28.465  0.00  0.00    +0.012 A 
ATOM     14  C   LIG    1      -32.786  74.498  29.082  0.00  0.00    +0.001 A 
ATOM     15  C   LIG    1      -31.920  75.632  29.095  0.00  0.00    +0.002 A 
ATOM     16  C   LIG    1      -32.240  76.860  28.482  0.00  0.00    +0.030 A 
ATOM     17  C   LIG    1      -33.501  76.879  27.862  0.00  0.00    +0.093 A 
ATOM     18  N   LIG    1      -34.118  77.881  27.220  0.00  0.00    -0.173 NA
ATOM     19  N   LIG    1      -35.320  77.378  26.895  0.00  0.00    -0.271 N 
ATOM     20  H   LIG    1      -35.980  77.989  26.412  0.00  0.00    +0.189 HD
ENDBRANCH   9  11
ENDBRANCH   3   7
BRANCH   1  21
ATOM     21  C   LIG    1      -39.543  71.383  23.977  0.00  0.00    +0.197 C 
ATOM     22  O   LIG    1      -40.619  70.937  23.590  0.00  0.00    -0.287 OA
BRANCH  21  30
ATOM     23  N   LIG    1      -36.583  69.524  25.067  0.00  0.00    -0.329 N 
ATOM     24  C   LIG    1      -36.691  69.023  23.794  0.00  0.00    +0.145 A 
ATOM     25  N   LIG    1      -35.877  68.103  23.247  0.00  0.00    -0.218 NA
ATOM     26  C   LIG    1      -36.214  67.825  21.976  0.00  0.00    +0.223 A 
ATOM     27  N   LIG    1      -37.213  68.365  21.252  0.00  0.00    -0.243 NA
ATOM     28  C   LIG    1      -37.999  69.297  21.849  0.00  0.00    +0.124 A 
ATOM     29  C   LIG    1      -37.770  69.649  23.180  0.00  0.00    +0.048 A 
ATOM     30  C   LIG    1      -38.377  70.516  24.148  0.00  0.00    +0.051 A 
ATOM     31  C   LIG    1      -37.588  70.435  25.285  0.00  0.00    +0.100 A 
BRANCH  23  33
ATOM     32  C   LIG    1      -34.500  70.277  26.140  0.00  0.00    +0.030 C 
ATOM     33  C   LIG    1      -35.536  69.160  26.022  0.00  0.00    +0.083 C 
ATOM     34  C   LIG    1      -36.103  68.794  27.397  0.00  0.00    +0.030 C 
ENDBRANCH  23  33
ENDBRANCH  21  30
ENDBRANCH   1  21
TORSDOF 5
ENDMDL
MODEL 3
REMARK VINA RESULT:      -6.5      3.206      5.597
REMARK  Name = pdb/CHEMBL3671388.pdb
REMARK                            x       y       z     vdW  Elec       q    Type
REMARK                         _______ _______ _______ _____ _____    ______ ____
ROOT
ATOM      1  C   LIG    1      -36.794  68.724  24.183  0.00  0.00    +0.042 A 
ATOM      2  C   LIG    1      -37.228  70.052  24.049  0.00  0.00    +0.038 A 
ATOM      3  C   LIG    1      -36.756  71.039  24.924  0.00  0.00    +0.053 A 
ATOM      4  C   LIG    1      -35.891  70.631  25.938  0.00  0.00    +0.134 A 
ATOM      5  N   LIG    1      -35.420  69.364  26.065  0.00  0.00    -0.261 NA
ATOM      6  C   LIG    1      -35.855  68.450  25.167  0.00  0.00    +0.122 A 
ENDROOT
BRANCH   3   7
ATOM      7  N   LIG    1      -37.165  72.383  24.727  0.00  0.00    -0.279 N 
ATOM      8  H   LIG    1      -36.823  72.835  23.880  0.00  0.00    +0.155 HD
ATOM      9  C   LIG    1      -37.997  73.123  25.549  0.00  0.00    +0.267 C 
ATOM     10  O   LIG    1      -38.574  72.694  26.540  0.00  0.00    -0.268 OA
BRANCH   9  11
ATOM     11  C   LIG    1      -38.187  74.498  25.137  0.00  0.00    +0.128 A 
ATOM     12  C   LIG    1      -39.196  75.242  24.540  0.00  0.00    +0.032 A 
ATOM     13  C   LIG    1      -40.429  74.804  24.089  0.00  0.00    +0.012 A 
ATOM     14  C   LIG    1      -41.163  75.831  23.460  0.00  0.00    +0.001 A 
ATOM     15  C   LIG    1      -40.681  77.164  23.292  0.00  0.00    +0.002 A 
ATOM     16  C   LIG    1      -39.419  77.596  23.746  0.00  0.00    +0.030 A 
ATOM     17  C   LIG    1      -38.662  76.593  24.374  0.00  0.00    +0.093 A 
ATOM     18  N   LIG    1      -37.426  76.656  24.890  0.00  0.00    -0.173 NA
ATOM     19  N   LIG    1      -37.168  75.401  25.291  0.00  0.00    -0.271 N 
ATOM     20  H   LIG    1      -36.252  75.208  25.700  0.00  0.00    +0.189 HD
ENDBRANCH   9  11
ENDBRANCH   3   7
BRANCH   1  21
ATOM     21  C   LIG    1      -37.251  67.599  23.320  0.00  0.00    +0.197 C 
ATOM     22  O   LIG    1      -38.329  67.068  23.567  0.00  0.00    -0.287 OA
BRANCH  21  30
ATOM     23  N   LIG    1      -34.748  66.298  20.986  0.00  0.00    -0.329 N 
ATOM     24  C   LIG    1      -35.637  66.815  20.078  0.00  0.00    +0.145 A 
ATOM     25  N   LIG    1      -35.501  66.766  18.740  0.00  0.00    -0.218 NA
ATOM     26  C   LIG    1      -36.518  67.378  18.110  0.00  0.00    +0.223 A 
ATOM     27  N   LIG    1      -37.573  68.005  18.663  0.00  0.00    -0.243 NA
ATOM     28  C   LIG    1      -37.657  68.033  20.017  0.00  0.00    +0.124 A 
ATOM     29  C   LIG    1      -36.677  67.404  20.787  0.00  0.00    +0.048 A 
ATOM     30  C   LIG    1      -36.436  67.174  22.182  0.00  0.00    +0.051 A 
ATOM     31  C   LIG    1      -35.216  66.522  22.258  0.00  0.00    +0.100 A 
BRANCH  23  33
ATOM     32  C   LIG    1      -33.738  64.427  19.747  0.00  0.00    +0.030 C 
ATOM     33  C   LIG    1      -33.487  65.641  20.641  0.00  0.00    +0.083 C 
ATOM     34  C   LIG    1      -32.488  66.602  19.989  0.00  0.00    +0.030 C 
ENDBRANCH  23  33
ENDBRANCH  21  30
ENDBRANCH   1  21
TORSDOF 5
ENDMDL
MODEL 4
REMARK VINA RESULT:      -6.5     21.514     24.858
REMARK  Name = pdb/CHEMBL3671388.pdb
REMARK                            x       y       z     vdW  Elec       q    Type
REMARK                         _______ _______ _______ _____ _____    ______ ____
ROOT
ATOM      1  C   LIG    1      -22.601  88.141  12.073  0.00  0.00    +0.042 A 
ATOM      2  C   LIG    1      -22.722  86.864  12.641  0.00  0.00    +0.038 A 
ATOM      3  C   LIG    1      -21.785  86.422  13.586  0.00  0.00    +0.053 A 
ATOM      4  C   LIG    1      -20.728  87.279  13.886  0.00  0.00    +0.134 A 
ATOM      5  N   LIG    1      -20.610  88.536  13.386  0.00  0.00    -0.261 NA
ATOM      6  C   LIG    1      -21.564  88.949  12.519  0.00  0.00    +0.122 A 
ENDROOT
BRANCH   3   7
ATOM      7  N   LIG    1      -21.967  85.151  14.188  0.00  0.00    -0.279 N 
ATOM      8  H   LIG    1      -21.656  84.348  13.641  0.00  0.00    +0.155 HD
ATOM      9  C   LIG    1      -22.493  84.898  15.443  0.00  0.00    +0.267 C 
ATOM     10  O   LIG    1      -22.809  85.752  16.261  0.00  0.00    -0.268 OA
BRANCH   9  11
ATOM     11  C   LIG    1      -22.627  83.494  15.771  0.00  0.00    +0.128 A 
ATOM     12  C   LIG    1      -23.200  82.372  15.187  0.00  0.00    +0.032 A 
ATOM     13  C   LIG    1      -23.917  82.294  14.005  0.00  0.00    +0.012 A 
ATOM     14  C   LIG    1      -24.418  80.996  13.770  0.00  0.00    +0.001 A 
ATOM     15  C   LIG    1      -24.224  79.896  14.657  0.00  0.00    +0.002 A 
ATOM     16  C   LIG    1      -23.501  79.990  15.863  0.00  0.00    +0.030 A 
ATOM     17  C   LIG    1      -22.992  81.272  16.128  0.00  0.00    +0.093 A 
ATOM     18  N   LIG    1      -22.291  81.708  17.185  0.00  0.00    -0.173 NA
ATOM     19  N   LIG    1      -22.131  83.022  16.958  0.00  0.00    -0.271 N 
ATOM     20  H   LIG    1      -21.637  83.573  17.663  0.00  0.00    +0.189 HD
ENDBRANCH   9  11
ENDBRANCH   3   7
BRANCH   1  21
ATOM     21  C   LIG    1      -23.527  88.697  11.048  0.00  0.00    +0.197 C 
ATOM     22  O   LIG    1      -23.848  87.988  10.099  0.00  0.00    -0.287 OA
BRANCH  21  30
ATOM     23  N   LIG    1      -25.412  91.743  11.801  0.00  0.00    -0.329 N 
ATOM     24  C   LIG    1      -24.393  92.300  11.069  0.00  0.00    +0.145 A 
ATOM     25  N   LIG    1      -24.252  93.610  10.801  0.00  0.00    -0.218 NA
ATOM     26  C   LIG    1      -23.172  93.854  10.041  0.00  0.00    +0.223 A 
ATOM     27  N   LIG    1      -22.295  92.961   9.545  0.00  0.00    -0.243 NA
ATOM     28  C   LIG    1      -22.489  91.650   9.837  0.00  0.00    +0.124 A 
ATOM     29  C   LIG    1      -23.561  91.270  10.647  0.00  0.00    +0.048 A 
ATOM     30  C   LIG    1      -24.064  90.048  11.205  0.00  0.00    +0.051 A 
ATOM     31  C   LIG    1      -25.228  90.384  11.877  0.00  0.00    +0.100 A 
BRANCH  23  33
ATOM     32  C   LIG    1      -27.843  92.110  11.695  0.00  0.00    +0.030 C 
ATOM     33  C   LIG    1      -26.530  92.490  12.379  0.00  0.00    +0.083 C 
ATOM     34  C   LIG    1      -26.633  92.306  13.896  0.00  0.00    +0.030 C 
ENDBRANCH  23  33
ENDBRANCH  21  30
ENDBRANCH   1  21
TORSDOF 5
ENDMDL
MODEL 5
REMARK VINA RESULT:      -6.4      8.142     11.564
REMARK  Name = pdb/CHEMBL3671388.pdb
REMARK                            x       y       z     vdW  Elec       q    Type
REMARK                         _______ _______ _______ _____ _____    ______ ____
ROOT
ATOM      1  C   LIG    1      -31.427  75.827  31.351  0.00  0.00    +0.042 A 
ATOM      2  C   LIG    1      -30.141  76.263  30.994  0.00  0.00    +0.038 A 
ATOM      3  C   LIG    1      -29.149  76.404  31.973  0.00  0.00    +0.053 A 
ATOM      4  C   LIG    1      -29.513  76.142  33.292  0.00  0.00    +0.134 A 
ATOM      5  N   LIG    1      -30.734  75.678  33.661  0.00  0.00    -0.261 NA
ATOM      6  C   LIG    1      -31.650  75.500  32.680  0.00  0.00    +0.122 A 
ENDROOT
BRANCH   3   7
ATOM      7  N   LIG    1      -27.843  76.788  31.575  0.00  0.00    -0.279 N 
ATOM      8  H   LIG    1      -27.735  77.753  31.264  0.00  0.00    +0.155 HD
ATOM      9  C   LIG    1      -26.708  75.997  31.594  0.00  0.00    +0.267 C 
ATOM     10  O   LIG    1      -26.648  74.858  32.038  0.00  0.00    -0.268 OA
BRANCH   9  11
ATOM     11  C   LIG    1      -25.520  76.631  31.061  0.00  0.00    +0.128 A 
ATOM     12  C   LIG    1      -24.182  76.295  30.902  0.00  0.00    +0.032 A 
ATOM     13  C   LIG    1      -23.539  75.133  31.294  0.00  0.00    +0.012 A 
ATOM     14  C   LIG    1      -22.152  75.180  31.041  0.00  0.00    +0.001 A 
ATOM     15  C   LIG    1      -21.486  76.302  30.464  0.00  0.00    +0.002 A 
ATOM     16  C   LIG    1      -22.149  77.484  30.079  0.00  0.00    +0.030 A 
ATOM     17  C   LIG    1      -23.533  77.470  30.322  0.00  0.00    +0.093 A 
ATOM     18  N   LIG    1      -24.445  78.428  30.103  0.00  0.00    -0.173 NA
ATOM     19  N   LIG    1      -25.589  77.914  30.585  0.00  0.00    -0.271 N 
ATOM     20  H   LIG    1      -26.428  78.494  30.545  0.00  0.00    +0.189 HD
ENDBRANCH   9  11
ENDBRANCH   3   7
BRANCH   1  21
ATOM     21  C   LIG    1      -32.556  75.665  30.392  0.00  0.00    +0.197 C 
ATOM     22  O   LIG    1      -33.027  74.545  30.221  0.00  0.00    -0.287 OA
BRANCH  21  30
ATOM     23  N   LIG    1      -34.375  78.632  29.255  0.00  0.00    -0.329 N 
ATOM     24  C   LIG    1      -33.543  78.466  28.176  0.00  0.00    +0.145 A 
ATOM     25  N   LIG    1      -33.510  79.259  27.090  0.00  0.00    -0.218 NA
ATOM     26  C   LIG    1      -32.610  78.835  26.187  0.00  0.00    +0.223 A 
ATOM     27  N   LIG    1      -31.814  77.752  26.263  0.00  0.00    -0.243 NA
ATOM     28  C   LIG    1      -31.894  76.981  27.376  0.00  0.00    +0.124 A 
ATOM     29  C   LIG    1      -32.770  77.334  28.405  0.00  0.00    +0.048 A 
ATOM     30  C   LIG    1      -33.105  76.835  29.707  0.00  0.00    +0.051 A 
ATOM     31  C   LIG    1      -34.126  77.645  30.177  0.00  0.00    +0.100 A 
BRANCH  23  33
ATOM     32  C   LIG    1      -36.621  79.160  30.113  0.00  0.00    +0.030 C 
ATOM     33  C   LIG    1      -35.387  79.682  29.378  0.00  0.00    +0.083 C 
ATOM     34  C   LIG    1      -34.841  80.942  30.056  0.00  0.00    +0.030 C 
ENDBRANCH  23  33
ENDBRANCH  21  30
ENDBRANCH   1  21
TORSDOF 5
ENDMDL
MODEL 6
REMARK VINA RESULT:      -6.4      3.785      6.275
REMARK  Name = pdb/CHEMBL3671388.pdb
REMARK                            x       y       z     vdW  Elec       q    Type
REMARK                         _______ _______ _______ _____ _____    ______ ____
ROOT
ATOM      1  C   LIG    1      -36.959  68.178  23.070  0.00  0.00    +0.042 A 
ATOM      2  C   LIG    1      -37.224  69.553  23.172  0.00  0.00    +0.038 A 
ATOM      3  C   LIG    1      -38.452  69.998  23.682  0.00  0.00    +0.053 A 
ATOM      4  C   LIG    1      -39.388  69.025  24.028  0.00  0.00    +0.134 A 
ATOM      5  N   LIG    1      -39.143  67.691  23.982  0.00  0.00    -0.261 NA
ATOM      6  C   LIG    1      -37.927  67.300  23.536  0.00  0.00    +0.122 A 
ENDROOT
BRANCH   3   7
ATOM      7  N   LIG    1      -38.667  71.391  23.831  0.00  0.00    -0.279 N 
ATOM      8  H   LIG    1      -39.063  71.872  23.023  0.00  0.00    +0.155 HD
ATOM      9  C   LIG    1      -38.423  72.150  24.962  0.00  0.00    +0.267 C 
ATOM     10  O   LIG    1      -38.055  71.708  26.043  0.00  0.00    -0.268 OA
BRANCH   9  11
ATOM     11  C   LIG    1      -38.671  73.568  24.805  0.00  0.00    +0.128 A 
ATOM     12  C   LIG    1      -39.708  74.365  24.340  0.00  0.00    +0.032 A 
ATOM     13  C   LIG    1      -40.919  73.966  23.801  0.00  0.00    +0.012 A 
ATOM     14  C   LIG    1      -41.693  75.060  23.360  0.00  0.00    +0.001 A 
ATOM     15  C   LIG    1      -41.269  76.419  23.443  0.00  0.00    +0.002 A 
ATOM     16  C   LIG    1      -40.029  76.813  23.985  0.00  0.00    +0.030 A 
ATOM     17  C   LIG    1      -39.233  75.745  24.430  0.00  0.00    +0.093 A 
ATOM     18  N   LIG    1      -38.003  75.765  24.965  0.00  0.00    -0.173 NA
ATOM     19  N   LIG    1      -37.693  74.470  25.134  0.00  0.00    -0.271 N 
ATOM     20  H   LIG    1      -36.772  74.244  25.513  0.00  0.00    +0.189 HD
ENDBRANCH   9  11
ENDBRANCH   3   7
BRANCH   1  21
ATOM     21  C   LIG    1      -35.699  67.603  22.523  0.00  0.00    +0.197 C 
ATOM     22  O   LIG    1      -34.635  67.897  23.060  0.00  0.00    -0.287 OA
BRANCH  21  30
ATOM     23  N   LIG    1      -35.424  64.855  20.120  0.00  0.00    -0.329 N 
ATOM     24  C   LIG    1      -36.134  65.741  19.349  0.00  0.00    +0.145 A 
ATOM     25  N   LIG    1      -36.554  65.516  18.091  0.00  0.00    -0.218 NA
ATOM     26  C   LIG    1      -37.204  66.576  17.581  0.00  0.00    +0.223 A 
ATOM     27  N   LIG    1      -37.436  67.763  18.173  0.00  0.00    -0.243 NA
ATOM     28  C   LIG    1      -36.982  67.941  19.439  0.00  0.00    +0.124 A 
ATOM     29  C   LIG    1      -36.318  66.901  20.092  0.00  0.00    +0.048 A 
ATOM     30  C   LIG    1      -35.750  66.679  21.390  0.00  0.00    +0.051 A 
ATOM     31  C   LIG    1      -35.177  65.418  21.348  0.00  0.00    +0.100 A 
BRANCH  23  33
ATOM     32  C   LIG    1      -33.578  63.610  19.071  0.00  0.00    +0.030 C 
ATOM     33  C   LIG    1      -34.978  63.533  19.678  0.00  0.00    +0.083 C 
ATOM     34  C   LIG    1      -35.028  62.495  20.803  0.00  0.00    +0.030 C 
ENDBRANCH  23  33
ENDBRANCH  21  30
ENDBRANCH   1  21
TORSDOF 5
ENDMDL
MODEL 7
REMARK VINA RESULT:      -6.3     18.020     19.641
REMARK  Name = pdb/CHEMBL3671388.pdb
REMARK                            x       y       z     vdW  Elec       q    Type
REMARK                         _______ _______ _______ _____ _____    ______ ____
ROOT
ATOM      1  C   LIG    1      -24.288  79.652  15.232  0.00  0.00    +0.042 A 
ATOM      2  C   LIG    1      -24.138  81.047  15.249  0.00  0.00    +0.038 A 
ATOM      3  C   LIG    1      -22.871  81.618  15.433  0.00  0.00    +0.053 A 
ATOM      4  C   LIG    1      -21.804  80.747  15.640  0.00  0.00    +0.134 A 
ATOM      5  N   LIG    1      -21.911  79.394  15.584  0.00  0.00    -0.261 NA
ATOM      6  C   LIG    1      -23.141  78.881  15.349  0.00  0.00    +0.122 A 
ENDROOT
BRANCH   3   7
ATOM      7  N   LIG    1      -22.742  83.029  15.385  0.00  0.00    -0.279 N 
ATOM      8  H   LIG    1      -22.861  83.520  16.271  0.00  0.00    +0.155 HD
ATOM      9  C   LIG    1      -22.445  83.795  14.271  0.00  0.00    +0.267 C 
ATOM     10  O   LIG    1      -22.168  83.353  13.164  0.00  0.00    -0.268 OA
BRANCH   9  11
ATOM     11  C   LIG    1      -22.446  85.225  14.502  0.00  0.00    +0.128 A 
ATOM     12  C   LIG    1      -22.714  86.366  13.758  0.00  0.00    +0.032 A 
ATOM     13  C   LIG    1      -23.059  86.455  12.420  0.00  0.00    +0.012 A 
ATOM     14  C   LIG    1      -23.174  87.792  11.986  0.00  0.00    +0.001 A 
ATOM     15  C   LIG    1      -22.945  88.923  12.825  0.00  0.00    +0.002 A 
ATOM     16  C   LIG    1      -22.584  88.821  14.184  0.00  0.00    +0.030 A 
ATOM     17  C   LIG    1      -22.457  87.500  14.645  0.00  0.00    +0.093 A 
ATOM     18  N   LIG    1      -22.106  87.052  15.860  0.00  0.00    -0.173 NA
ATOM     19  N   LIG    1      -22.072  85.717  15.725  0.00  0.00    -0.271 N 
ATOM     20  H   LIG    1      -21.798  85.161  16.537  0.00  0.00    +0.189 HD
ENDBRANCH   9  11
ENDBRANCH   3   7
BRANCH   1  21
ATOM     21  C   LIG    1      -25.589  78.948  15.066  0.00  0.00    +0.197 C 
ATOM     22  O   LIG    1      -26.243  78.674  16.068  0.00  0.00    -0.287 OA
BRANCH  21  30
ATOM     23  N   LIG    1      -26.517  78.793  11.528  0.00  0.00    -0.329 N 
ATOM     24  C   LIG    1      -27.113  77.632  11.954  0.00  0.00    +0.145 A 
ATOM     25  N   LIG    1      -27.795  76.775  11.174  0.00  0.00    -0.218 NA
ATOM     26  C   LIG    1      -28.286  75.740  11.876  0.00  0.00    +0.223 A 
ATOM     27  N   LIG    1      -28.177  75.515  13.199  0.00  0.00    -0.243 NA
ATOM     28  C   LIG    1      -27.486  76.416  13.942  0.00  0.00    +0.124 A 
ATOM     29  C   LIG    1      -26.898  77.522  13.323  0.00  0.00    +0.048 A 
ATOM     30  C   LIG    1      -26.082  78.631  13.726  0.00  0.00    +0.051 A 
ATOM     31  C   LIG    1      -25.904  79.408  12.592  0.00  0.00    +0.100 A 
BRANCH  23  33
ATOM     32  C   LIG    1      -27.770  80.214   9.958  0.00  0.00    +0.030 C 
ATOM     33  C   LIG    1      -26.561  79.300  10.156  0.00  0.00    +0.083 C 
ATOM     34  C   LIG    1      -25.267  80.013   9.755  0.00  0.00    +0.030 C 
ENDBRANCH  23  33
ENDBRANCH  21  30
ENDBRANCH   1  21
TORSDOF 5
ENDMDL
MODEL 8
REMARK VINA RESULT:      -6.2      3.207      5.232
REMARK  Name = pdb/CHEMBL3671388.pdb
REMARK                            x       y       z     vdW  Elec       q    Type
REMARK                         _______ _______ _______ _____ _____    ______ ____
ROOT
ATOM      1  C   LIG    1      -37.031  68.722  24.381  0.00  0.00    +0.042 A 
ATOM      2  C   LIG    1      -37.450  70.054  24.234  0.00  0.00    +0.038 A 
ATOM      3  C   LIG    1      -36.799  71.078  24.935  0.00  0.00    +0.053 A 
ATOM      4  C   LIG    1      -35.771  70.706  25.799  0.00  0.00    +0.134 A 
ATOM      5  N   LIG    1      -35.316  69.433  25.927  0.00  0.00    -0.261 NA
ATOM      6  C   LIG    1      -35.933  68.479  25.192  0.00  0.00    +0.122 A 
ENDROOT
BRANCH   3   7
ATOM      7  N   LIG    1      -37.204  72.420  24.721  0.00  0.00    -0.279 N 
ATOM      8  H   LIG    1      -36.882  72.852  23.855  0.00  0.00    +0.155 HD
ATOM      9  C   LIG    1      -38.009  73.183  25.549  0.00  0.00    +0.267 C 
ATOM     10  O   LIG    1      -38.562  72.779  26.563  0.00  0.00    -0.268 OA
BRANCH   9  11
ATOM     11  C   LIG    1      -38.201  74.550  25.113  0.00  0.00    +0.128 A 
ATOM     12  C   LIG    1      -39.220  75.289  24.527  0.00  0.00    +0.032 A 
ATOM     13  C   LIG    1      -40.468  74.850  24.118  0.00  0.00    +0.012 A 
ATOM     14  C   LIG    1      -41.211  75.870  23.487  0.00  0.00    +0.001 A 
ATOM     15  C   LIG    1      -40.726  77.195  23.278  0.00  0.00    +0.002 A 
ATOM     16  C   LIG    1      -39.449  77.628  23.690  0.00  0.00    +0.030 A 
ATOM     17  C   LIG    1      -38.682  76.632  24.319  0.00  0.00    +0.093 A 
ATOM     18  N   LIG    1      -37.433  76.698  24.801  0.00  0.00    -0.173 NA
ATOM     19  N   LIG    1      -37.172  75.450  25.221  0.00  0.00    -0.271 N 
ATOM     20  H   LIG    1      -36.247  75.259  25.610  0.00  0.00    +0.189 HD
ENDBRANCH   9  11
ENDBRANCH   3   7
BRANCH   1  21
ATOM     21  C   LIG    1      -37.668  67.561  23.700  0.00  0.00    +0.197 C 
ATOM     22  O   LIG    1      -38.536  66.931  24.298  0.00  0.00    -0.287 OA
BRANCH  21  30
ATOM     23  N   LIG    1      -37.427  66.670  20.157  0.00  0.00    -0.329 N 
ATOM     24  C   LIG    1      -36.089  66.687  20.464  0.00  0.00    +0.145 A 
ATOM     25  N   LIG    1      -35.088  66.441  19.599  0.00  0.00    -0.218 NA
ATOM     26  C   LIG    1      -33.885  66.505  20.192  0.00  0.00    +0.223 A 
ATOM     27  N   LIG    1      -33.617  66.756  21.487  0.00  0.00    -0.243 NA
ATOM     28  C   LIG    1      -34.663  66.988  22.320  0.00  0.00    +0.124 A 
ATOM     29  C   LIG    1      -35.965  66.981  21.817  0.00  0.00    +0.048 A 
ATOM     30  C   LIG    1      -37.283  67.216  22.332  0.00  0.00    +0.051 A 
ATOM     31  C   LIG    1      -38.155  66.975  21.281  0.00  0.00    +0.100 A 
BRANCH  23  33
ATOM     32  C   LIG    1      -37.350  67.225  17.761  0.00  0.00    +0.030 C 
ATOM     33  C   LIG    1      -37.978  66.345  18.842  0.00  0.00    +0.083 C 
ATOM     34  C   LIG    1      -37.826  64.862  18.494  0.00  0.00    +0.030 C 
ENDBRANCH  23  33
ENDBRANCH  21  30
ENDBRANCH   1  21
TORSDOF 5
ENDMDL
MODEL 9
REMARK VINA RESULT:      -6.2     18.401     21.473
REMARK  Name = pdb/CHEMBL3671388.pdb
REMARK                            x       y       z     vdW  Elec       q    Type
REMARK                         _______ _______ _______ _____ _____    ______ ____
ROOT
ATOM      1  C   LIG    1      -22.776  82.350  15.762  0.00  0.00    +0.042 A 
ATOM      2  C   LIG    1      -23.718  81.617  15.025  0.00  0.00    +0.038 A 
ATOM      3  C   LIG    1      -23.687  80.215  15.037  0.00  0.00    +0.053 A 
ATOM      4  C   LIG    1      -22.665  79.607  15.764  0.00  0.00    +0.134 A 
ATOM      5  N   LIG    1      -21.767  80.289  16.521  0.00  0.00    -0.261 NA
ATOM      6  C   LIG    1      -21.864  81.639  16.529  0.00  0.00    +0.122 A 
ENDROOT
BRANCH   3   7
ATOM      7  N   LIG    1      -24.689  79.501  14.333  0.00  0.00    -0.279 N 
ATOM      8  H   LIG    1      -24.571  79.445  13.321  0.00  0.00    +0.155 HD
ATOM      9  C   LIG    1      -25.783  78.855  14.880  0.00  0.00    +0.267 C 
ATOM     10  O   LIG    1      -26.007  78.736  16.077  0.00  0.00    -0.268 OA
BRANCH   9  11
ATOM     11  C   LIG    1      -26.684  78.265  13.912  0.00  0.00    +0.128 A 
ATOM     12  C   LIG    1      -27.042  78.502  12.591  0.00  0.00    +0.032 A 
ATOM     13  C   LIG    1      -26.604  79.515  11.755  0.00  0.00    +0.012 A 
ATOM     14  C   LIG    1      -27.250  79.487  10.501  0.00  0.00    +0.001 A 
ATOM     15  C   LIG    1      -28.252  78.536  10.143  0.00  0.00    +0.002 A 
ATOM     16  C   LIG    1      -28.697  77.516  11.007  0.00  0.00    +0.030 A 
ATOM     17  C   LIG    1      -28.075  77.520  12.267  0.00  0.00    +0.093 A 
ATOM     18  N   LIG    1      -28.280  76.715  13.320  0.00  0.00    -0.173 NA
ATOM     19  N   LIG    1      -27.477  77.208  14.276  0.00  0.00    -0.271 N 
ATOM     20  H   LIG    1      -27.490  76.756  15.192  0.00  0.00    +0.189 HD
ENDBRANCH   9  11
ENDBRANCH   3   7
BRANCH   1  21
ATOM     21  C   LIG    1      -22.709  83.837  15.799  0.00  0.00    +0.197 C 
ATOM     22  O   LIG    1      -23.013  84.415  16.838  0.00  0.00    -0.287 OA
BRANCH  21  30
ATOM     23  N   LIG    1      -22.193  86.057  12.934  0.00  0.00    -0.329 N 
ATOM     24  C   LIG    1      -21.062  85.289  12.814  0.00  0.00    +0.145 A 
ATOM     25  N   LIG    1      -20.116  85.439  11.870  0.00  0.00    -0.218 NA
ATOM     26  C   LIG    1      -19.138  84.525  11.989  0.00  0.00    +0.223 A 
ATOM     27  N   LIG    1      -19.044  83.533  12.896  0.00  0.00    -0.243 NA
ATOM     28  C   LIG    1      -20.030  83.421  13.820  0.00  0.00    +0.124 A 
ATOM     29  C   LIG    1      -21.088  84.332  13.821  0.00  0.00    +0.048 A 
ATOM     30  C   LIG    1      -22.253  84.577  14.622  0.00  0.00    +0.051 A 
ATOM     31  C   LIG    1      -22.923  85.626  14.014  0.00  0.00    +0.100 A 
BRANCH  23  33
ATOM     32  C   LIG    1      -23.967  86.914  11.458  0.00  0.00    +0.030 C 
ATOM     33  C   LIG    1      -22.566  87.143  12.027  0.00  0.00    +0.083 C 
ATOM     34  C   LIG    1      -22.466  88.519  12.691  0.00  0.00    +0.030 C 
ENDBRANCH  23  33
ENDBRANCH  21  30
ENDBRANCH   1  21
TORSDOF 5
ENDMDL
