MODEL 1
REMARK VINA RESULT:      -6.5      0.000      0.000
REMARK  Name = pdb/CHEMBL3940552.pdb
REMARK                            x       y       z     vdW  Elec       q    Type
REMARK                         _______ _______ _______ _____ _____    ______ ____
ROOT
ATOM      1  C   LIG    1      -37.627  70.330  24.886  0.00  0.00    +0.149 A 
ATOM      2  N   LIG    1      -37.169  69.247  25.530  0.00  0.00    -0.160 NA
ATOM      3  N   LIG    1      -36.017  69.635  26.141  0.00  0.00    -0.218 N 
ATOM      4  C   LIG    1      -35.778  71.012  25.961  0.00  0.00    +0.129 A 
ATOM      5  C   LIG    1      -36.804  71.446  25.150  0.00  0.00    +0.078 A 
ENDROOT
BRANCH   3   6
ATOM      6  C   LIG    1      -35.280  68.670  26.895  0.00  0.00    +0.067 A 
ATOM      7  C   LIG    1      -35.142  68.748  28.285  0.00  0.00    +0.028 A 
ATOM      8  C   LIG    1      -34.398  67.786  28.978  0.00  0.00    +0.002 A 
ATOM      9  C   LIG    1      -33.773  66.750  28.290  0.00  0.00    +0.000 A 
ATOM     10  C   LIG    1      -33.900  66.663  26.907  0.00  0.00    +0.002 A 
ATOM     11  C   LIG    1      -34.643  67.619  26.210  0.00  0.00    +0.028 A 
ENDBRANCH   3   6
BRANCH   4  12
ATOM     12  N   LIG    1      -34.767  71.806  26.515  0.00  0.00    -0.266 N 
ATOM     13  H   LIG    1      -33.865  71.831  26.070  0.00  0.00    +0.157 HD
ATOM     14  C   LIG    1      -34.907  72.485  27.775  0.00  0.00    +0.251 C 
ATOM     15  O   LIG    1      -35.915  72.376  28.441  0.00  0.00    -0.270 OA
BRANCH  14  16
ATOM     16  C   LIG    1      -33.790  73.329  28.269  0.00  0.00    +0.056 A 
ATOM     17  C   LIG    1      -32.725  72.873  29.036  0.00  0.00    +0.054 A 
ATOM     18 CL   LIG    1      -32.483  71.214  29.436  0.00  0.00    -0.083 Cl
ATOM     19  C   LIG    1      -31.812  73.792  29.555  0.00  0.00    +0.041 A 
ATOM     20  C   LIG    1      -31.950  75.170  29.309  0.00  0.00    +0.052 A 
ATOM     21 CL   LIG    1      -30.814  76.175  30.151  0.00  0.00    -0.083 Cl
ATOM     22  C   LIG    1      -32.981  75.670  28.485  0.00  0.00    +0.022 A 
ATOM     23  C   LIG    1      -33.893  74.710  27.987  0.00  0.00    +0.026 A 
BRANCH  22  24
ATOM     24  C   LIG    1      -33.132  77.105  28.114  0.00  0.00    +0.107 A 
ATOM     25  C   LIG    1      -32.432  77.729  27.075  0.00  0.00    +0.149 A 
ATOM     26  F   LIG    1      -31.569  77.057  26.300  0.00  0.00    -0.203 F 
ATOM     27  C   LIG    1      -32.621  79.085  26.819  0.00  0.00    +0.042 A 
ATOM     28  C   LIG    1      -33.527  79.801  27.588  0.00  0.00    +0.023 A 
ATOM     29  C   LIG    1      -34.183  79.130  28.602  0.00  0.00    +0.111 A 
ATOM     30  N   LIG    1      -33.979  77.824  28.893  0.00  0.00    -0.252 NA
ENDBRANCH  22  24
ENDBRANCH  14  16
ENDBRANCH   4  12
BRANCH   1  32
ATOM     31  N   LIG    1      -39.739  71.211  24.221  0.00  0.00    -0.249 NA
ATOM     32  C   LIG    1      -38.833  70.317  24.052  0.00  0.00    +0.236 C 
BRANCH  32  33
ATOM     33  O   LIG    1      -38.904  69.313  23.156  0.00  0.00    -0.491 OA
ATOM     34  H   LIG    1      -38.033  69.077  22.817  0.00  0.00    +0.294 HD
ENDBRANCH  32  33
BRANCH  31  35
ATOM     35  C   LIG    1      -40.930  71.253  23.371  0.00  0.00    +0.151 C 
BRANCH  35  37
ATOM     36  C   LIG    1      -40.678  73.750  23.709  0.00  0.00    +0.012 C 
ATOM     37  C   LIG    1      -41.684  72.595  23.568  0.00  0.00    -0.018 C 
ATOM     38  C   LIG    1      -42.579  72.872  22.343  0.00  0.00    +0.012 C 
ATOM     39  C   LIG    1      -42.571  72.543  24.824  0.00  0.00    +0.012 C 
ENDBRANCH  35  37
ENDBRANCH  31  35
ENDBRANCH   1  32
TORSDOF 8
ENDMDL
MODEL 2
REMARK VINA RESULT:      -6.3      4.073      9.443
REMARK  Name = pdb/CHEMBL3940552.pdb
REMARK                            x       y       z     vdW  Elec       q    Type
REMARK                         _______ _______ _______ _____ _____    ______ ____
ROOT
ATOM      1  C   LIG    1      -31.598  74.291  29.778  0.00  0.00    +0.149 A 
ATOM      2  N   LIG    1      -31.663  75.619  29.603  0.00  0.00    -0.160 NA
ATOM      3  N   LIG    1      -32.663  75.829  28.704  0.00  0.00    -0.218 N 
ATOM      4  C   LIG    1      -33.310  74.625  28.365  0.00  0.00    +0.129 A 
ATOM      5  C   LIG    1      -32.617  73.647  29.046  0.00  0.00    +0.078 A 
ENDROOT
BRANCH   3   6
ATOM      6  C   LIG    1      -32.953  77.168  28.298  0.00  0.00    +0.067 A 
ATOM      7  C   LIG    1      -33.920  77.954  28.935  0.00  0.00    +0.028 A 
ATOM      8  C   LIG    1      -34.177  79.256  28.492  0.00  0.00    +0.002 A 
ATOM      9  C   LIG    1      -33.487  79.779  27.402  0.00  0.00    +0.000 A 
ATOM     10  C   LIG    1      -32.525  79.006  26.758  0.00  0.00    +0.002 A 
ATOM     11  C   LIG    1      -32.262  77.706  27.197  0.00  0.00    +0.028 A 
ENDBRANCH   3   6
BRANCH   4  12
ATOM     12  N   LIG    1      -34.443  74.432  27.565  0.00  0.00    -0.266 N 
ATOM     13  H   LIG    1      -34.323  74.243  26.584  0.00  0.00    +0.157 HD
ATOM     14  C   LIG    1      -35.783  74.631  28.045  0.00  0.00    +0.251 C 
ATOM     15  O   LIG    1      -35.998  75.007  29.178  0.00  0.00    -0.270 OA
BRANCH  14  16
ATOM     16  C   LIG    1      -36.924  74.374  27.130  0.00  0.00    +0.056 A 
ATOM     17  C   LIG    1      -37.335  73.117  26.703  0.00  0.00    +0.054 A 
ATOM     18 CL   LIG    1      -36.642  71.645  27.270  0.00  0.00    -0.083 Cl
ATOM     19  C   LIG    1      -38.335  73.018  25.733  0.00  0.00    +0.041 A 
ATOM     20  C   LIG    1      -38.934  74.167  25.188  0.00  0.00    +0.052 A 
ATOM     21 CL   LIG    1      -40.047  73.860  23.893  0.00  0.00    -0.083 Cl
ATOM     22  C   LIG    1      -38.590  75.460  25.638  0.00  0.00    +0.022 A 
ATOM     23  C   LIG    1      -37.566  75.522  26.612  0.00  0.00    +0.026 A 
BRANCH  22  24
ATOM     24  C   LIG    1      -39.247  76.711  25.166  0.00  0.00    +0.107 A 
ATOM     25  C   LIG    1      -38.757  77.518  24.133  0.00  0.00    +0.149 A 
ATOM     26  F   LIG    1      -37.643  77.202  23.456  0.00  0.00    -0.203 F 
ATOM     27  C   LIG    1      -39.427  78.686  23.778  0.00  0.00    +0.042 A 
ATOM     28  C   LIG    1      -40.597  79.025  24.442  0.00  0.00    +0.023 A 
ATOM     29  C   LIG    1      -41.027  78.191  25.457  0.00  0.00    +0.111 A 
ATOM     30  N   LIG    1      -40.364  77.076  25.845  0.00  0.00    -0.252 NA
ENDBRANCH  22  24
ENDBRANCH  14  16
ENDBRANCH   4  12
BRANCH   1  32
ATOM     31  N   LIG    1      -30.166  72.474  30.345  0.00  0.00    -0.249 NA
ATOM     32  C   LIG    1      -30.603  73.645  30.639  0.00  0.00    +0.236 C 
BRANCH  32  33
ATOM     33  O   LIG    1      -30.229  74.353  31.723  0.00  0.00    -0.491 OA
ATOM     34  H   LIG    1      -30.564  75.256  31.690  0.00  0.00    +0.294 HD
ENDBRANCH  32  33
BRANCH  31  35
ATOM     35  C   LIG    1      -29.135  71.823  31.157  0.00  0.00    +0.151 C 
BRANCH  35  37
ATOM     36  C   LIG    1      -28.114  69.525  30.863  0.00  0.00    +0.012 C 
ATOM     37  C   LIG    1      -29.394  70.294  31.230  0.00  0.00    -0.018 C 
ATOM     38  C   LIG    1      -29.805  69.905  32.665  0.00  0.00    +0.012 C 
ATOM     39  C   LIG    1      -30.521  69.885  30.266  0.00  0.00    +0.012 C 
ENDBRANCH  35  37
ENDBRANCH  31  35
ENDBRANCH   1  32
TORSDOF 8
ENDMDL
MODEL 3
REMARK VINA RESULT:      -6.3      4.253      9.917
REMARK  Name = pdb/CHEMBL3940552.pdb
REMARK                            x       y       z     vdW  Elec       q    Type
REMARK                         _______ _______ _______ _____ _____    ______ ____
ROOT
ATOM      1  C   LIG    1      -31.552  74.417  29.846  0.00  0.00    +0.149 A 
ATOM      2  N   LIG    1      -31.633  75.736  29.621  0.00  0.00    -0.160 NA
ATOM      3  N   LIG    1      -32.628  75.899  28.707  0.00  0.00    -0.218 N 
ATOM      4  C   LIG    1      -33.256  74.674  28.407  0.00  0.00    +0.129 A 
ATOM      5  C   LIG    1      -32.556  73.731  29.130  0.00  0.00    +0.078 A 
ENDROOT
BRANCH   3   6
ATOM      6  C   LIG    1      -32.931  77.218  28.249  0.00  0.00    +0.067 A 
ATOM      7  C   LIG    1      -32.300  77.792  27.140  0.00  0.00    +0.028 A 
ATOM      8  C   LIG    1      -32.621  79.093  26.737  0.00  0.00    +0.002 A 
ATOM      9  C   LIG    1      -33.560  79.838  27.446  0.00  0.00    +0.000 A 
ATOM     10  C   LIG    1      -34.193  79.280  28.553  0.00  0.00    +0.002 A 
ATOM     11  C   LIG    1      -33.878  77.980  28.958  0.00  0.00    +0.028 A 
ENDBRANCH   3   6
BRANCH   4  12
ATOM     12  N   LIG    1      -34.379  74.437  27.605  0.00  0.00    -0.266 N 
ATOM     13  H   LIG    1      -34.247  74.195  26.637  0.00  0.00    +0.157 HD
ATOM     14  C   LIG    1      -35.725  74.658  28.058  0.00  0.00    +0.251 C 
ATOM     15  O   LIG    1      -35.953  75.095  29.167  0.00  0.00    -0.270 OA
BRANCH  14  16
ATOM     16  C   LIG    1      -36.855  74.351  27.145  0.00  0.00    +0.056 A 
ATOM     17  C   LIG    1      -37.236  73.074  26.751  0.00  0.00    +0.054 A 
ATOM     18 CL   LIG    1      -36.513  71.634  27.364  0.00  0.00    -0.083 Cl
ATOM     19  C   LIG    1      -38.227  72.925  25.780  0.00  0.00    +0.041 A 
ATOM     20  C   LIG    1      -38.849  74.045  25.199  0.00  0.00    +0.052 A 
ATOM     21 CL   LIG    1      -39.947  73.677  23.908  0.00  0.00    -0.083 Cl
ATOM     22  C   LIG    1      -38.535  75.357  25.614  0.00  0.00    +0.022 A 
ATOM     23  C   LIG    1      -37.518  75.469  26.591  0.00  0.00    +0.026 A 
BRANCH  22  24
ATOM     24  C   LIG    1      -39.216  76.579  25.103  0.00  0.00    +0.107 A 
ATOM     25  C   LIG    1      -38.700  77.412  24.104  0.00  0.00    +0.149 A 
ATOM     26  F   LIG    1      -37.533  77.148  23.498  0.00  0.00    -0.203 F 
ATOM     27  C   LIG    1      -39.398  78.549  23.709  0.00  0.00    +0.042 A 
ATOM     28  C   LIG    1      -40.622  78.834  24.299  0.00  0.00    +0.023 A 
ATOM     29  C   LIG    1      -41.076  77.977  25.284  0.00  0.00    +0.111 A 
ATOM     30  N   LIG    1      -40.389  76.892  25.711  0.00  0.00    -0.252 NA
ENDBRANCH  22  24
ENDBRANCH  14  16
ENDBRANCH   4  12
BRANCH   1  32
ATOM     31  N   LIG    1      -30.178  74.445  31.792  0.00  0.00    -0.249 NA
ATOM     32  C   LIG    1      -30.556  73.816  30.738  0.00  0.00    +0.236 C 
BRANCH  32  33
ATOM     33  O   LIG    1      -30.084  72.614  30.352  0.00  0.00    -0.491 OA
ATOM     34  H   LIG    1      -30.754  71.926  30.439  0.00  0.00    +0.294 HD
ENDBRANCH  32  33
BRANCH  31  35
ATOM     35  C   LIG    1      -29.222  73.849  32.729  0.00  0.00    +0.151 C 
BRANCH  35  37
ATOM     36  C   LIG    1      -27.448  74.904  34.195  0.00  0.00    +0.012 C 
ATOM     37  C   LIG    1      -27.904  74.669  32.746  0.00  0.00    -0.018 C 
ATOM     38  C   LIG    1      -26.799  73.889  32.005  0.00  0.00    +0.012 C 
ATOM     39  C   LIG    1      -28.098  76.028  32.052  0.00  0.00    +0.012 C 
ENDBRANCH  35  37
ENDBRANCH  31  35
ENDBRANCH   1  32
TORSDOF 8
ENDMDL
MODEL 4
REMARK VINA RESULT:      -6.3      8.327     15.952
REMARK  Name = pdb/CHEMBL3940552.pdb
REMARK                            x       y       z     vdW  Elec       q    Type
REMARK                         _______ _______ _______ _____ _____    ______ ____
ROOT
ATOM      1  C   LIG    1      -31.415  87.049  30.661  0.00  0.00    +0.149 A 
ATOM      2  N   LIG    1      -32.448  87.870  30.427  0.00  0.00    -0.160 NA
ATOM      3  N   LIG    1      -33.363  87.133  29.739  0.00  0.00    -0.218 N 
ATOM      4  C   LIG    1      -32.950  85.793  29.609  0.00  0.00    +0.129 A 
ATOM      5  C   LIG    1      -31.701  85.749  30.189  0.00  0.00    +0.078 A 
ENDROOT
BRANCH   3   6
ATOM      6  C   LIG    1      -34.579  87.760  29.324  0.00  0.00    +0.067 A 
ATOM      7  C   LIG    1      -34.634  88.652  28.248  0.00  0.00    +0.028 A 
ATOM      8  C   LIG    1      -35.846  89.252  27.888  0.00  0.00    +0.002 A 
ATOM      9  C   LIG    1      -37.007  88.981  28.607  0.00  0.00    +0.000 A 
ATOM     10  C   LIG    1      -36.965  88.098  29.682  0.00  0.00    +0.002 A 
ATOM     11  C   LIG    1      -35.758  87.494  30.045  0.00  0.00    +0.028 A 
ENDBRANCH   3   6
BRANCH   4  12
ATOM     12  N   LIG    1      -33.650  84.708  29.068  0.00  0.00    -0.266 N 
ATOM     13  H   LIG    1      -33.588  84.529  28.079  0.00  0.00    +0.157 HD
ATOM     14  C   LIG    1      -34.572  83.912  29.831  0.00  0.00    +0.251 C 
ATOM     15  O   LIG    1      -34.811  84.165  30.994  0.00  0.00    -0.270 OA
BRANCH  14  16
ATOM     16  C   LIG    1      -35.247  82.762  29.179  0.00  0.00    +0.056 A 
ATOM     17  C   LIG    1      -36.618  82.651  28.982  0.00  0.00    +0.054 A 
ATOM     18 CL   LIG    1      -37.740  83.900  29.370  0.00  0.00    -0.083 Cl
ATOM     19  C   LIG    1      -37.142  81.458  28.481  0.00  0.00    +0.041 A 
ATOM     20  C   LIG    1      -36.306  80.372  28.168  0.00  0.00    +0.052 A 
ATOM     21 CL   LIG    1      -37.139  78.924  27.700  0.00  0.00    -0.083 Cl
ATOM     22  C   LIG    1      -34.902  80.464  28.295  0.00  0.00    +0.022 A 
ATOM     23  C   LIG    1      -34.409  81.683  28.816  0.00  0.00    +0.026 A 
BRANCH  22  24
ATOM     24  C   LIG    1      -33.956  79.384  27.899  0.00  0.00    +0.107 A 
ATOM     25  C   LIG    1      -33.716  78.230  28.653  0.00  0.00    +0.149 A 
ATOM     26  F   LIG    1      -34.358  77.992  29.806  0.00  0.00    -0.203 F 
ATOM     27  C   LIG    1      -32.791  77.286  28.214  0.00  0.00    +0.042 A 
ATOM     28  C   LIG    1      -32.131  77.491  27.011  0.00  0.00    +0.023 A 
ATOM     29  C   LIG    1      -32.406  78.653  26.316  0.00  0.00    +0.111 A 
ATOM     30  N   LIG    1      -33.269  79.602  26.749  0.00  0.00    -0.252 NA
ENDBRANCH  22  24
ENDBRANCH  14  16
ENDBRANCH   4  12
BRANCH   1  32
ATOM     31  N   LIG    1      -30.097  87.394  32.615  0.00  0.00    -0.249 NA
ATOM     32  C   LIG    1      -30.187  87.478  31.337  0.00  0.00    +0.236 C 
BRANCH  32  33
ATOM     33  O   LIG    1      -29.224  87.966  30.531  0.00  0.00    -0.491 OA
ATOM     34  H   LIG    1      -28.344  87.786  30.880  0.00  0.00    +0.294 HD
ENDBRANCH  32  33
BRANCH  31  35
ATOM     35  C   LIG    1      -28.865  87.769  33.314  0.00  0.00    +0.151 C 
BRANCH  35  37
ATOM     36  C   LIG    1      -27.957  89.145  35.236  0.00  0.00    +0.012 C 
ATOM     37  C   LIG    1      -29.125  88.980  34.249  0.00  0.00    -0.018 C 
ATOM     38  C   LIG    1      -29.243  90.268  33.410  0.00  0.00    +0.012 C 
ATOM     39  C   LIG    1      -30.430  88.787  35.041  0.00  0.00    +0.012 C 
ENDBRANCH  35  37
ENDBRANCH  31  35
ENDBRANCH   1  32
TORSDOF 8
ENDMDL
MODEL 5
REMARK VINA RESULT:      -6.3      4.913     10.479
REMARK  Name = pdb/CHEMBL3940552.pdb
REMARK                            x       y       z     vdW  Elec       q    Type
REMARK                         _______ _______ _______ _____ _____    ______ ____
ROOT
ATOM      1  C   LIG    1      -36.075  71.861  27.055  0.00  0.00    +0.149 A 
ATOM      2  N   LIG    1      -37.094  72.693  26.796  0.00  0.00    -0.160 NA
ATOM      3  N   LIG    1      -37.498  72.407  25.529  0.00  0.00    -0.218 N 
ATOM      4  C   LIG    1      -36.786  71.313  24.997  0.00  0.00    +0.129 A 
ATOM      5  C   LIG    1      -35.872  70.978  25.973  0.00  0.00    +0.078 A 
ENDROOT
BRANCH   3   6
ATOM      6  C   LIG    1      -38.570  73.162  24.962  0.00  0.00    +0.067 A 
ATOM      7  C   LIG    1      -39.680  72.558  24.361  0.00  0.00    +0.028 A 
ATOM      8  C   LIG    1      -40.699  73.341  23.807  0.00  0.00    +0.002 A 
ATOM      9  C   LIG    1      -40.612  74.730  23.831  0.00  0.00    +0.000 A 
ATOM     10  C   LIG    1      -39.511  75.344  24.422  0.00  0.00    +0.002 A 
ATOM     11  C   LIG    1      -38.492  74.567  24.980  0.00  0.00    +0.028 A 
ENDBRANCH   3   6
BRANCH   4  12
ATOM     12  N   LIG    1      -36.976  70.652  23.778  0.00  0.00    -0.266 N 
ATOM     13  H   LIG    1      -36.617  71.068  22.934  0.00  0.00    +0.157 HD
ATOM     14  C   LIG    1      -37.785  69.470  23.646  0.00  0.00    +0.251 C 
ATOM     15  O   LIG    1      -38.372  69.000  24.598  0.00  0.00    -0.270 OA
BRANCH  14  16
ATOM     16  C   LIG    1      -37.904  68.821  22.317  0.00  0.00    +0.056 A 
ATOM     17  C   LIG    1      -39.046  68.834  21.524  0.00  0.00    +0.054 A 
ATOM     18 CL   LIG    1      -40.473  69.713  21.925  0.00  0.00    -0.083 Cl
ATOM     19  C   LIG    1      -39.077  68.069  20.357  0.00  0.00    +0.041 A 
ATOM     20  C   LIG    1      -37.971  67.292  19.968  0.00  0.00    +0.052 A 
ATOM     21 CL   LIG    1      -38.238  66.294  18.575  0.00  0.00    -0.083 Cl
ATOM     22  C   LIG    1      -36.770  67.299  20.711  0.00  0.00    +0.022 A 
ATOM     23  C   LIG    1      -36.781  68.076  21.893  0.00  0.00    +0.026 A 
BRANCH  22  24
ATOM     24  C   LIG    1      -35.535  66.570  20.309  0.00  0.00    +0.107 A 
ATOM     25  C   LIG    1      -34.829  66.807  19.124  0.00  0.00    +0.149 A 
ATOM     26  F   LIG    1      -35.209  67.752  18.252  0.00  0.00    -0.203 F 
ATOM     27  C   LIG    1      -33.697  66.055  18.821  0.00  0.00    +0.042 A 
ATOM     28  C   LIG    1      -33.264  65.088  19.717  0.00  0.00    +0.023 A 
ATOM     29  C   LIG    1      -34.007  64.897  20.867  0.00  0.00    +0.111 A 
ATOM     30  N   LIG    1      -35.134  65.588  21.157  0.00  0.00    -0.252 NA
ENDBRANCH  22  24
ENDBRANCH  14  16
ENDBRANCH   4  12
BRANCH   1  32
ATOM     31  N   LIG    1      -34.253  72.596  28.403  0.00  0.00    -0.249 NA
ATOM     32  C   LIG    1      -35.319  71.886  28.311  0.00  0.00    +0.236 C 
BRANCH  32  33
ATOM     33  O   LIG    1      -35.814  71.114  29.299  0.00  0.00    -0.491 OA
ATOM     34  H   LIG    1      -36.292  71.637  29.952  0.00  0.00    +0.294 HD
ENDBRANCH  32  33
BRANCH  31  35
ATOM     35  C   LIG    1      -33.505  72.681  29.659  0.00  0.00    +0.151 C 
BRANCH  35  37
ATOM     36  C   LIG    1      -33.152  74.736  31.097  0.00  0.00    +0.012 C 
ATOM     37  C   LIG    1      -32.789  74.054  29.767  0.00  0.00    -0.018 C 
ATOM     38  C   LIG    1      -31.261  73.847  29.723  0.00  0.00    +0.012 C 
ATOM     39  C   LIG    1      -33.194  74.973  28.602  0.00  0.00    +0.012 C 
ENDBRANCH  35  37
ENDBRANCH  31  35
ENDBRANCH   1  32
TORSDOF 8
ENDMDL
MODEL 6
REMARK VINA RESULT:      -6.2      3.729      9.649
REMARK  Name = pdb/CHEMBL3940552.pdb
REMARK                            x       y       z     vdW  Elec       q    Type
REMARK                         _______ _______ _______ _____ _____    ______ ____
ROOT
ATOM      1  C   LIG    1      -38.184  76.880  26.024  0.00  0.00    +0.149 A 
ATOM      2  N   LIG    1      -39.368  76.641  25.443  0.00  0.00    -0.160 NA
ATOM      3  N   LIG    1      -39.260  75.414  24.866  0.00  0.00    -0.218 N 
ATOM      4  C   LIG    1      -38.018  74.816  25.157  0.00  0.00    +0.129 A 
ATOM      5  C   LIG    1      -37.333  75.763  25.887  0.00  0.00    +0.078 A 
ENDROOT
BRANCH   3   6
ATOM      6  C   LIG    1      -40.377  74.895  24.140  0.00  0.00    +0.067 A 
ATOM      7  C   LIG    1      -41.404  75.713  23.656  0.00  0.00    +0.028 A 
ATOM      8  C   LIG    1      -42.485  75.155  22.963  0.00  0.00    +0.002 A 
ATOM      9  C   LIG    1      -42.559  73.780  22.762  0.00  0.00    +0.000 A 
ATOM     10  C   LIG    1      -41.546  72.955  23.242  0.00  0.00    +0.002 A 
ATOM     11  C   LIG    1      -40.463  73.506  23.933  0.00  0.00    +0.028 A 
ENDBRANCH   3   6
BRANCH   4  12
ATOM     12  N   LIG    1      -37.569  73.529  24.841  0.00  0.00    -0.266 N 
ATOM     13  H   LIG    1      -37.238  73.340  23.909  0.00  0.00    +0.157 HD
ATOM     14  C   LIG    1      -37.686  72.415  25.743  0.00  0.00    +0.251 C 
ATOM     15  O   LIG    1      -38.214  72.537  26.829  0.00  0.00    -0.270 OA
BRANCH  14  16
ATOM     16  C   LIG    1      -37.154  71.092  25.332  0.00  0.00    +0.056 A 
ATOM     17  C   LIG    1      -35.977  70.525  25.805  0.00  0.00    +0.054 A 
ATOM     18 CL   LIG    1      -35.007  71.235  27.040  0.00  0.00    -0.083 Cl
ATOM     19  C   LIG    1      -35.514  69.337  25.236  0.00  0.00    +0.041 A 
ATOM     20  C   LIG    1      -36.221  68.704  24.199  0.00  0.00    +0.052 A 
ATOM     21 CL   LIG    1      -35.425  67.323  23.514  0.00  0.00    -0.083 Cl
ATOM     22  C   LIG    1      -37.452  69.213  23.731  0.00  0.00    +0.022 A 
ATOM     23  C   LIG    1      -37.883  70.424  24.322  0.00  0.00    +0.026 A 
BRANCH  22  24
ATOM     24  C   LIG    1      -38.293  68.547  22.699  0.00  0.00    +0.107 A 
ATOM     25  C   LIG    1      -38.096  68.671  21.319  0.00  0.00    +0.149 A 
ATOM     26  F   LIG    1      -37.091  69.401  20.812  0.00  0.00    -0.203 F 
ATOM     27  C   LIG    1      -38.951  68.029  20.427  0.00  0.00    +0.042 A 
ATOM     28  C   LIG    1      -39.984  67.246  20.922  0.00  0.00    +0.023 A 
ATOM     29  C   LIG    1      -40.131  67.167  22.295  0.00  0.00    +0.111 A 
ATOM     30  N   LIG    1      -39.336  67.819  23.174  0.00  0.00    -0.252 NA
ENDBRANCH  22  24
ENDBRANCH  14  16
ENDBRANCH   4  12
BRANCH   1  32
ATOM     31  N   LIG    1      -36.935  78.164  27.596  0.00  0.00    -0.249 NA
ATOM     32  C   LIG    1      -37.869  78.134  26.715  0.00  0.00    +0.236 C 
BRANCH  32  33
ATOM     33  O   LIG    1      -38.631  79.191  26.370  0.00  0.00    -0.491 OA
ATOM     34  H   LIG    1      -39.548  79.072  26.643  0.00  0.00    +0.294 HD
ENDBRANCH  32  33
BRANCH  31  35
ATOM     35  C   LIG    1      -36.565  79.412  28.266  0.00  0.00    +0.151 C 
BRANCH  35  37
ATOM     36  C   LIG    1      -34.409  78.085  28.201  0.00  0.00    +0.012 C 
ATOM     37  C   LIG    1      -35.032  79.457  28.509  0.00  0.00    -0.018 C 
ATOM     38  C   LIG    1      -34.390  80.507  27.579  0.00  0.00    +0.012 C 
ATOM     39  C   LIG    1      -34.721  79.836  29.967  0.00  0.00    +0.012 C 
ENDBRANCH  35  37
ENDBRANCH  31  35
ENDBRANCH   1  32
TORSDOF 8
ENDMDL
MODEL 7
REMARK VINA RESULT:      -6.2      4.727      9.941
REMARK  Name = pdb/CHEMBL3940552.pdb
REMARK                            x       y       z     vdW  Elec       q    Type
REMARK                         _______ _______ _______ _____ _____    ______ ____
ROOT
ATOM      1  C   LIG    1      -37.295  79.865  27.586  0.00  0.00    +0.149 A 
ATOM      2  N   LIG    1      -36.199  79.139  27.850  0.00  0.00    -0.160 NA
ATOM      3  N   LIG    1      -36.516  77.855  27.528  0.00  0.00    -0.218 N 
ATOM      4  C   LIG    1      -37.804  77.769  26.965  0.00  0.00    +0.129 A 
ATOM      5  C   LIG    1      -38.299  79.055  27.016  0.00  0.00    +0.078 A 
ENDROOT
BRANCH   3   6
ATOM      6  C   LIG    1      -35.536  76.834  27.729  0.00  0.00    +0.067 A 
ATOM      7  C   LIG    1      -34.190  77.008  27.391  0.00  0.00    +0.028 A 
ATOM      8  C   LIG    1      -33.269  75.973  27.594  0.00  0.00    +0.002 A 
ATOM      9  C   LIG    1      -33.686  74.753  28.118  0.00  0.00    +0.000 A 
ATOM     10  C   LIG    1      -35.024  74.566  28.456  0.00  0.00    +0.002 A 
ATOM     11  C   LIG    1      -35.946  75.596  28.258  0.00  0.00    +0.028 A 
ENDBRANCH   3   6
BRANCH   4  12
ATOM     12  N   LIG    1      -38.448  76.655  26.414  0.00  0.00    -0.266 N 
ATOM     13  H   LIG    1      -39.157  76.184  26.951  0.00  0.00    +0.157 HD
ATOM     14  C   LIG    1      -38.050  76.058  25.168  0.00  0.00    +0.251 C 
ATOM     15  O   LIG    1      -37.103  76.483  24.539  0.00  0.00    -0.270 OA
BRANCH  14  16
ATOM     16  C   LIG    1      -38.812  74.895  24.647  0.00  0.00    +0.056 A 
ATOM     17  C   LIG    1      -40.067  74.966  24.055  0.00  0.00    +0.054 A 
ATOM     18 CL   LIG    1      -40.885  76.448  23.731  0.00  0.00    -0.083 Cl
ATOM     19  C   LIG    1      -40.739  73.785  23.732  0.00  0.00    +0.041 A 
ATOM     20  C   LIG    1      -40.164  72.529  23.992  0.00  0.00    +0.052 A 
ATOM     21 CL   LIG    1      -41.198  71.175  23.664  0.00  0.00    -0.083 Cl
ATOM     22  C   LIG    1      -38.866  72.412  24.535  0.00  0.00    +0.022 A 
ATOM     23  C   LIG    1      -38.222  73.629  24.860  0.00  0.00    +0.026 A 
BRANCH  22  24
ATOM     24  C   LIG    1      -38.165  71.116  24.754  0.00  0.00    +0.107 A 
ATOM     25  C   LIG    1      -37.851  70.591  26.012  0.00  0.00    +0.149 A 
ATOM     26  F   LIG    1      -38.189  71.222  27.146  0.00  0.00    -0.203 F 
ATOM     27  C   LIG    1      -37.170  69.381  26.116  0.00  0.00    +0.042 A 
ATOM     28  C   LIG    1      -36.830  68.692  24.961  0.00  0.00    +0.023 A 
ATOM     29  C   LIG    1      -37.163  69.265  23.748  0.00  0.00    +0.111 A 
ATOM     30  N   LIG    1      -37.785  70.460  23.627  0.00  0.00    -0.252 NA
ENDBRANCH  22  24
ENDBRANCH  14  16
ENDBRANCH   4  12
BRANCH   1  32
ATOM     31  N   LIG    1      -36.646  82.123  27.191  0.00  0.00    -0.249 NA
ATOM     32  C   LIG    1      -37.384  81.305  27.850  0.00  0.00    +0.236 C 
BRANCH  32  33
ATOM     33  O   LIG    1      -38.252  81.663  28.816  0.00  0.00    -0.491 OA
ATOM     34  H   LIG    1      -38.434  80.932  29.419  0.00  0.00    +0.294 HD
ENDBRANCH  32  33
BRANCH  31  35
ATOM     35  C   LIG    1      -36.748  83.570  27.397  0.00  0.00    +0.151 C 
BRANCH  35  37
ATOM     36  C   LIG    1      -37.614  83.360  25.027  0.00  0.00    +0.012 C 
ATOM     37  C   LIG    1      -36.927  84.295  26.036  0.00  0.00    -0.018 C 
ATOM     38  C   LIG    1      -37.810  85.545  26.226  0.00  0.00    +0.012 C 
ATOM     39  C   LIG    1      -35.566  84.735  25.470  0.00  0.00    +0.012 C 
ENDBRANCH  35  37
ENDBRANCH  31  35
ENDBRANCH   1  32
TORSDOF 8
ENDMDL
MODEL 8
REMARK VINA RESULT:      -6.1     17.242     20.885
REMARK  Name = pdb/CHEMBL3940552.pdb
REMARK                            x       y       z     vdW  Elec       q    Type
REMARK                         _______ _______ _______ _____ _____    ______ ____
ROOT
ATOM      1  C   LIG    1      -22.090  82.607  15.611  0.00  0.00    +0.149 A 
ATOM      2  N   LIG    1      -20.817  82.188  15.650  0.00  0.00    -0.160 NA
ATOM      3  N   LIG    1      -20.873  80.830  15.717  0.00  0.00    -0.218 N 
ATOM      4  C   LIG    1      -22.200  80.365  15.628  0.00  0.00    +0.129 A 
ATOM      5  C   LIG    1      -22.971  81.506  15.573  0.00  0.00    +0.078 A 
ENDROOT
BRANCH   3   6
ATOM      6  C   LIG    1      -19.650  80.095  15.795  0.00  0.00    +0.067 A 
ATOM      7  C   LIG    1      -19.512  78.947  16.583  0.00  0.00    +0.028 A 
ATOM      8  C   LIG    1      -18.289  78.269  16.638  0.00  0.00    +0.002 A 
ATOM      9  C   LIG    1      -17.191  78.737  15.923  0.00  0.00    +0.000 A 
ATOM     10  C   LIG    1      -17.314  79.880  15.138  0.00  0.00    +0.002 A 
ATOM     11  C   LIG    1      -18.533  80.560  15.077  0.00  0.00    +0.028 A 
ENDBRANCH   3   6
BRANCH   4  12
ATOM     12  N   LIG    1      -22.664  79.047  15.553  0.00  0.00    -0.266 N 
ATOM     13  H   LIG    1      -23.067  78.622  16.372  0.00  0.00    +0.157 HD
ATOM     14  C   LIG    1      -22.468  78.212  14.399  0.00  0.00    +0.251 C 
ATOM     15  O   LIG    1      -21.856  78.611  13.430  0.00  0.00    -0.270 OA
BRANCH  14  16
ATOM     16  C   LIG    1      -23.022  76.835  14.399  0.00  0.00    +0.056 A 
ATOM     17  C   LIG    1      -24.147  76.429  13.692  0.00  0.00    +0.054 A 
ATOM     18 CL   LIG    1      -25.010  77.453  12.606  0.00  0.00    -0.083 Cl
ATOM     19  C   LIG    1      -24.648  75.141  13.885  0.00  0.00    +0.041 A 
ATOM     20  C   LIG    1      -24.030  74.247  14.778  0.00  0.00    +0.052 A 
ATOM     21 CL   LIG    1      -24.870  72.747  15.002  0.00  0.00    -0.083 Cl
ATOM     22  C   LIG    1      -22.850  74.598  15.469  0.00  0.00    +0.022 A 
ATOM     23  C   LIG    1      -22.379  75.915  15.258  0.00  0.00    +0.026 A 
BRANCH  22  24
ATOM     24  C   LIG    1      -22.098  73.671  16.360  0.00  0.00    +0.107 A 
ATOM     25  C   LIG    1      -22.328  73.537  17.734  0.00  0.00    +0.149 A 
ATOM     26  F   LIG    1      -23.287  74.233  18.362  0.00  0.00    -0.203 F 
ATOM     27  C   LIG    1      -21.555  72.661  18.492  0.00  0.00    +0.042 A 
ATOM     28  C   LIG    1      -20.573  71.907  17.866  0.00  0.00    +0.023 A 
ATOM     29  C   LIG    1      -20.389  72.089  16.508  0.00  0.00    +0.111 A 
ATOM     30  N   LIG    1      -21.102  72.967  15.765  0.00  0.00    -0.252 NA
ENDBRANCH  22  24
ENDBRANCH  14  16
ENDBRANCH   4  12
BRANCH   1  32
ATOM     31  N   LIG    1      -22.354  84.701  14.504  0.00  0.00    -0.249 NA
ATOM     32  C   LIG    1      -22.466  84.024  15.590  0.00  0.00    +0.236 C 
BRANCH  32  33
ATOM     33  O   LIG    1      -22.896  84.526  16.765  0.00  0.00    -0.491 OA
ATOM     34  H   LIG    1      -23.006  85.482  16.723  0.00  0.00    +0.294 HD
ENDBRANCH  32  33
BRANCH  31  35
ATOM     35  C   LIG    1      -22.769  86.104  14.439  0.00  0.00    +0.151 C 
BRANCH  35  37
ATOM     36  C   LIG    1      -22.315  88.259  13.189  0.00  0.00    +0.012 C 
ATOM     37  C   LIG    1      -21.695  86.948  13.702  0.00  0.00    -0.018 C 
ATOM     38  C   LIG    1      -20.550  87.295  14.675  0.00  0.00    +0.012 C 
ATOM     39  C   LIG    1      -21.110  86.168  12.512  0.00  0.00    +0.012 C 
ENDBRANCH  35  37
ENDBRANCH  31  35
ENDBRANCH   1  32
TORSDOF 8
ENDMDL
MODEL 9
REMARK VINA RESULT:      -6.0     18.215     20.768
REMARK  Name = pdb/CHEMBL3940552.pdb
REMARK                            x       y       z     vdW  Elec       q    Type
REMARK                         _______ _______ _______ _____ _____    ______ ____
ROOT
ATOM      1  C   LIG    1      -24.727  78.955  14.361  0.00  0.00    +0.149 A 
ATOM      2  N   LIG    1      -23.698  78.442  15.049  0.00  0.00    -0.160 NA
ATOM      3  N   LIG    1      -22.624  79.226  14.755  0.00  0.00    -0.218 N 
ATOM      4  C   LIG    1      -22.990  80.312  13.936  0.00  0.00    +0.129 A 
ATOM      5  C   LIG    1      -24.332  80.125  13.680  0.00  0.00    +0.078 A 
ENDROOT
BRANCH   3   6
ATOM      6  C   LIG    1      -21.358  78.903  15.334  0.00  0.00    +0.067 A 
ATOM      7  C   LIG    1      -20.654  79.798  16.148  0.00  0.00    +0.028 A 
ATOM      8  C   LIG    1      -19.410  79.441  16.681  0.00  0.00    +0.002 A 
ATOM      9  C   LIG    1      -18.851  78.199  16.393  0.00  0.00    +0.000 A 
ATOM     10  C   LIG    1      -19.539  77.302  15.582  0.00  0.00    +0.002 A 
ATOM     11  C   LIG    1      -20.783  77.651  15.049  0.00  0.00    +0.028 A 
ENDBRANCH   3   6
BRANCH   4  12
ATOM     12  N   LIG    1      -22.207  81.390  13.506  0.00  0.00    -0.266 N 
ATOM     13  H   LIG    1      -21.616  81.275  12.700  0.00  0.00    +0.157 HD
ATOM     14  C   LIG    1      -22.095  82.619  14.244  0.00  0.00    +0.251 C 
ATOM     15  O   LIG    1      -22.662  82.771  15.305  0.00  0.00    -0.270 OA
BRANCH  14  16
ATOM     16  C   LIG    1      -21.262  83.718  13.694  0.00  0.00    +0.056 A 
ATOM     17  C   LIG    1      -19.873  83.756  13.722  0.00  0.00    +0.054 A 
ATOM     18 CL   LIG    1      -18.898  82.460  14.306  0.00  0.00    -0.083 Cl
ATOM     19  C   LIG    1      -19.212  84.909  13.297  0.00  0.00    +0.041 A 
ATOM     20  C   LIG    1      -19.927  86.029  12.836  0.00  0.00    +0.052 A 
ATOM     21 CL   LIG    1      -18.952  87.421  12.490  0.00  0.00    -0.083 Cl
ATOM     22  C   LIG    1      -21.335  86.010  12.734  0.00  0.00    +0.022 A 
ATOM     23  C   LIG    1      -21.971  84.830  13.184  0.00  0.00    +0.026 A 
BRANCH  22  24
ATOM     24  C   LIG    1      -22.146  87.127  12.174  0.00  0.00    +0.107 A 
ATOM     25  C   LIG    1      -22.740  88.134  12.943  0.00  0.00    +0.149 A 
ATOM     26  F   LIG    1      -22.597  88.183  14.276  0.00  0.00    -0.203 F 
ATOM     27  C   LIG    1      -23.503  89.125  12.332  0.00  0.00    +0.042 A 
ATOM     28  C   LIG    1      -23.647  89.116  10.952  0.00  0.00    +0.023 A 
ATOM     29  C   LIG    1      -23.042  88.092  10.248  0.00  0.00    +0.111 A 
ATOM     30  N   LIG    1      -22.333  87.097  10.830  0.00  0.00    -0.252 NA
ENDBRANCH  22  24
ENDBRANCH  14  16
ENDBRANCH   4  12
BRANCH   1  32
ATOM     31  N   LIG    1      -26.559  77.883  13.277  0.00  0.00    -0.249 NA
ATOM     32  C   LIG    1      -26.067  78.360  14.363  0.00  0.00    +0.236 C 
BRANCH  32  33
ATOM     33  O   LIG    1      -26.708  78.384  15.549  0.00  0.00    -0.491 OA
ATOM     34  H   LIG    1      -27.484  77.811  15.544  0.00  0.00    +0.294 HD
ENDBRANCH  32  33
BRANCH  31  35
ATOM     35  C   LIG    1      -27.874  77.238  13.259  0.00  0.00    +0.151 C 
BRANCH  35  37
ATOM     36  C   LIG    1      -29.186  75.954  11.515  0.00  0.00    +0.012 C 
ATOM     37  C   LIG    1      -28.473  77.280  11.827  0.00  0.00    -0.018 C 
ATOM     38  C   LIG    1      -29.502  78.424  11.729  0.00  0.00    +0.012 C 
ATOM     39  C   LIG    1      -27.370  77.518  10.781  0.00  0.00    +0.012 C 
ENDBRANCH  35  37
ENDBRANCH  31  35
ENDBRANCH   1  32
TORSDOF 8
ENDMDL
