MODEL 1
REMARK VINA RESULT:      -6.4      0.000      0.000
REMARK  Name = pdb/CHEMBL3671432.pdb
REMARK                            x       y       z     vdW  Elec       q    Type
REMARK                         _______ _______ _______ _____ _____    ______ ____
ROOT
ATOM      1  C   LIG    1      -39.208  72.670  24.433  0.00  0.00    +0.042 A 
ATOM      2  C   LIG    1      -38.119  73.399  24.947  0.00  0.00    +0.038 A 
ATOM      3  C   LIG    1      -38.154  74.800  24.963  0.00  0.00    +0.052 A 
ATOM      4  C   LIG    1      -39.295  75.406  24.438  0.00  0.00    +0.134 A 
ATOM      5  N   LIG    1      -40.371  74.732  23.960  0.00  0.00    -0.261 NA
ATOM      6  C   LIG    1      -40.313  73.383  23.991  0.00  0.00    +0.122 A 
ENDROOT
BRANCH   3   7
ATOM      7  N   LIG    1      -37.063  75.519  25.510  0.00  0.00    -0.284 N 
ATOM      8  H   LIG    1      -36.418  75.954  24.854  0.00  0.00    +0.155 HD
ATOM      9  C   LIG    1      -36.827  75.733  26.862  0.00  0.00    +0.225 C 
ATOM     10  O   LIG    1      -37.538  75.352  27.790  0.00  0.00    -0.275 OA
BRANCH   9  11
ATOM     11  C   LIG    1      -35.575  76.528  27.165  0.00  0.00    +0.170 C 
BRANCH  11  12
ATOM     12  C   LIG    1      -34.586  75.610  27.779  0.00  0.00    +0.117 A 
ATOM     13  N   LIG    1      -34.740  74.244  27.780  0.00  0.00    -0.341 N 
ATOM     14  H   LIG    1      -35.516  73.733  27.380  0.00  0.00    +0.167 HD
ATOM     15  C   LIG    1      -33.683  73.695  28.458  0.00  0.00    +0.066 A 
ATOM     16  C   LIG    1      -33.342  72.376  28.768  0.00  0.00    +0.028 A 
ATOM     17  C   LIG    1      -32.174  72.189  29.518  0.00  0.00    +0.002 A 
ATOM     18  C   LIG    1      -31.393  73.273  29.928  0.00  0.00    +0.002 A 
ATOM     19  C   LIG    1      -31.753  74.585  29.594  0.00  0.00    +0.030 A 
ATOM     20  C   LIG    1      -32.921  74.791  28.847  0.00  0.00    +0.089 A 
ATOM     21  N   LIG    1      -33.488  75.965  28.413  0.00  0.00    -0.232 NA
ENDBRANCH  11  12
ENDBRANCH   9  11
ENDBRANCH   3   7
BRANCH   1  22
ATOM     22  C   LIG    1      -39.207  71.189  24.440  0.00  0.00    +0.197 C 
ATOM     23  O   LIG    1      -40.303  70.614  24.355  0.00  0.00    -0.287 OA
BRANCH  22  31
ATOM     24  N   LIG    1      -36.187  69.337  25.478  0.00  0.00    -0.323 N 
ATOM     25  C   LIG    1      -36.301  68.919  24.169  0.00  0.00    +0.147 A 
ATOM     26  N   LIG    1      -35.515  68.016  23.562  0.00  0.00    -0.197 NA
ATOM     27  C   LIG    1      -35.834  67.795  22.284  0.00  0.00    +0.214 A 
ATOM     28  N   LIG    1      -36.824  68.383  21.602  0.00  0.00    -0.222 NA
ATOM     29  C   LIG    1      -37.626  69.261  22.250  0.00  0.00    +0.126 A 
ATOM     30  C   LIG    1      -37.380  69.568  23.587  0.00  0.00    +0.048 A 
ATOM     31  C   LIG    1      -37.968  70.417  24.572  0.00  0.00    +0.051 A 
ATOM     32  C   LIG    1      -37.145  70.320  25.686  0.00  0.00    +0.100 A 
BRANCH  24  34
ATOM     33  C   LIG    1      -35.585  69.320  27.904  0.00  0.00    +0.036 C 
ATOM     34  C   LIG    1      -35.207  68.835  26.477  0.00  0.00    +0.064 C 
ATOM     35  C   LIG    1      -33.790  69.366  26.179  0.00  0.00    +0.036 C 
BRANCH  34  36
ATOM     36  C   LIG    1      -35.174  67.274  26.561  0.00  0.00    +0.183 C 
BRANCH  36  37
ATOM     37  O   LIG    1      -34.111  66.632  25.871  0.00  0.00    -0.393 OA
ATOM     38  H   LIG    1      -33.500  66.258  26.536  0.00  0.00    +0.209 HD
ENDBRANCH  36  37
ENDBRANCH  34  36
ENDBRANCH  24  34
BRANCH  27  39
ATOM     39  N   LIG    1      -35.047  66.888  21.602  0.00  0.00    -0.327 N 
ATOM     40  H   LIG    1      -34.908  66.066  22.174  0.00  0.00    +0.145 HD
ATOM     41  H   LIG    1      -34.224  67.349  21.241  0.00  0.00    +0.145 HD
ENDBRANCH  27  39
ENDBRANCH  22  31
ENDBRANCH   1  22
TORSDOF 9
ENDMDL
MODEL 2
REMARK VINA RESULT:      -6.3      3.371      9.805
REMARK  Name = pdb/CHEMBL3671432.pdb
REMARK                            x       y       z     vdW  Elec       q    Type
REMARK                         _______ _______ _______ _____ _____    ______ ____
ROOT
ATOM      1  C   LIG    1      -32.757  74.405  29.030  0.00  0.00    +0.042 A 
ATOM      2  C   LIG    1      -33.654  73.919  28.060  0.00  0.00    +0.038 A 
ATOM      3  C   LIG    1      -33.984  72.558  28.024  0.00  0.00    +0.052 A 
ATOM      4  C   LIG    1      -33.372  71.738  28.972  0.00  0.00    +0.134 A 
ATOM      5  N   LIG    1      -32.525  72.179  29.936  0.00  0.00    -0.261 NA
ATOM      6  C   LIG    1      -32.256  73.502  29.957  0.00  0.00    +0.122 A 
ENDROOT
BRANCH   3   7
ATOM      7  N   LIG    1      -34.911  72.090  27.060  0.00  0.00    -0.284 N 
ATOM      8  H   LIG    1      -34.533  71.609  26.248  0.00  0.00    +0.155 HD
ATOM      9  C   LIG    1      -36.294  72.176  27.155  0.00  0.00    +0.225 C 
ATOM     10  O   LIG    1      -36.927  72.651  28.096  0.00  0.00    -0.275 OA
BRANCH   9  11
ATOM     11  C   LIG    1      -37.043  71.604  25.971  0.00  0.00    +0.170 C 
BRANCH  11  12
ATOM     12  C   LIG    1      -37.879  72.683  25.392  0.00  0.00    +0.117 A 
ATOM     13  N   LIG    1      -37.515  74.008  25.431  0.00  0.00    -0.341 N 
ATOM     14  H   LIG    1      -36.672  74.380  25.846  0.00  0.00    +0.167 HD
ATOM     15  C   LIG    1      -38.517  74.743  24.853  0.00  0.00    +0.066 A 
ATOM     16  C   LIG    1      -38.678  76.114  24.637  0.00  0.00    +0.028 A 
ATOM     17  C   LIG    1      -39.872  76.518  24.027  0.00  0.00    +0.002 A 
ATOM     18  C   LIG    1      -40.847  75.589  23.651  0.00  0.00    +0.002 A 
ATOM     19  C   LIG    1      -40.654  74.218  23.870  0.00  0.00    +0.030 A 
ATOM     20  C   LIG    1      -39.466  73.797  24.484  0.00  0.00    +0.089 A 
ATOM     21  N   LIG    1      -39.054  72.529  24.816  0.00  0.00    -0.232 NA
ENDBRANCH  11  12
ENDBRANCH   9  11
ENDBRANCH   3   7
BRANCH   1  22
ATOM     22  C   LIG    1      -32.423  75.846  29.109  0.00  0.00    +0.197 C 
ATOM     23  O   LIG    1      -31.232  76.167  28.974  0.00  0.00    -0.287 OA
BRANCH  22  31
ATOM     24  N   LIG    1      -35.032  78.113  30.406  0.00  0.00    -0.323 N 
ATOM     25  C   LIG    1      -34.625  78.810  29.287  0.00  0.00    +0.147 A 
ATOM     26  N   LIG    1      -35.071  80.019  28.911  0.00  0.00    -0.197 NA
ATOM     27  C   LIG    1      -34.521  80.470  27.781  0.00  0.00    +0.214 A 
ATOM     28  N   LIG    1      -33.610  79.834  27.036  0.00  0.00    -0.222 NA
ATOM     29  C   LIG    1      -33.148  78.633  27.460  0.00  0.00    +0.126 A 
ATOM     30  C   LIG    1      -33.659  78.067  28.626  0.00  0.00    +0.048 A 
ATOM     31  C   LIG    1      -33.446  76.863  29.363  0.00  0.00    +0.051 A 
ATOM     32  C   LIG    1      -34.380  76.887  30.392  0.00  0.00    +0.100 A 
BRANCH  24  34
ATOM     33  C   LIG    1      -36.350  77.438  32.420  0.00  0.00    +0.036 C 
ATOM     34  C   LIG    1      -36.001  78.584  31.429  0.00  0.00    +0.064 C 
ATOM     35  C   LIG    1      -37.324  79.034  30.774  0.00  0.00    +0.036 C 
BRANCH  34  36
ATOM     36  C   LIG    1      -35.434  79.743  32.313  0.00  0.00    +0.183 C 
BRANCH  36  37
ATOM     37  O   LIG    1      -34.069  79.630  32.691  0.00  0.00    -0.393 OA
ATOM     38  H   LIG    1      -33.728  80.529  32.866  0.00  0.00    +0.209 HD
ENDBRANCH  36  37
ENDBRANCH  34  36
ENDBRANCH  24  34
BRANCH  27  39
ATOM     39  N   LIG    1      -34.956  81.701  27.334  0.00  0.00    -0.327 N 
ATOM     40  H   LIG    1      -35.336  81.606  26.402  0.00  0.00    +0.145 HD
ATOM     41  H   LIG    1      -34.234  82.393  27.474  0.00  0.00    +0.145 HD
ENDBRANCH  27  39
ENDBRANCH  22  31
ENDBRANCH   1  22
TORSDOF 9
ENDMDL
MODEL 3
REMARK VINA RESULT:      -6.2      2.357      8.930
REMARK  Name = pdb/CHEMBL3671432.pdb
REMARK                            x       y       z     vdW  Elec       q    Type
REMARK                         _______ _______ _______ _____ _____    ______ ____
ROOT
ATOM      1  C   LIG    1      -34.458  71.614  28.199  0.00  0.00    +0.042 A 
ATOM      2  C   LIG    1      -35.174  71.476  26.995  0.00  0.00    +0.038 A 
ATOM      3  C   LIG    1      -34.952  70.367  26.166  0.00  0.00    +0.052 A 
ATOM      4  C   LIG    1      -33.994  69.448  26.590  0.00  0.00    +0.134 A 
ATOM      5  N   LIG    1      -33.307  69.538  27.757  0.00  0.00    -0.261 NA
ATOM      6  C   LIG    1      -33.571  70.603  28.543  0.00  0.00    +0.122 A 
ENDROOT
BRANCH   3   7
ATOM      7  N   LIG    1      -35.702  70.228  24.972  0.00  0.00    -0.284 N 
ATOM      8  H   LIG    1      -35.286  70.592  24.118  0.00  0.00    +0.155 HD
ATOM      9  C   LIG    1      -36.928  69.586  24.853  0.00  0.00    +0.225 C 
ATOM     10  O   LIG    1      -37.541  69.022  25.757  0.00  0.00    -0.275 OA
BRANCH   9  11
ATOM     11  C   LIG    1      -37.511  69.597  23.456  0.00  0.00    +0.170 C 
BRANCH  11  12
ATOM     12  C   LIG    1      -36.740  68.638  22.630  0.00  0.00    +0.117 A 
ATOM     13  N   LIG    1      -37.230  68.100  21.463  0.00  0.00    -0.341 N 
ATOM     14  H   LIG    1      -38.136  68.289  21.056  0.00  0.00    +0.167 HD
ATOM     15  C   LIG    1      -36.296  67.226  20.971  0.00  0.00    +0.066 A 
ATOM     16  C   LIG    1      -36.273  66.408  19.838  0.00  0.00    +0.028 A 
ATOM     17  C   LIG    1      -35.136  65.608  19.665  0.00  0.00    +0.002 A 
ATOM     18  C   LIG    1      -34.080  65.636  20.581  0.00  0.00    +0.002 A 
ATOM     19  C   LIG    1      -34.126  66.475  21.702  0.00  0.00    +0.030 A 
ATOM     20  C   LIG    1      -35.257  67.279  21.894  0.00  0.00    +0.089 A 
ATOM     21  N   LIG    1      -35.544  68.161  22.908  0.00  0.00    -0.232 NA
ENDBRANCH  11  12
ENDBRANCH   9  11
ENDBRANCH   3   7
BRANCH   1  22
ATOM     22  C   LIG    1      -34.704  72.758  29.107  0.00  0.00    +0.197 C 
ATOM     23  O   LIG    1      -34.979  72.502  30.289  0.00  0.00    -0.287 OA
BRANCH  22  31
ATOM     24  N   LIG    1      -33.869  76.181  28.009  0.00  0.00    -0.323 N 
ATOM     25  C   LIG    1      -35.159  76.072  27.533  0.00  0.00    +0.147 A 
ATOM     26  N   LIG    1      -35.808  76.995  26.808  0.00  0.00    -0.197 NA
ATOM     27  C   LIG    1      -37.054  76.645  26.479  0.00  0.00    +0.214 A 
ATOM     28  N   LIG    1      -37.668  75.503  26.809  0.00  0.00    -0.222 NA
ATOM     29  C   LIG    1      -36.976  74.571  27.507  0.00  0.00    +0.126 A 
ATOM     30  C   LIG    1      -35.667  74.836  27.906  0.00  0.00    +0.048 A 
ATOM     31  C   LIG    1      -34.654  74.143  28.635  0.00  0.00    +0.051 A 
ATOM     32  C   LIG    1      -33.604  75.045  28.761  0.00  0.00    +0.100 A 
BRANCH  24  34
ATOM     33  C   LIG    1      -31.661  77.168  28.643  0.00  0.00    +0.036 C 
ATOM     34  C   LIG    1      -32.939  77.317  27.771  0.00  0.00    +0.064 C 
ATOM     35  C   LIG    1      -33.595  78.660  28.154  0.00  0.00    +0.036 C 
BRANCH  34  36
ATOM     36  C   LIG    1      -32.432  77.385  26.293  0.00  0.00    +0.183 C 
BRANCH  36  37
ATOM     37  O   LIG    1      -32.338  78.682  25.723  0.00  0.00    -0.393 OA
ATOM     38  H   LIG    1      -31.719  78.638  24.968  0.00  0.00    +0.209 HD
ENDBRANCH  36  37
ENDBRANCH  34  36
ENDBRANCH  24  34
BRANCH  27  39
ATOM     39  N   LIG    1      -37.779  77.565  25.748  0.00  0.00    -0.327 N 
ATOM     40  H   LIG    1      -38.645  77.770  26.229  0.00  0.00    +0.145 HD
ATOM     41  H   LIG    1      -37.840  77.269  24.785  0.00  0.00    +0.145 HD
ENDBRANCH  27  39
ENDBRANCH  22  31
ENDBRANCH   1  22
TORSDOF 9
ENDMDL
MODEL 4
REMARK VINA RESULT:      -6.1      2.346      8.852
REMARK  Name = pdb/CHEMBL3671432.pdb
REMARK                            x       y       z     vdW  Elec       q    Type
REMARK                         _______ _______ _______ _____ _____    ______ ____
ROOT
ATOM      1  C   LIG    1      -33.883  71.018  28.248  0.00  0.00    +0.042 A 
ATOM      2  C   LIG    1      -34.878  71.203  27.270  0.00  0.00    +0.038 A 
ATOM      3  C   LIG    1      -35.053  70.254  26.254  0.00  0.00    +0.052 A 
ATOM      4  C   LIG    1      -34.192  69.157  26.265  0.00  0.00    +0.134 A 
ATOM      5  N   LIG    1      -33.242  68.936  27.208  0.00  0.00    -0.261 NA
ATOM      6  C   LIG    1      -33.126  69.857  28.188  0.00  0.00    +0.122 A 
ENDROOT
BRANCH   3   7
ATOM      7  N   LIG    1      -36.077  70.440  25.293  0.00  0.00    -0.284 N 
ATOM      8  H   LIG    1      -35.811  70.858  24.405  0.00  0.00    +0.155 HD
ATOM      9  C   LIG    1      -37.403  70.048  25.434  0.00  0.00    +0.225 C 
ATOM     10  O   LIG    1      -37.886  69.461  26.401  0.00  0.00    -0.275 OA
BRANCH   9  11
ATOM     11  C   LIG    1      -38.287  70.384  24.252  0.00  0.00    +0.170 C 
BRANCH  11  12
ATOM     12  C   LIG    1      -38.659  71.816  24.350  0.00  0.00    +0.117 A 
ATOM     13  N   LIG    1      -39.854  72.308  23.881  0.00  0.00    -0.341 N 
ATOM     14  H   LIG    1      -40.583  71.769  23.433  0.00  0.00    +0.167 HD
ATOM     15  C   LIG    1      -39.867  73.663  24.085  0.00  0.00    +0.066 A 
ATOM     16  C   LIG    1      -40.812  74.651  23.796  0.00  0.00    +0.028 A 
ATOM     17  C   LIG    1      -40.465  75.967  24.130  0.00  0.00    +0.002 A 
ATOM     18  C   LIG    1      -39.235  76.266  24.724  0.00  0.00    +0.002 A 
ATOM     19  C   LIG    1      -38.312  75.253  25.012  0.00  0.00    +0.030 A 
ATOM     20  C   LIG    1      -38.641  73.931  24.682  0.00  0.00    +0.089 A 
ATOM     21  N   LIG    1      -37.910  72.779  24.846  0.00  0.00    -0.232 NA
ENDBRANCH  11  12
ENDBRANCH   9  11
ENDBRANCH   3   7
BRANCH   1  22
ATOM     22  C   LIG    1      -33.706  71.991  29.351  0.00  0.00    +0.197 C 
ATOM     23  O   LIG    1      -33.965  71.606  30.502  0.00  0.00    -0.287 OA
BRANCH  22  31
ATOM     24  N   LIG    1      -33.265  75.543  28.450  0.00  0.00    -0.323 N 
ATOM     25  C   LIG    1      -32.210  75.372  29.324  0.00  0.00    +0.147 A 
ATOM     26  N   LIG    1      -31.363  76.330  29.728  0.00  0.00    -0.197 NA
ATOM     27  C   LIG    1      -30.422  75.898  30.572  0.00  0.00    +0.214 A 
ATOM     28  N   LIG    1      -30.271  74.644  31.014  0.00  0.00    -0.222 NA
ATOM     29  C   LIG    1      -31.165  73.705  30.621  0.00  0.00    +0.126 A 
ATOM     30  C   LIG    1      -32.186  74.048  29.737  0.00  0.00    +0.048 A 
ATOM     31  C   LIG    1      -33.270  73.367  29.105  0.00  0.00    +0.051 A 
ATOM     32  C   LIG    1      -33.844  74.298  28.248  0.00  0.00    +0.100 A 
BRANCH  24  34
ATOM     33  C   LIG    1      -35.042  76.649  27.084  0.00  0.00    +0.036 C 
ATOM     34  C   LIG    1      -33.690  76.826  27.831  0.00  0.00    +0.064 C 
ATOM     35  C   LIG    1      -32.658  77.308  26.791  0.00  0.00    +0.036 C 
BRANCH  34  36
ATOM     36  C   LIG    1      -33.939  77.954  28.884  0.00  0.00    +0.183 C 
BRANCH  36  37
ATOM     37  O   LIG    1      -33.814  79.288  28.413  0.00  0.00    -0.393 OA
ATOM     38  H   LIG    1      -33.025  79.686  28.831  0.00  0.00    +0.209 HD
ENDBRANCH  36  37
ENDBRANCH  34  36
ENDBRANCH  24  34
BRANCH  27  39
ATOM     39  N   LIG    1      -29.508  76.837  31.007  0.00  0.00    -0.327 N 
ATOM     40  H   LIG    1      -29.496  76.851  32.018  0.00  0.00    +0.145 HD
ATOM     41  H   LIG    1      -29.662  77.714  30.532  0.00  0.00    +0.145 HD
ENDBRANCH  27  39
ENDBRANCH  22  31
ENDBRANCH   1  22
TORSDOF 9
ENDMDL
MODEL 5
REMARK VINA RESULT:      -6.0      1.771      6.077
REMARK  Name = pdb/CHEMBL3671432.pdb
REMARK                            x       y       z     vdW  Elec       q    Type
REMARK                         _______ _______ _______ _____ _____    ______ ____
ROOT
ATOM      1  C   LIG    1      -33.197  71.806  29.083  0.00  0.00    +0.042 A 
ATOM      2  C   LIG    1      -33.917  72.730  28.301  0.00  0.00    +0.038 A 
ATOM      3  C   LIG    1      -33.590  74.092  28.341  0.00  0.00    +0.052 A 
ATOM      4  C   LIG    1      -32.550  74.464  29.192  0.00  0.00    +0.134 A 
ATOM      5  N   LIG    1      -31.820  73.596  29.937  0.00  0.00    -0.261 NA
ATOM      6  C   LIG    1      -32.145  72.289  29.847  0.00  0.00    +0.122 A 
ENDROOT
BRANCH   3   7
ATOM      7  N   LIG    1      -34.305  75.005  27.526  0.00  0.00    -0.284 N 
ATOM      8  H   LIG    1      -33.849  75.322  26.675  0.00  0.00    +0.155 HD
ATOM      9  C   LIG    1      -35.597  75.459  27.757  0.00  0.00    +0.225 C 
ATOM     10  O   LIG    1      -36.327  75.124  28.688  0.00  0.00    -0.275 OA
BRANCH   9  11
ATOM     11  C   LIG    1      -36.112  76.442  26.728  0.00  0.00    +0.170 C 
BRANCH  11  12
ATOM     12  C   LIG    1      -37.254  75.812  26.023  0.00  0.00    +0.117 A 
ATOM     13  N   LIG    1      -37.339  74.458  25.806  0.00  0.00    -0.341 N 
ATOM     14  H   LIG    1      -36.656  73.767  26.089  0.00  0.00    +0.167 HD
ATOM     15  C   LIG    1      -38.485  74.209  25.097  0.00  0.00    +0.066 A 
ATOM     16  C   LIG    1      -39.054  73.032  24.604  0.00  0.00    +0.028 A 
ATOM     17  C   LIG    1      -40.248  73.166  23.885  0.00  0.00    +0.002 A 
ATOM     18  C   LIG    1      -40.837  74.416  23.679  0.00  0.00    +0.002 A 
ATOM     19  C   LIG    1      -40.250  75.579  24.195  0.00  0.00    +0.030 A 
ATOM     20  C   LIG    1      -39.052  75.465  24.913  0.00  0.00    +0.089 A 
ATOM     21  N   LIG    1      -38.284  76.443  25.498  0.00  0.00    -0.232 NA
ENDBRANCH  11  12
ENDBRANCH   9  11
ENDBRANCH   3   7
BRANCH   1  22
ATOM     22  C   LIG    1      -33.502  70.358  29.027  0.00  0.00    +0.197 C 
ATOM     23  O   LIG    1      -32.687  69.581  29.549  0.00  0.00    -0.287 OA
BRANCH  22  31
ATOM     24  N   LIG    1      -36.870  69.338  27.914  0.00  0.00    -0.323 N 
ATOM     25  C   LIG    1      -36.162  69.196  26.739  0.00  0.00    +0.147 A 
ATOM     26  N   LIG    1      -36.678  68.849  25.549  0.00  0.00    -0.197 NA
ATOM     27  C   LIG    1      -35.774  68.773  24.570  0.00  0.00    +0.214 A 
ATOM     28  N   LIG    1      -34.461  68.999  24.687  0.00  0.00    -0.222 NA
ATOM     29  C   LIG    1      -33.972  69.386  25.890  0.00  0.00    +0.126 A 
ATOM     30  C   LIG    1      -34.830  69.493  26.983  0.00  0.00    +0.048 A 
ATOM     31  C   LIG    1      -34.700  69.845  28.360  0.00  0.00    +0.051 A 
ATOM     32  C   LIG    1      -35.957  69.639  28.916  0.00  0.00    +0.100 A 
BRANCH  24  34
ATOM     33  C   LIG    1      -38.759  69.475  29.546  0.00  0.00    +0.036 C 
ATOM     34  C   LIG    1      -38.340  69.184  28.077  0.00  0.00    +0.064 C 
ATOM     35  C   LIG    1      -38.785  67.743  27.757  0.00  0.00    +0.036 C 
BRANCH  34  36
ATOM     36  C   LIG    1      -39.155  70.191  27.202  0.00  0.00    +0.183 C 
BRANCH  36  37
ATOM     37  O   LIG    1      -39.572  69.719  25.929  0.00  0.00    -0.393 OA
ATOM     38  H   LIG    1      -39.733  68.757  25.999  0.00  0.00    +0.209 HD
ENDBRANCH  36  37
ENDBRANCH  34  36
ENDBRANCH  24  34
BRANCH  27  39
ATOM     39  N   LIG    1      -36.244  68.402  23.326  0.00  0.00    -0.327 N 
ATOM     40  H   LIG    1      -36.272  69.212  22.721  0.00  0.00    +0.145 HD
ATOM     41  H   LIG    1      -37.094  67.866  23.425  0.00  0.00    +0.145 HD
ENDBRANCH  27  39
ENDBRANCH  22  31
ENDBRANCH   1  22
TORSDOF 9
ENDMDL
MODEL 6
REMARK VINA RESULT:      -5.9      1.918      3.193
REMARK  Name = pdb/CHEMBL3671432.pdb
REMARK                            x       y       z     vdW  Elec       q    Type
REMARK                         _______ _______ _______ _____ _____    ______ ____
ROOT
ATOM      1  C   LIG    1      -39.459  74.259  24.746  0.00  0.00    +0.042 A 
ATOM      2  C   LIG    1      -38.200  74.636  25.251  0.00  0.00    +0.038 A 
ATOM      3  C   LIG    1      -37.723  75.939  25.055  0.00  0.00    +0.052 A 
ATOM      4  C   LIG    1      -38.544  76.807  24.337  0.00  0.00    +0.134 A 
ATOM      5  N   LIG    1      -39.773  76.483  23.861  0.00  0.00    -0.261 NA
ATOM      6  C   LIG    1      -40.210  75.228  24.096  0.00  0.00    +0.122 A 
ENDROOT
BRANCH   3   7
ATOM      7  N   LIG    1      -36.467  76.311  25.595  0.00  0.00    -0.284 N 
ATOM      8  H   LIG    1      -35.740  76.578  24.936  0.00  0.00    +0.155 HD
ATOM      9  C   LIG    1      -36.158  76.400  26.946  0.00  0.00    +0.225 C 
ATOM     10  O   LIG    1      -36.929  76.191  27.881  0.00  0.00    -0.275 OA
BRANCH   9  11
ATOM     11  C   LIG    1      -34.731  76.810  27.239  0.00  0.00    +0.170 C 
BRANCH  11  12
ATOM     12  C   LIG    1      -34.031  75.645  27.833  0.00  0.00    +0.117 A 
ATOM     13  N   LIG    1      -34.488  74.355  27.698  0.00  0.00    -0.341 N 
ATOM     14  H   LIG    1      -35.321  74.069  27.201  0.00  0.00    +0.167 HD
ATOM     15  C   LIG    1      -33.645  73.528  28.393  0.00  0.00    +0.066 A 
ATOM     16  C   LIG    1      -33.638  72.147  28.602  0.00  0.00    +0.028 A 
ATOM     17  C   LIG    1      -32.612  71.640  29.410  0.00  0.00    +0.002 A 
ATOM     18  C   LIG    1      -31.645  72.480  29.971  0.00  0.00    +0.002 A 
ATOM     19  C   LIG    1      -31.671  73.860  29.735  0.00  0.00    +0.030 A 
ATOM     20  C   LIG    1      -32.693  74.386  28.932  0.00  0.00    +0.089 A 
ATOM     21  N   LIG    1      -32.941  75.688  28.570  0.00  0.00    -0.232 NA
ENDBRANCH  11  12
ENDBRANCH   9  11
ENDBRANCH   3   7
BRANCH   1  22
ATOM     22  C   LIG    1      -39.997  72.898  24.972  0.00  0.00    +0.197 C 
ATOM     23  O   LIG    1      -41.055  72.799  25.613  0.00  0.00    -0.287 OA
BRANCH  22  31
ATOM     24  N   LIG    1      -38.695  69.937  23.193  0.00  0.00    -0.323 N 
ATOM     25  C   LIG    1      -37.679  70.153  24.101  0.00  0.00    +0.147 A 
ATOM     26  N   LIG    1      -36.533  69.459  24.175  0.00  0.00    -0.197 NA
ATOM     27  C   LIG    1      -35.719  69.864  25.153  0.00  0.00    +0.214 A 
ATOM     28  N   LIG    1      -35.955  70.855  26.019  0.00  0.00    -0.222 NA
ATOM     29  C   LIG    1      -37.102  71.566  25.897  0.00  0.00    +0.126 A 
ATOM     30  C   LIG    1      -38.026  71.223  24.912  0.00  0.00    +0.048 A 
ATOM     31  C   LIG    1      -39.303  71.702  24.489  0.00  0.00    +0.051 A 
ATOM     32  C   LIG    1      -39.721  70.822  23.499  0.00  0.00    +0.100 A 
BRANCH  24  34
ATOM     33  C   LIG    1      -39.979  69.066  21.233  0.00  0.00    +0.036 C 
ATOM     34  C   LIG    1      -38.694  68.932  22.098  0.00  0.00    +0.064 C 
ATOM     35  C   LIG    1      -38.676  67.497  22.663  0.00  0.00    +0.036 C 
BRANCH  34  36
ATOM     36  C   LIG    1      -37.501  69.119  21.105  0.00  0.00    +0.183 C 
BRANCH  36  37
ATOM     37  O   LIG    1      -37.310  68.082  20.153  0.00  0.00    -0.393 OA
ATOM     38  H   LIG    1      -38.187  67.720  19.918  0.00  0.00    +0.209 HD
ENDBRANCH  36  37
ENDBRANCH  34  36
ENDBRANCH  24  34
BRANCH  27  39
ATOM     39  N   LIG    1      -34.531  69.173  25.289  0.00  0.00    -0.327 N 
ATOM     40  H   LIG    1      -34.726  68.190  25.424  0.00  0.00    +0.145 HD
ATOM     41  H   LIG    1      -33.944  69.628  25.974  0.00  0.00    +0.145 HD
ENDBRANCH  27  39
ENDBRANCH  22  31
ENDBRANCH   1  22
TORSDOF 9
ENDMDL
MODEL 7
REMARK VINA RESULT:      -5.9      6.509     10.263
REMARK  Name = pdb/CHEMBL3671432.pdb
REMARK                            x       y       z     vdW  Elec       q    Type
REMARK                         _______ _______ _______ _____ _____    ______ ____
ROOT
ATOM      1  C   LIG    1      -34.374  66.567  19.757  0.00  0.00    +0.042 A 
ATOM      2  C   LIG    1      -35.780  66.604  19.810  0.00  0.00    +0.038 A 
ATOM      3  C   LIG    1      -36.435  66.771  21.038  0.00  0.00    +0.052 A 
ATOM      4  C   LIG    1      -35.629  66.877  22.170  0.00  0.00    +0.134 A 
ATOM      5  N   LIG    1      -34.272  66.871  22.150  0.00  0.00    -0.261 NA
ATOM      6  C   LIG    1      -33.678  66.741  20.945  0.00  0.00    +0.122 A 
ENDROOT
BRANCH   3   7
ATOM      7  N   LIG    1      -37.850  66.836  21.071  0.00  0.00    -0.284 N 
ATOM      8  H   LIG    1      -38.346  65.998  21.364  0.00  0.00    +0.155 HD
ATOM      9  C   LIG    1      -38.618  67.960  20.796  0.00  0.00    +0.225 C 
ATOM     10  O   LIG    1      -38.190  69.075  20.504  0.00  0.00    -0.275 OA
BRANCH   9  11
ATOM     11  C   LIG    1      -40.112  67.742  20.896  0.00  0.00    +0.170 C 
BRANCH  11  12
ATOM     12  C   LIG    1      -40.743  69.037  21.248  0.00  0.00    +0.117 A 
ATOM     13  N   LIG    1      -40.351  69.784  22.334  0.00  0.00    -0.341 N 
ATOM     14  H   LIG    1      -39.620  69.542  22.989  0.00  0.00    +0.167 HD
ATOM     15  C   LIG    1      -41.154  70.892  22.402  0.00  0.00    +0.066 A 
ATOM     16  C   LIG    1      -41.207  71.966  23.294  0.00  0.00    +0.028 A 
ATOM     17  C   LIG    1      -42.202  72.925  23.063  0.00  0.00    +0.002 A 
ATOM     18  C   LIG    1      -43.090  72.808  21.990  0.00  0.00    +0.002 A 
ATOM     19  C   LIG    1      -43.006  71.725  21.105  0.00  0.00    +0.030 A 
ATOM     20  C   LIG    1      -42.020  70.754  21.323  0.00  0.00    +0.089 A 
ATOM     21  N   LIG    1      -41.747  69.608  20.616  0.00  0.00    -0.232 NA
ENDBRANCH  11  12
ENDBRANCH   9  11
ENDBRANCH   3   7
BRANCH   1  22
ATOM     22  C   LIG    1      -33.662  66.428  18.466  0.00  0.00    +0.197 C 
ATOM     23  O   LIG    1      -34.102  65.600  17.654  0.00  0.00    -0.287 OA
BRANCH  22  31
ATOM     24  N   LIG    1      -31.112  68.932  17.540  0.00  0.00    -0.323 N 
ATOM     25  C   LIG    1      -30.327  68.000  18.186  0.00  0.00    +0.147 A 
ATOM     26  N   LIG    1      -29.012  68.113  18.426  0.00  0.00    -0.197 NA
ATOM     27  C   LIG    1      -28.487  67.064  19.063  0.00  0.00    +0.214 A 
ATOM     28  N   LIG    1      -29.143  65.964  19.451  0.00  0.00    -0.222 NA
ATOM     29  C   LIG    1      -30.478  65.893  19.231  0.00  0.00    +0.126 A 
ATOM     30  C   LIG    1      -31.127  66.933  18.569  0.00  0.00    +0.048 A 
ATOM     31  C   LIG    1      -32.464  67.213  18.156  0.00  0.00    +0.051 A 
ATOM     32  C   LIG    1      -32.391  68.402  17.441  0.00  0.00    +0.100 A 
BRANCH  24  34
ATOM     33  C   LIG    1      -29.538  70.081  15.975  0.00  0.00    +0.036 C 
ATOM     34  C   LIG    1      -30.664  70.255  17.032  0.00  0.00    +0.064 C 
ATOM     35  C   LIG    1      -30.085  71.119  18.172  0.00  0.00    +0.036 C 
BRANCH  34  36
ATOM     36  C   LIG    1      -31.803  71.043  16.305  0.00  0.00    +0.183 C 
BRANCH  36  37
ATOM     37  O   LIG    1      -32.529  71.969  17.100  0.00  0.00    -0.393 OA
ATOM     38  H   LIG    1      -32.872  71.495  17.882  0.00  0.00    +0.209 HD
ENDBRANCH  36  37
ENDBRANCH  34  36
ENDBRANCH  24  34
BRANCH  27  39
ATOM     39  N   LIG    1      -27.131  67.116  19.321  0.00  0.00    -0.327 N 
ATOM     40  H   LIG    1      -26.977  67.074  20.319  0.00  0.00    +0.145 HD
ATOM     41  H   LIG    1      -26.714  67.885  18.817  0.00  0.00    +0.145 HD
ENDBRANCH  27  39
ENDBRANCH  22  31
ENDBRANCH   1  22
TORSDOF 9
ENDMDL
MODEL 8
REMARK VINA RESULT:      -5.8     12.125     16.511
REMARK  Name = pdb/CHEMBL3671432.pdb
REMARK                            x       y       z     vdW  Elec       q    Type
REMARK                         _______ _______ _______ _____ _____    ______ ____
ROOT
ATOM      1  C   LIG    1      -20.617  76.810  30.779  0.00  0.00    +0.042 A 
ATOM      2  C   LIG    1      -20.853  77.816  31.735  0.00  0.00    +0.038 A 
ATOM      3  C   LIG    1      -19.807  78.274  32.549  0.00  0.00    +0.052 A 
ATOM      4  C   LIG    1      -18.561  77.676  32.366  0.00  0.00    +0.134 A 
ATOM      5  N   LIG    1      -18.295  76.724  31.436  0.00  0.00    -0.261 NA
ATOM      6  C   LIG    1      -19.320  76.332  30.651  0.00  0.00    +0.122 A 
ENDROOT
BRANCH   3   7
ATOM      7  N   LIG    1      -20.055  79.306  33.487  0.00  0.00    -0.284 N 
ATOM      8  H   LIG    1      -20.014  80.263  33.145  0.00  0.00    +0.155 HD
ATOM      9  C   LIG    1      -20.407  79.126  34.818  0.00  0.00    +0.225 C 
ATOM     10  O   LIG    1      -20.580  78.048  35.382  0.00  0.00    -0.275 OA
BRANCH   9  11
ATOM     11  C   LIG    1      -20.600  80.410  35.597  0.00  0.00    +0.170 C 
BRANCH  11  12
ATOM     12  C   LIG    1      -21.988  80.425  36.120  0.00  0.00    +0.117 A 
ATOM     13  N   LIG    1      -23.022  79.761  35.504  0.00  0.00    -0.341 N 
ATOM     14  H   LIG    1      -22.955  79.212  34.657  0.00  0.00    +0.167 HD
ATOM     15  C   LIG    1      -24.170  80.009  36.210  0.00  0.00    +0.066 A 
ATOM     16  C   LIG    1      -25.495  79.604  36.031  0.00  0.00    +0.028 A 
ATOM     17  C   LIG    1      -26.430  80.086  36.956  0.00  0.00    +0.002 A 
ATOM     18  C   LIG    1      -26.047  80.927  38.005  0.00  0.00    +0.002 A 
ATOM     19  C   LIG    1      -24.709  81.308  38.167  0.00  0.00    +0.030 A 
ATOM     20  C   LIG    1      -23.760  80.839  37.248  0.00  0.00    +0.089 A 
ATOM     21  N   LIG    1      -22.409  81.079  37.183  0.00  0.00    -0.232 NA
ENDBRANCH  11  12
ENDBRANCH   9  11
ENDBRANCH   3   7
BRANCH   1  22
ATOM     22  C   LIG    1      -21.698  76.338  29.884  0.00  0.00    +0.197 C 
ATOM     23  O   LIG    1      -21.557  76.525  28.666  0.00  0.00    -0.287 OA
BRANCH  22  31
ATOM     24  N   LIG    1      -24.293  74.216  31.431  0.00  0.00    -0.323 N 
ATOM     25  C   LIG    1      -24.993  75.394  31.272  0.00  0.00    +0.147 A 
ATOM     26  N   LIG    1      -26.251  75.621  31.680  0.00  0.00    -0.197 NA
ATOM     27  C   LIG    1      -26.699  76.846  31.395  0.00  0.00    +0.214 A 
ATOM     28  N   LIG    1      -26.020  77.809  30.761  0.00  0.00    -0.222 NA
ATOM     29  C   LIG    1      -24.738  77.567  30.395  0.00  0.00    +0.126 A 
ATOM     30  C   LIG    1      -24.172  76.318  30.641  0.00  0.00    +0.048 A 
ATOM     31  C   LIG    1      -22.908  75.697  30.406  0.00  0.00    +0.051 A 
ATOM     32  C   LIG    1      -23.060  74.378  30.815  0.00  0.00    +0.100 A 
BRANCH  24  34
ATOM     33  C   LIG    1      -25.419  73.362  33.493  0.00  0.00    +0.036 C 
ATOM     34  C   LIG    1      -24.779  72.994  32.124  0.00  0.00    +0.064 C 
ATOM     35  C   LIG    1      -23.617  72.022  32.415  0.00  0.00    +0.036 C 
BRANCH  34  36
ATOM     36  C   LIG    1      -25.898  72.249  31.327  0.00  0.00    +0.183 C 
BRANCH  36  37
ATOM     37  O   LIG    1      -27.212  72.775  31.451  0.00  0.00    -0.393 OA
ATOM     38  H   LIG    1      -27.349  73.423  30.733  0.00  0.00    +0.209 HD
ENDBRANCH  36  37
ENDBRANCH  34  36
ENDBRANCH  24  34
BRANCH  27  39
ATOM     39  N   LIG    1      -27.995  77.131  31.774  0.00  0.00    -0.327 N 
ATOM     40  H   LIG    1      -28.013  78.005  32.282  0.00  0.00    +0.145 HD
ATOM     41  H   LIG    1      -28.409  76.325  32.219  0.00  0.00    +0.145 HD
ENDBRANCH  27  39
ENDBRANCH  22  31
ENDBRANCH   1  22
TORSDOF 9
ENDMDL
MODEL 9
REMARK VINA RESULT:      -5.7     10.796     16.523
REMARK  Name = pdb/CHEMBL3671432.pdb
REMARK                            x       y       z     vdW  Elec       q    Type
REMARK                         _______ _______ _______ _____ _____    ______ ____
ROOT
ATOM      1  C   LIG    1      -32.646  86.134  30.750  0.00  0.00    +0.042 A 
ATOM      2  C   LIG    1      -33.081  85.127  29.867  0.00  0.00    +0.038 A 
ATOM      3  C   LIG    1      -34.450  84.936  29.636  0.00  0.00    +0.052 A 
ATOM      4  C   LIG    1      -35.326  85.771  30.328  0.00  0.00    +0.134 A 
ATOM      5  N   LIG    1      -34.939  86.768  31.163  0.00  0.00    -0.261 NA
ATOM      6  C   LIG    1      -33.611  86.941  31.336  0.00  0.00    +0.122 A 
ENDROOT
BRANCH   3   7
ATOM      7  N   LIG    1      -34.870  83.938  28.723  0.00  0.00    -0.284 N 
ATOM      8  H   LIG    1      -34.861  84.178  27.735  0.00  0.00    +0.155 HD
ATOM      9  C   LIG    1      -35.238  82.640  29.053  0.00  0.00    +0.225 C 
ATOM     10  O   LIG    1      -35.235  82.150  30.181  0.00  0.00    -0.275 OA
BRANCH   9  11
ATOM     11  C   LIG    1      -35.656  81.786  27.875  0.00  0.00    +0.170 C 
BRANCH  11  12
ATOM     12  C   LIG    1      -34.864  80.533  27.913  0.00  0.00    +0.117 A 
ATOM     13  N   LIG    1      -35.050  79.563  28.870  0.00  0.00    -0.341 N 
ATOM     14  H   LIG    1      -35.720  79.597  29.627  0.00  0.00    +0.167 HD
ATOM     15  C   LIG    1      -34.139  78.564  28.649  0.00  0.00    +0.066 A 
ATOM     16  C   LIG    1      -33.876  77.363  29.311  0.00  0.00    +0.028 A 
ATOM     17  C   LIG    1      -32.825  76.585  28.807  0.00  0.00    +0.002 A 
ATOM     18  C   LIG    1      -32.085  76.996  27.695  0.00  0.00    +0.002 A 
ATOM     19  C   LIG    1      -32.378  78.201  27.043  0.00  0.00    +0.030 A 
ATOM     20  C   LIG    1      -33.424  78.994  27.536  0.00  0.00    +0.089 A 
ATOM     21  N   LIG    1      -33.889  80.207  27.089  0.00  0.00    -0.232 NA
ENDBRANCH  11  12
ENDBRANCH   9  11
ENDBRANCH   3   7
BRANCH   1  22
ATOM     22  C   LIG    1      -31.203  86.377  30.980  0.00  0.00    +0.197 C 
ATOM     23  O   LIG    1      -30.459  86.394  29.987  0.00  0.00    -0.287 OA
BRANCH  22  31
ATOM     24  N   LIG    1      -29.779  86.130  34.377  0.00  0.00    -0.323 N 
ATOM     25  C   LIG    1      -29.569  87.468  34.112  0.00  0.00    +0.147 A 
ATOM     26  N   LIG    1      -28.936  88.336  34.915  0.00  0.00    -0.197 NA
ATOM     27  C   LIG    1      -28.875  89.578  34.427  0.00  0.00    +0.214 A 
ATOM     28  N   LIG    1      -29.380  89.994  33.260  0.00  0.00    -0.222 NA
ATOM     29  C   LIG    1      -29.980  89.088  32.451  0.00  0.00    +0.126 A 
ATOM     30  C   LIG    1      -30.101  87.764  32.865  0.00  0.00    +0.048 A 
ATOM     31  C   LIG    1      -30.656  86.564  32.326  0.00  0.00    +0.051 A 
ATOM     32  C   LIG    1      -30.526  85.611  33.328  0.00  0.00    +0.100 A 
BRANCH  24  34
ATOM     33  C   LIG    1      -29.994  83.998  35.664  0.00  0.00    +0.036 C 
ATOM     34  C   LIG    1      -29.303  85.388  35.573  0.00  0.00    +0.064 C 
ATOM     35  C   LIG    1      -29.646  86.149  36.870  0.00  0.00    +0.036 C 
BRANCH  34  36
ATOM     36  C   LIG    1      -27.769  85.090  35.530  0.00  0.00    +0.183 C 
BRANCH  36  37
ATOM     37  O   LIG    1      -26.910  86.193  35.780  0.00  0.00    -0.393 OA
ATOM     38  H   LIG    1      -26.333  86.312  35.000  0.00  0.00    +0.209 HD
ENDBRANCH  36  37
ENDBRANCH  34  36
ENDBRANCH  24  34
BRANCH  27  39
ATOM     39  N   LIG    1      -28.250  90.520  35.218  0.00  0.00    -0.327 N 
ATOM     40  H   LIG    1      -27.433  90.110  35.649  0.00  0.00    +0.145 HD
ATOM     41  H   LIG    1      -28.924  90.961  35.827  0.00  0.00    +0.145 HD
ENDBRANCH  27  39
ENDBRANCH  22  31
ENDBRANCH   1  22
TORSDOF 9
ENDMDL
