MODEL 1
REMARK VINA RESULT:      -6.7      0.000      0.000
REMARK  Name = pdb/CHEMBL3937886.pdb
REMARK                            x       y       z     vdW  Elec       q    Type
REMARK                         _______ _______ _______ _____ _____    ______ ____
ROOT
ATOM      1  C   LIG    1      -31.275  87.162  30.740  0.00  0.00    +0.149 A 
ATOM      2  N   LIG    1      -32.357  87.934  30.546  0.00  0.00    -0.160 NA
ATOM      3  N   LIG    1      -33.222  87.157  29.824  0.00  0.00    -0.218 N 
ATOM      4  C   LIG    1      -32.756  85.830  29.730  0.00  0.00    +0.129 A 
ATOM      5  C   LIG    1      -31.490  85.849  30.269  0.00  0.00    +0.078 A 
ENDROOT
BRANCH   3   6
ATOM      6  C   LIG    1      -34.437  87.736  29.335  0.00  0.00    +0.067 A 
ATOM      7  C   LIG    1      -35.686  87.321  29.804  0.00  0.00    +0.028 A 
ATOM      8  C   LIG    1      -36.865  87.897  29.313  0.00  0.00    +0.002 A 
ATOM      9  C   LIG    1      -36.810  88.887  28.338  0.00  0.00    +0.000 A 
ATOM     10  C   LIG    1      -35.574  89.297  27.845  0.00  0.00    +0.002 A 
ATOM     11  C   LIG    1      -34.393  88.716  28.327  0.00  0.00    +0.028 A 
ENDBRANCH   3   6
BRANCH   4  12
ATOM     12  N   LIG    1      -33.441  84.698  29.274  0.00  0.00    -0.266 N 
ATOM     13  H   LIG    1      -33.402  84.490  28.281  0.00  0.00    +0.157 HD
ATOM     14  C   LIG    1      -34.272  83.842  30.108  0.00  0.00    +0.251 C 
ATOM     15  O   LIG    1      -34.418  84.062  31.290  0.00  0.00    -0.270 OA
BRANCH  14  16
ATOM     16  C   LIG    1      -34.990  82.720  29.432  0.00  0.00    +0.056 A 
ATOM     17  C   LIG    1      -36.359  82.692  29.190  0.00  0.00    +0.054 A 
ATOM     18 CL   LIG    1      -37.418  84.009  29.503  0.00  0.00    -0.083 Cl
ATOM     19  C   LIG    1      -36.952  81.563  28.626  0.00  0.00    +0.041 A 
ATOM     20  C   LIG    1      -36.183  80.457  28.250  0.00  0.00    +0.052 A 
ATOM     21 CL   LIG    1      -37.103  79.101  27.691  0.00  0.00    -0.083 Cl
ATOM     22  C   LIG    1      -34.780  80.471  28.380  0.00  0.00    +0.019 A 
ATOM     23  C   LIG    1      -34.214  81.622  28.996  0.00  0.00    +0.026 A 
BRANCH  22  24
ATOM     24  C   LIG    1      -33.873  79.384  27.932  0.00  0.00    +0.072 A 
ATOM     25  N   LIG    1      -33.226  79.620  26.762  0.00  0.00    -0.255 NA
ATOM     26  C   LIG    1      -32.412  78.651  26.274  0.00  0.00    +0.111 A 
ATOM     27  C   LIG    1      -32.190  77.441  26.905  0.00  0.00    +0.020 A 
ATOM     28  C   LIG    1      -32.854  77.201  28.096  0.00  0.00    +0.004 A 
ATOM     29  C   LIG    1      -33.721  78.168  28.600  0.00  0.00    +0.028 A 
ENDBRANCH  22  24
ENDBRANCH  14  16
ENDBRANCH   4  12
BRANCH   1  30
ATOM     30  C   LIG    1      -30.097  87.666  31.445  0.00  0.00    +0.236 C 
ATOM     31  N   LIG    1      -30.080  87.754  32.727  0.00  0.00    -0.249 NA
BRANCH  30  32
ATOM     32  O   LIG    1      -29.070  88.036  30.646  0.00  0.00    -0.491 OA
ATOM     33  H   LIG    1      -28.943  87.364  29.952  0.00  0.00    +0.294 HD
ENDBRANCH  30  32
BRANCH  31  34
ATOM     34  C   LIG    1      -28.842  88.268  33.326  0.00  0.00    +0.151 C 
BRANCH  34  35
ATOM     35  C   LIG    1      -28.545  87.520  34.626  0.00  0.00    +0.038 C 
ATOM     36  C   LIG    1      -27.067  87.350  34.920  0.00  0.00    +0.165 C 
ATOM     37  O   LIG    1      -26.956  86.139  35.675  0.00  0.00    -0.379 OA
ATOM     38  C   LIG    1      -27.959  85.246  35.187  0.00  0.00    +0.160 C 
ATOM     39  C   LIG    1      -29.084  86.096  34.630  0.00  0.00    +0.035 C 
ENDBRANCH  34  35
ENDBRANCH  31  34
ENDBRANCH   1  30
TORSDOF 8
ENDMDL
MODEL 2
REMARK VINA RESULT:      -6.5      6.684     10.987
REMARK  Name = pdb/CHEMBL3937886.pdb
REMARK                            x       y       z     vdW  Elec       q    Type
REMARK                         _______ _______ _______ _____ _____    ______ ____
ROOT
ATOM      1  C   LIG    1      -37.146  79.945  27.762  0.00  0.00    +0.149 A 
ATOM      2  N   LIG    1      -36.026  79.212  27.875  0.00  0.00    -0.160 NA
ATOM      3  N   LIG    1      -36.407  77.933  27.574  0.00  0.00    -0.218 N 
ATOM      4  C   LIG    1      -37.729  77.898  27.084  0.00  0.00    +0.129 A 
ATOM      5  C   LIG    1      -38.214  79.175  27.255  0.00  0.00    +0.078 A 
ENDROOT
BRANCH   3   6
ATOM      6  C   LIG    1      -35.462  76.868  27.728  0.00  0.00    +0.067 A 
ATOM      7  C   LIG    1      -34.096  77.065  27.513  0.00  0.00    +0.028 A 
ATOM      8  C   LIG    1      -33.185  76.012  27.667  0.00  0.00    +0.002 A 
ATOM      9  C   LIG    1      -33.631  74.745  28.027  0.00  0.00    +0.000 A 
ATOM     10  C   LIG    1      -34.992  74.528  28.225  0.00  0.00    +0.002 A 
ATOM     11  C   LIG    1      -35.906  75.577  28.062  0.00  0.00    +0.028 A 
ENDBRANCH   3   6
BRANCH   4  12
ATOM     12  N   LIG    1      -38.401  76.836  26.469  0.00  0.00    -0.266 N 
ATOM     13  H   LIG    1      -39.112  76.352  27.008  0.00  0.00    +0.157 HD
ATOM     14  C   LIG    1      -38.099  76.323  25.141  0.00  0.00    +0.251 C 
ATOM     15  O   LIG    1      -37.221  76.808  24.461  0.00  0.00    -0.270 OA
BRANCH  14  16
ATOM     16  C   LIG    1      -38.871  75.131  24.678  0.00  0.00    +0.056 A 
ATOM     17  C   LIG    1      -40.104  75.189  24.039  0.00  0.00    +0.054 A 
ATOM     18 CL   LIG    1      -40.868  76.650  23.555  0.00  0.00    -0.083 Cl
ATOM     19  C   LIG    1      -40.787  74.017  23.717  0.00  0.00    +0.041 A 
ATOM     20  C   LIG    1      -40.230  72.762  23.986  0.00  0.00    +0.052 A 
ATOM     21 CL   LIG    1      -41.275  71.425  23.638  0.00  0.00    -0.083 Cl
ATOM     22  C   LIG    1      -38.940  72.644  24.539  0.00  0.00    +0.019 A 
ATOM     23  C   LIG    1      -38.290  73.860  24.891  0.00  0.00    +0.026 A 
BRANCH  22  24
ATOM     24  C   LIG    1      -38.232  71.361  24.781  0.00  0.00    +0.072 A 
ATOM     25  N   LIG    1      -37.824  71.162  26.061  0.00  0.00    -0.255 NA
ATOM     26  C   LIG    1      -37.135  70.028  26.343  0.00  0.00    +0.111 A 
ATOM     27  C   LIG    1      -36.834  69.055  25.407  0.00  0.00    +0.020 A 
ATOM     28  C   LIG    1      -37.248  69.263  24.103  0.00  0.00    +0.004 A 
ATOM     29  C   LIG    1      -37.928  70.435  23.781  0.00  0.00    +0.028 A 
ENDBRANCH  22  24
ENDBRANCH  14  16
ENDBRANCH   4  12
BRANCH   1  30
ATOM     30  C   LIG    1      -37.151  81.378  28.054  0.00  0.00    +0.236 C 
ATOM     31  N   LIG    1      -36.230  82.150  27.598  0.00  0.00    -0.249 NA
BRANCH  30  32
ATOM     32  O   LIG    1      -38.170  81.796  28.839  0.00  0.00    -0.491 OA
ATOM     33  H   LIG    1      -37.950  82.667  29.217  0.00  0.00    +0.294 HD
ENDBRANCH  30  32
BRANCH  31  34
ATOM     34  C   LIG    1      -36.340  83.570  27.951  0.00  0.00    +0.151 C 
BRANCH  34  35
ATOM     35  C   LIG    1      -36.550  84.404  26.687  0.00  0.00    +0.038 C 
ATOM     36  C   LIG    1      -37.935  85.012  26.568  0.00  0.00    +0.165 C 
ATOM     37  O   LIG    1      -38.193  85.122  25.164  0.00  0.00    -0.379 OA
ATOM     38  C   LIG    1      -37.563  84.006  24.532  0.00  0.00    +0.160 C 
ATOM     39  C   LIG    1      -36.395  83.595  25.407  0.00  0.00    +0.035 C 
ENDBRANCH  34  35
ENDBRANCH  31  34
ENDBRANCH   1  30
TORSDOF 8
ENDMDL
MODEL 3
REMARK VINA RESULT:      -6.4     18.299     20.078
REMARK  Name = pdb/CHEMBL3937886.pdb
REMARK                            x       y       z     vdW  Elec       q    Type
REMARK                         _______ _______ _______ _____ _____    ______ ____
ROOT
ATOM      1  C   LIG    1      -22.088  82.582  15.681  0.00  0.00    +0.149 A 
ATOM      2  N   LIG    1      -20.811  82.175  15.586  0.00  0.00    -0.160 NA
ATOM      3  N   LIG    1      -20.863  80.813  15.705  0.00  0.00    -0.218 N 
ATOM      4  C   LIG    1      -22.195  80.351  15.683  0.00  0.00    +0.129 A 
ATOM      5  C   LIG    1      -22.974  81.486  15.721  0.00  0.00    +0.078 A 
ENDROOT
BRANCH   3   6
ATOM      6  C   LIG    1      -19.640  80.071  15.776  0.00  0.00    +0.067 A 
ATOM      7  C   LIG    1      -19.526  78.920  16.558  0.00  0.00    +0.028 A 
ATOM      8  C   LIG    1      -18.322  78.207  16.618  0.00  0.00    +0.002 A 
ATOM      9  C   LIG    1      -17.212  78.644  15.902  0.00  0.00    +0.000 A 
ATOM     10  C   LIG    1      -17.303  79.802  15.134  0.00  0.00    +0.002 A 
ATOM     11  C   LIG    1      -18.504  80.522  15.082  0.00  0.00    +0.028 A 
ENDBRANCH   3   6
BRANCH   4  12
ATOM     12  N   LIG    1      -22.658  79.037  15.559  0.00  0.00    -0.266 N 
ATOM     13  H   LIG    1      -23.117  78.620  16.363  0.00  0.00    +0.157 HD
ATOM     14  C   LIG    1      -22.457  78.195  14.389  0.00  0.00    +0.251 C 
ATOM     15  O   LIG    1      -21.864  78.601  13.414  0.00  0.00    -0.270 OA
BRANCH  14  16
ATOM     16  C   LIG    1      -22.956  76.789  14.465  0.00  0.00    +0.056 A 
ATOM     17  C   LIG    1      -23.859  76.222  13.573  0.00  0.00    +0.054 A 
ATOM     18 CL   LIG    1      -24.435  77.009  12.159  0.00  0.00    -0.083 Cl
ATOM     19  C   LIG    1      -24.329  74.925  13.775  0.00  0.00    +0.041 A 
ATOM     20  C   LIG    1      -23.871  74.151  14.846  0.00  0.00    +0.052 A 
ATOM     21 CL   LIG    1      -24.660  72.619  15.013  0.00  0.00    -0.083 Cl
ATOM     22  C   LIG    1      -22.881  74.638  15.722  0.00  0.00    +0.019 A 
ATOM     23  C   LIG    1      -22.454  75.979  15.510  0.00  0.00    +0.026 A 
BRANCH  22  24
ATOM     24  C   LIG    1      -22.271  73.864  16.833  0.00  0.00    +0.072 A 
ATOM     25  N   LIG    1      -20.991  73.463  16.619  0.00  0.00    -0.255 NA
ATOM     26  C   LIG    1      -20.387  72.717  17.577  0.00  0.00    +0.111 A 
ATOM     27  C   LIG    1      -20.992  72.350  18.765  0.00  0.00    +0.020 A 
ATOM     28  C   LIG    1      -22.297  72.757  18.978  0.00  0.00    +0.004 A 
ATOM     29  C   LIG    1      -22.951  73.496  17.995  0.00  0.00    +0.028 A 
ENDBRANCH  22  24
ENDBRANCH  14  16
ENDBRANCH   4  12
BRANCH   1  30
ATOM     30  C   LIG    1      -22.439  84.001  15.643  0.00  0.00    +0.236 C 
ATOM     31  N   LIG    1      -22.254  84.701  14.582  0.00  0.00    -0.249 NA
BRANCH  30  32
ATOM     32  O   LIG    1      -22.941  84.495  16.798  0.00  0.00    -0.491 OA
ATOM     33  H   LIG    1      -22.441  85.293  17.052  0.00  0.00    +0.294 HD
ENDBRANCH  30  32
BRANCH  31  34
ATOM     34  C   LIG    1      -22.649  86.113  14.657  0.00  0.00    +0.151 C 
BRANCH  34  35
ATOM     35  C   LIG    1      -21.405  87.000  14.678  0.00  0.00    +0.038 C 
ATOM     36  C   LIG    1      -21.591  88.346  14.003  0.00  0.00    +0.165 C 
ATOM     37  O   LIG    1      -20.301  88.713  13.502  0.00  0.00    -0.379 OA
ATOM     38  C   LIG    1      -19.647  87.507  13.102  0.00  0.00    +0.160 C 
ATOM     39  C   LIG    1      -20.222  86.384  13.944  0.00  0.00    +0.035 C 
ENDBRANCH  34  35
ENDBRANCH  31  34
ENDBRANCH   1  30
TORSDOF 8
ENDMDL
MODEL 4
REMARK VINA RESULT:      -6.4      6.101     10.346
REMARK  Name = pdb/CHEMBL3937886.pdb
REMARK                            x       y       z     vdW  Elec       q    Type
REMARK                         _______ _______ _______ _____ _____    ______ ____
ROOT
ATOM      1  C   LIG    1      -37.112  79.917  27.714  0.00  0.00    +0.149 A 
ATOM      2  N   LIG    1      -36.005  79.167  27.846  0.00  0.00    -0.160 NA
ATOM      3  N   LIG    1      -36.404  77.892  27.552  0.00  0.00    -0.218 N 
ATOM      4  C   LIG    1      -37.721  77.874  27.048  0.00  0.00    +0.129 A 
ATOM      5  C   LIG    1      -38.187  79.160  27.203  0.00  0.00    +0.078 A 
ENDROOT
BRANCH   3   6
ATOM      6  C   LIG    1      -35.479  76.813  27.726  0.00  0.00    +0.067 A 
ATOM      7  C   LIG    1      -35.905  75.534  28.094  0.00  0.00    +0.028 A 
ATOM      8  C   LIG    1      -34.985  74.491  28.262  0.00  0.00    +0.002 A 
ATOM      9  C   LIG    1      -33.626  74.717  28.075  0.00  0.00    +0.000 A 
ATOM     10  C   LIG    1      -33.183  75.990  27.728  0.00  0.00    +0.002 A 
ATOM     11  C   LIG    1      -34.100  77.038  27.570  0.00  0.00    +0.028 A 
ENDBRANCH   3   6
BRANCH   4  12
ATOM     12  N   LIG    1      -38.404  76.818  26.436  0.00  0.00    -0.266 N 
ATOM     13  H   LIG    1      -39.128  76.350  26.972  0.00  0.00    +0.157 HD
ATOM     14  C   LIG    1      -38.097  76.289  25.115  0.00  0.00    +0.251 C 
ATOM     15  O   LIG    1      -37.205  76.754  24.440  0.00  0.00    -0.270 OA
BRANCH  14  16
ATOM     16  C   LIG    1      -38.884  75.105  24.654  0.00  0.00    +0.056 A 
ATOM     17  C   LIG    1      -40.112  75.177  24.007  0.00  0.00    +0.054 A 
ATOM     18 CL   LIG    1      -40.851  76.646  23.509  0.00  0.00    -0.083 Cl
ATOM     19  C   LIG    1      -40.810  74.013  23.688  0.00  0.00    +0.041 A 
ATOM     20  C   LIG    1      -40.274  72.752  23.968  0.00  0.00    +0.052 A 
ATOM     21 CL   LIG    1      -41.336  71.429  23.622  0.00  0.00    -0.083 Cl
ATOM     22  C   LIG    1      -38.990  72.618  24.531  0.00  0.00    +0.019 A 
ATOM     23  C   LIG    1      -38.324  73.827  24.880  0.00  0.00    +0.026 A 
BRANCH  22  24
ATOM     24  C   LIG    1      -38.302  71.327  24.785  0.00  0.00    +0.072 A 
ATOM     25  N   LIG    1      -38.039  71.063  26.091  0.00  0.00    -0.255 NA
ATOM     26  C   LIG    1      -37.376  69.919  26.391  0.00  0.00    +0.111 A 
ATOM     27  C   LIG    1      -36.964  68.996  25.447  0.00  0.00    +0.020 A 
ATOM     28  C   LIG    1      -37.231  69.269  24.117  0.00  0.00    +0.004 A 
ATOM     29  C   LIG    1      -37.881  70.454  23.781  0.00  0.00    +0.028 A 
ENDBRANCH  22  24
ENDBRANCH  14  16
ENDBRANCH   4  12
BRANCH   1  30
ATOM     30  C   LIG    1      -37.096  81.352  27.994  0.00  0.00    +0.236 C 
ATOM     31  N   LIG    1      -36.039  82.054  27.792  0.00  0.00    -0.249 NA
BRANCH  30  32
ATOM     32  O   LIG    1      -38.254  81.850  28.486  0.00  0.00    -0.491 OA
ATOM     33  H   LIG    1      -38.794  81.120  28.839  0.00  0.00    +0.294 HD
ENDBRANCH  30  32
BRANCH  31  34
ATOM     34  C   LIG    1      -36.140  83.486  28.102  0.00  0.00    +0.151 C 
BRANCH  34  35
ATOM     35  C   LIG    1      -35.266  83.819  29.311  0.00  0.00    +0.038 C 
ATOM     36  C   LIG    1      -34.427  82.657  29.809  0.00  0.00    +0.165 C 
ATOM     37  O   LIG    1      -34.255  82.875  31.214  0.00  0.00    -0.379 OA
ATOM     38  C   LIG    1      -35.454  83.485  31.695  0.00  0.00    +0.160 C 
ATOM     39  C   LIG    1      -36.072  84.238  30.532  0.00  0.00    +0.035 C 
ENDBRANCH  34  35
ENDBRANCH  31  34
ENDBRANCH   1  30
TORSDOF 8
ENDMDL
MODEL 5
REMARK VINA RESULT:      -6.3     18.320     20.024
REMARK  Name = pdb/CHEMBL3937886.pdb
REMARK                            x       y       z     vdW  Elec       q    Type
REMARK                         _______ _______ _______ _____ _____    ______ ____
ROOT
ATOM      1  C   LIG    1      -22.599  82.888  15.152  0.00  0.00    +0.149 A 
ATOM      2  N   LIG    1      -23.778  82.328  14.835  0.00  0.00    -0.160 NA
ATOM      3  N   LIG    1      -23.537  80.981  14.812  0.00  0.00    -0.218 N 
ATOM      4  C   LIG    1      -22.249  80.687  15.304  0.00  0.00    +0.129 A 
ATOM      5  C   LIG    1      -21.635  81.908  15.470  0.00  0.00    +0.078 A 
ENDROOT
BRANCH   3   6
ATOM      6  C   LIG    1      -24.572  80.094  14.375  0.00  0.00    +0.067 A 
ATOM      7  C   LIG    1      -24.976  80.042  13.039  0.00  0.00    +0.028 A 
ATOM      8  C   LIG    1      -25.993  79.169  12.628  0.00  0.00    +0.002 A 
ATOM      9  C   LIG    1      -26.626  78.345  13.553  0.00  0.00    +0.000 A 
ATOM     10  C   LIG    1      -26.249  78.401  14.892  0.00  0.00    +0.002 A 
ATOM     11  C   LIG    1      -25.240  79.280  15.307  0.00  0.00    +0.028 A 
ENDBRANCH   3   6
BRANCH   4  12
ATOM     12  N   LIG    1      -21.712  79.441  15.645  0.00  0.00    -0.266 N 
ATOM     13  H   LIG    1      -21.530  79.257  16.626  0.00  0.00    +0.157 HD
ATOM     14  C   LIG    1      -21.320  78.419  14.686  0.00  0.00    +0.251 C 
ATOM     15  O   LIG    1      -21.448  78.590  13.493  0.00  0.00    -0.270 OA
BRANCH  14  16
ATOM     16  C   LIG    1      -20.692  77.177  15.229  0.00  0.00    +0.056 A 
ATOM     17  C   LIG    1      -19.326  77.007  15.433  0.00  0.00    +0.054 A 
ATOM     18 CL   LIG    1      -18.162  78.253  15.223  0.00  0.00    -0.083 Cl
ATOM     19  C   LIG    1      -18.826  75.781  15.867  0.00  0.00    +0.041 A 
ATOM     20  C   LIG    1      -19.683  74.713  16.152  0.00  0.00    +0.052 A 
ATOM     21 CL   LIG    1      -18.877  73.234  16.552  0.00  0.00    -0.083 Cl
ATOM     22  C   LIG    1      -21.081  74.860  16.061  0.00  0.00    +0.019 A 
ATOM     23  C   LIG    1      -21.554  76.112  15.576  0.00  0.00    +0.026 A 
BRANCH  22  24
ATOM     24  C   LIG    1      -22.073  73.816  16.423  0.00  0.00    +0.072 A 
ATOM     25  N   LIG    1      -22.799  73.327  15.384  0.00  0.00    -0.255 NA
ATOM     26  C   LIG    1      -23.751  72.399  15.650  0.00  0.00    +0.111 A 
ATOM     27  C   LIG    1      -24.018  71.909  16.915  0.00  0.00    +0.020 A 
ATOM     28  C   LIG    1      -23.279  72.411  17.972  0.00  0.00    +0.004 A 
ATOM     29  C   LIG    1      -22.318  73.390  17.729  0.00  0.00    +0.028 A 
ENDBRANCH  22  24
ENDBRANCH  14  16
ENDBRANCH   4  12
BRANCH   1  30
ATOM     30  C   LIG    1      -22.442  84.339  15.230  0.00  0.00    +0.236 C 
ATOM     31  N   LIG    1      -21.927  85.003  14.258  0.00  0.00    -0.249 NA
BRANCH  30  32
ATOM     32  O   LIG    1      -22.858  84.896  16.391  0.00  0.00    -0.491 OA
ATOM     33  H   LIG    1      -23.833  84.893  16.419  0.00  0.00    +0.294 HD
ENDBRANCH  30  32
BRANCH  31  34
ATOM     34  C   LIG    1      -21.826  86.456  14.445  0.00  0.00    +0.151 C 
BRANCH  34  35
ATOM     35  C   LIG    1      -20.364  86.891  14.348  0.00  0.00    +0.038 C 
ATOM     36  C   LIG    1      -20.135  88.105  13.468  0.00  0.00    +0.165 C 
ATOM     37  O   LIG    1      -18.813  87.959  12.938  0.00  0.00    -0.379 OA
ATOM     38  C   LIG    1      -18.590  86.561  12.742  0.00  0.00    +0.160 C 
ATOM     39  C   LIG    1      -19.463  85.824  13.740  0.00  0.00    +0.035 C 
ENDBRANCH  34  35
ENDBRANCH  31  34
ENDBRANCH   1  30
TORSDOF 8
ENDMDL
MODEL 6
REMARK VINA RESULT:      -6.2      8.932     13.281
REMARK  Name = pdb/CHEMBL3937886.pdb
REMARK                            x       y       z     vdW  Elec       q    Type
REMARK                         _______ _______ _______ _____ _____    ______ ____
ROOT
ATOM      1  C   LIG    1      -37.388  76.852  26.515  0.00  0.00    +0.149 A 
ATOM      2  N   LIG    1      -38.637  77.039  26.057  0.00  0.00    -0.160 NA
ATOM      3  N   LIG    1      -38.864  75.989  25.208  0.00  0.00    -0.218 N 
ATOM      4  C   LIG    1      -37.824  75.040  25.283  0.00  0.00    +0.129 A 
ATOM      5  C   LIG    1      -36.860  75.619  26.077  0.00  0.00    +0.078 A 
ENDROOT
BRANCH   3   6
ATOM      6  C   LIG    1      -40.075  75.959  24.444  0.00  0.00    +0.067 A 
ATOM      7  C   LIG    1      -40.735  77.133  24.071  0.00  0.00    +0.028 A 
ATOM      8  C   LIG    1      -41.920  77.085  23.325  0.00  0.00    +0.002 A 
ATOM      9  C   LIG    1      -42.465  75.862  22.952  0.00  0.00    +0.000 A 
ATOM     10  C   LIG    1      -41.831  74.683  23.333  0.00  0.00    +0.002 A 
ATOM     11  C   LIG    1      -40.651  74.727  24.088  0.00  0.00    +0.028 A 
ENDBRANCH   3   6
BRANCH   4  12
ATOM     12  N   LIG    1      -37.787  73.747  24.751  0.00  0.00    -0.266 N 
ATOM     13  H   LIG    1      -37.617  73.651  23.755  0.00  0.00    +0.157 HD
ATOM     14  C   LIG    1      -38.055  72.533  25.508  0.00  0.00    +0.251 C 
ATOM     15  O   LIG    1      -38.328  72.571  26.687  0.00  0.00    -0.270 OA
BRANCH  14  16
ATOM     16  C   LIG    1      -38.045  71.243  24.754  0.00  0.00    +0.056 A 
ATOM     17  C   LIG    1      -36.977  70.353  24.727  0.00  0.00    +0.054 A 
ATOM     18 CL   LIG    1      -35.553  70.532  25.672  0.00  0.00    -0.083 Cl
ATOM     19  C   LIG    1      -37.031  69.212  23.927  0.00  0.00    +0.041 A 
ATOM     20  C   LIG    1      -38.171  68.913  23.174  0.00  0.00    +0.052 A 
ATOM     21 CL   LIG    1      -38.007  67.531  22.145  0.00  0.00    -0.083 Cl
ATOM     22  C   LIG    1      -39.319  69.726  23.243  0.00  0.00    +0.019 A 
ATOM     23  C   LIG    1      -39.215  70.902  24.037  0.00  0.00    +0.026 A 
BRANCH  22  24
ATOM     24  C   LIG    1      -40.603  69.446  22.550  0.00  0.00    +0.072 A 
ATOM     25  N   LIG    1      -41.304  68.392  23.043  0.00  0.00    -0.255 NA
ATOM     26  C   LIG    1      -42.467  68.056  22.431  0.00  0.00    +0.111 A 
ATOM     27  C   LIG    1      -42.989  68.731  21.343  0.00  0.00    +0.020 A 
ATOM     28  C   LIG    1      -42.270  69.802  20.841  0.00  0.00    +0.004 A 
ATOM     29  C   LIG    1      -41.057  70.146  21.432  0.00  0.00    +0.028 A 
ENDBRANCH  22  24
ENDBRANCH  14  16
ENDBRANCH   4  12
BRANCH   1  30
ATOM     30  C   LIG    1      -36.762  77.808  27.427  0.00  0.00    +0.236 C 
ATOM     31  N   LIG    1      -35.707  77.496  28.091  0.00  0.00    -0.249 NA
BRANCH  30  32
ATOM     32  O   LIG    1      -37.387  79.004  27.516  0.00  0.00    -0.491 OA
ATOM     33  H   LIG    1      -38.064  79.067  26.817  0.00  0.00    +0.294 HD
ENDBRANCH  30  32
BRANCH  31  34
ATOM     34  C   LIG    1      -35.162  78.536  28.971  0.00  0.00    +0.151 C 
BRANCH  34  35
ATOM     35  C   LIG    1      -33.782  78.966  28.474  0.00  0.00    +0.038 C 
ATOM     36  C   LIG    1      -33.817  79.948  27.318  0.00  0.00    +0.165 C 
ATOM     37  O   LIG    1      -32.621  79.709  26.568  0.00  0.00    -0.379 OA
ATOM     38  C   LIG    1      -32.348  78.309  26.646  0.00  0.00    +0.160 C 
ATOM     39  C   LIG    1      -32.952  77.806  27.943  0.00  0.00    +0.035 C 
ENDBRANCH  34  35
ENDBRANCH  31  34
ENDBRANCH   1  30
TORSDOF 8
ENDMDL
MODEL 7
REMARK VINA RESULT:      -6.2      9.449     16.452
REMARK  Name = pdb/CHEMBL3937886.pdb
REMARK                            x       y       z     vdW  Elec       q    Type
REMARK                         _______ _______ _______ _____ _____    ______ ____
ROOT
ATOM      1  C   LIG    1      -37.800  69.590  24.340  0.00  0.00    +0.149 A 
ATOM      2  N   LIG    1      -38.421  70.728  23.990  0.00  0.00    -0.160 NA
ATOM      3  N   LIG    1      -37.832  71.701  24.751  0.00  0.00    -0.218 N 
ATOM      4  C   LIG    1      -36.709  71.199  25.439  0.00  0.00    +0.129 A 
ATOM      5  C   LIG    1      -36.724  69.840  25.217  0.00  0.00    +0.078 A 
ENDROOT
BRANCH   3   6
ATOM      6  C   LIG    1      -38.359  73.032  24.711  0.00  0.00    +0.067 A 
ATOM      7  C   LIG    1      -39.651  73.295  24.249  0.00  0.00    +0.028 A 
ATOM      8  C   LIG    1      -40.150  74.604  24.215  0.00  0.00    +0.002 A 
ATOM      9  C   LIG    1      -39.359  75.668  24.634  0.00  0.00    +0.000 A 
ATOM     10  C   LIG    1      -38.062  75.425  25.078  0.00  0.00    +0.002 A 
ATOM     11  C   LIG    1      -37.557  74.118  25.103  0.00  0.00    +0.028 A 
ENDBRANCH   3   6
BRANCH   4  12
ATOM     12  N   LIG    1      -35.725  71.910  26.133  0.00  0.00    -0.266 N 
ATOM     13  H   LIG    1      -34.853  72.104  25.651  0.00  0.00    +0.157 HD
ATOM     14  C   LIG    1      -35.829  72.324  27.525  0.00  0.00    +0.251 C 
ATOM     15  O   LIG    1      -36.813  72.074  28.186  0.00  0.00    -0.270 OA
BRANCH  14  16
ATOM     16  C   LIG    1      -34.644  73.010  28.124  0.00  0.00    +0.056 A 
ATOM     17  C   LIG    1      -33.683  72.382  28.909  0.00  0.00    +0.054 A 
ATOM     18 CL   LIG    1      -33.631  70.689  29.194  0.00  0.00    -0.083 Cl
ATOM     19  C   LIG    1      -32.657  73.124  29.493  0.00  0.00    +0.041 A 
ATOM     20  C   LIG    1      -32.544  74.500  29.268  0.00  0.00    +0.052 A 
ATOM     21 CL   LIG    1      -31.291  75.274  30.177  0.00  0.00    -0.083 Cl
ATOM     22  C   LIG    1      -33.431  75.168  28.401  0.00  0.00    +0.019 A 
ATOM     23  C   LIG    1      -34.489  74.388  27.854  0.00  0.00    +0.026 A 
BRANCH  22  24
ATOM     24  C   LIG    1      -33.341  76.604  28.032  0.00  0.00    +0.072 A 
ATOM     25  N   LIG    1      -34.157  77.431  28.736  0.00  0.00    -0.255 NA
ATOM     26  C   LIG    1      -34.154  78.750  28.423  0.00  0.00    +0.111 A 
ATOM     27  C   LIG    1      -33.359  79.308  27.438  0.00  0.00    +0.020 A 
ATOM     28  C   LIG    1      -32.532  78.462  26.720  0.00  0.00    +0.004 A 
ATOM     29  C   LIG    1      -32.541  77.098  27.001  0.00  0.00    +0.028 A 
ENDBRANCH  22  24
ENDBRANCH  14  16
ENDBRANCH   4  12
BRANCH   1  30
ATOM     30  C   LIG    1      -38.190  68.303  23.765  0.00  0.00    +0.236 C 
ATOM     31  N   LIG    1      -37.634  67.860  22.694  0.00  0.00    -0.249 NA
BRANCH  30  32
ATOM     32  O   LIG    1      -39.171  67.654  24.433  0.00  0.00    -0.491 OA
ATOM     33  H   LIG    1      -39.309  68.082  25.298  0.00  0.00    +0.294 HD
ENDBRANCH  30  32
BRANCH  31  34
ATOM     34  C   LIG    1      -38.100  66.555  22.212  0.00  0.00    +0.151 C 
BRANCH  34  35
ATOM     35  C   LIG    1      -38.271  66.592  20.693  0.00  0.00    +0.038 C 
ATOM     36  C   LIG    1      -37.213  65.818  19.931  0.00  0.00    +0.165 C 
ATOM     37  O   LIG    1      -37.080  66.479  18.668  0.00  0.00    -0.379 OA
ATOM     38  C   LIG    1      -37.286  67.874  18.899  0.00  0.00    +0.160 C 
ATOM     39  C   LIG    1      -38.180  67.999  20.118  0.00  0.00    +0.035 C 
ENDBRANCH  34  35
ENDBRANCH  31  34
ENDBRANCH   1  30
TORSDOF 8
ENDMDL
MODEL 8
REMARK VINA RESULT:      -6.1      8.949     16.580
REMARK  Name = pdb/CHEMBL3937886.pdb
REMARK                            x       y       z     vdW  Elec       q    Type
REMARK                         _______ _______ _______ _____ _____    ______ ____
ROOT
ATOM      1  C   LIG    1      -37.427  70.058  24.659  0.00  0.00    +0.149 A 
ATOM      2  N   LIG    1      -37.077  69.045  25.469  0.00  0.00    -0.160 NA
ATOM      3  N   LIG    1      -35.952  69.480  26.116  0.00  0.00    -0.218 N 
ATOM      4  C   LIG    1      -35.707  70.842  25.849  0.00  0.00    +0.129 A 
ATOM      5  C   LIG    1      -36.618  71.193  24.878  0.00  0.00    +0.078 A 
ENDROOT
BRANCH   3   6
ATOM      6  C   LIG    1      -35.244  68.574  26.970  0.00  0.00    +0.067 A 
ATOM      7  C   LIG    1      -34.485  67.522  26.452  0.00  0.00    +0.028 A 
ATOM      8  C   LIG    1      -33.801  66.644  27.303  0.00  0.00    +0.002 A 
ATOM      9  C   LIG    1      -33.875  66.802  28.682  0.00  0.00    +0.000 A 
ATOM     10  C   LIG    1      -34.643  67.834  29.214  0.00  0.00    +0.002 A 
ATOM     11  C   LIG    1      -35.338  68.707  28.366  0.00  0.00    +0.028 A 
ENDBRANCH   3   6
BRANCH   4  12
ATOM     12  N   LIG    1      -34.802  71.703  26.480  0.00  0.00    -0.266 N 
ATOM     13  H   LIG    1      -33.881  71.805  26.065  0.00  0.00    +0.157 HD
ATOM     14  C   LIG    1      -35.058  72.400  27.731  0.00  0.00    +0.251 C 
ATOM     15  O   LIG    1      -36.111  72.279  28.318  0.00  0.00    -0.270 OA
BRANCH  14  16
ATOM     16  C   LIG    1      -33.943  73.219  28.296  0.00  0.00    +0.056 A 
ATOM     17  C   LIG    1      -32.920  72.717  29.093  0.00  0.00    +0.054 A 
ATOM     18 CL   LIG    1      -32.700  71.047  29.433  0.00  0.00    -0.083 Cl
ATOM     19  C   LIG    1      -31.969  73.575  29.643  0.00  0.00    +0.041 A 
ATOM     20  C   LIG    1      -31.994  74.947  29.371  0.00  0.00    +0.052 A 
ATOM     21 CL   LIG    1      -30.817  75.871  30.242  0.00  0.00    -0.083 Cl
ATOM     22  C   LIG    1      -32.947  75.495  28.490  0.00  0.00    +0.019 A 
ATOM     23  C   LIG    1      -33.926  74.597  27.980  0.00  0.00    +0.026 A 
BRANCH  22  24
ATOM     24  C   LIG    1      -33.001  76.920  28.074  0.00  0.00    +0.072 A 
ATOM     25  N   LIG    1      -33.876  77.690  28.771  0.00  0.00    -0.255 NA
ATOM     26  C   LIG    1      -34.005  78.992  28.415  0.00  0.00    +0.111 A 
ATOM     27  C   LIG    1      -33.288  79.587  27.393  0.00  0.00    +0.020 A 
ATOM     28  C   LIG    1      -32.400  78.799  26.682  0.00  0.00    +0.004 A 
ATOM     29  C   LIG    1      -32.274  77.450  27.007  0.00  0.00    +0.028 A 
ENDBRANCH  22  24
ENDBRANCH  14  16
ENDBRANCH   4  12
BRANCH   1  30
ATOM     30  C   LIG    1      -38.574  69.950  23.759  0.00  0.00    +0.236 C 
ATOM     31  N   LIG    1      -39.548  70.786  23.824  0.00  0.00    -0.249 NA
BRANCH  30  32
ATOM     32  O   LIG    1      -38.524  68.912  22.893  0.00  0.00    -0.491 OA
ATOM     33  H   LIG    1      -39.427  68.697  22.595  0.00  0.00    +0.294 HD
ENDBRANCH  30  32
BRANCH  31  34
ATOM     34  C   LIG    1      -40.642  70.585  22.867  0.00  0.00    +0.151 C 
BRANCH  34  35
ATOM     35  C   LIG    1      -41.826  71.478  23.237  0.00  0.00    +0.038 C 
ATOM     36  C   LIG    1      -42.862  71.623  22.138  0.00  0.00    +0.165 C 
ATOM     37  O   LIG    1      -43.451  72.914  22.325  0.00  0.00    -0.379 OA
ATOM     38  C   LIG    1      -42.423  73.779  22.812  0.00  0.00    +0.160 C 
ATOM     39  C   LIG    1      -41.418  72.912  23.545  0.00  0.00    +0.035 C 
ENDBRANCH  34  35
ENDBRANCH  31  34
ENDBRANCH   1  30
TORSDOF 8
ENDMDL
MODEL 9
REMARK VINA RESULT:      -6.1      9.283     16.362
REMARK  Name = pdb/CHEMBL3937886.pdb
REMARK                            x       y       z     vdW  Elec       q    Type
REMARK                         _______ _______ _______ _____ _____    ______ ____
ROOT
ATOM      1  C   LIG    1      -35.686  69.044  25.009  0.00  0.00    +0.149 A 
ATOM      2  N   LIG    1      -36.702  69.915  24.894  0.00  0.00    -0.160 NA
ATOM      3  N   LIG    1      -36.348  70.979  25.678  0.00  0.00    -0.218 N 
ATOM      4  C   LIG    1      -35.018  70.856  26.132  0.00  0.00    +0.129 A 
ATOM      5  C   LIG    1      -34.618  69.596  25.748  0.00  0.00    +0.078 A 
ENDROOT
BRANCH   3   6
ATOM      6  C   LIG    1      -37.286  72.041  25.879  0.00  0.00    +0.067 A 
ATOM      7  C   LIG    1      -37.806  72.772  24.807  0.00  0.00    +0.028 A 
ATOM      8  C   LIG    1      -38.722  73.810  25.022  0.00  0.00    +0.002 A 
ATOM      9  C   LIG    1      -39.122  74.137  26.313  0.00  0.00    +0.000 A 
ATOM     10  C   LIG    1      -38.598  73.432  27.393  0.00  0.00    +0.002 A 
ATOM     11  C   LIG    1      -37.674  72.400  27.182  0.00  0.00    +0.028 A 
ENDBRANCH   3   6
BRANCH   4  12
ATOM     12  N   LIG    1      -34.222  71.818  26.762  0.00  0.00    -0.266 N 
ATOM     13  H   LIG    1      -33.596  72.367  26.181  0.00  0.00    +0.157 HD
ATOM     14  C   LIG    1      -34.167  72.034  28.200  0.00  0.00    +0.251 C 
ATOM     15  O   LIG    1      -34.837  71.375  28.964  0.00  0.00    -0.270 OA
BRANCH  14  16
ATOM     16  C   LIG    1      -33.198  73.056  28.700  0.00  0.00    +0.056 A 
ATOM     17  C   LIG    1      -32.060  72.767  29.445  0.00  0.00    +0.054 A 
ATOM     18 CL   LIG    1      -31.513  71.174  29.784  0.00  0.00    -0.083 Cl
ATOM     19  C   LIG    1      -31.260  73.797  29.938  0.00  0.00    +0.041 A 
ATOM     20  C   LIG    1      -31.556  75.136  29.658  0.00  0.00    +0.052 A 
ATOM     21 CL   LIG    1      -30.531  76.278  30.460  0.00  0.00    -0.083 Cl
ATOM     22  C   LIG    1      -32.639  75.481  28.826  0.00  0.00    +0.019 A 
ATOM     23  C   LIG    1      -33.456  74.408  28.374  0.00  0.00    +0.026 A 
BRANCH  22  24
ATOM     24  C   LIG    1      -32.980  76.864  28.403  0.00  0.00    +0.072 A 
ATOM     25  N   LIG    1      -32.321  77.307  27.302  0.00  0.00    -0.255 NA
ATOM     26  C   LIG    1      -32.556  78.576  26.885  0.00  0.00    +0.111 A 
ATOM     27  C   LIG    1      -33.438  79.442  27.506  0.00  0.00    +0.020 A 
ATOM     28  C   LIG    1      -34.105  78.987  28.630  0.00  0.00    +0.004 A 
ATOM     29  C   LIG    1      -33.856  77.699  29.098  0.00  0.00    +0.028 A 
ENDBRANCH  22  24
ENDBRANCH  14  16
ENDBRANCH   4  12
BRANCH   1  30
ATOM     30  C   LIG    1      -35.719  67.744  24.341  0.00  0.00    +0.236 C 
ATOM     31  N   LIG    1      -36.363  67.581  23.241  0.00  0.00    -0.249 NA
BRANCH  30  32
ATOM     32  O   LIG    1      -35.046  66.758  24.978  0.00  0.00    -0.491 OA
ATOM     33  H   LIG    1      -35.220  65.909  24.532  0.00  0.00    +0.294 HD
ENDBRANCH  30  32
BRANCH  31  34
ATOM     34  C   LIG    1      -36.322  66.235  22.657  0.00  0.00    +0.151 C 
BRANCH  34  35
ATOM     35  C   LIG    1      -35.619  66.278  21.301  0.00  0.00    +0.038 C 
ATOM     36  C   LIG    1      -35.634  64.959  20.552  0.00  0.00    +0.165 C 
ATOM     37  O   LIG    1      -34.448  64.952  19.751  0.00  0.00    -0.379 OA
ATOM     38  C   LIG    1      -33.436  65.638  20.491  0.00  0.00    +0.160 C 
ATOM     39  C   LIG    1      -34.140  66.621  21.407  0.00  0.00    +0.035 C 
ENDBRANCH  34  35
ENDBRANCH  31  34
ENDBRANCH   1  30
TORSDOF 8
ENDMDL
