MODEL 1
REMARK VINA RESULT:      -6.9      0.000      0.000
REMARK  Name = pdb/CHEMBL3895250.pdb
REMARK                            x       y       z     vdW  Elec       q    Type
REMARK                         _______ _______ _______ _____ _____    ______ ____
ROOT
ATOM      1  C   LIG    1      -35.875  69.324  25.208  0.00  0.00    +0.149 A 
ATOM      2  N   LIG    1      -36.864  70.223  25.087  0.00  0.00    -0.160 NA
ATOM      3  N   LIG    1      -36.469  71.300  25.813  0.00  0.00    -0.218 N 
ATOM      4  C   LIG    1      -35.147  71.150  26.247  0.00  0.00    +0.129 A 
ATOM      5  C   LIG    1      -34.806  69.859  25.959  0.00  0.00    +0.078 A 
ENDROOT
BRANCH   3   6
ATOM      6  C   LIG    1      -37.378  72.380  26.009  0.00  0.00    +0.067 A 
ATOM      7  C   LIG    1      -37.861  73.146  24.941  0.00  0.00    +0.028 A 
ATOM      8  C   LIG    1      -38.737  74.212  25.183  0.00  0.00    +0.002 A 
ATOM      9  C   LIG    1      -39.122  74.527  26.486  0.00  0.00    +0.000 A 
ATOM     10  C   LIG    1      -38.628  73.784  27.554  0.00  0.00    +0.002 A 
ATOM     11  C   LIG    1      -37.754  72.720  27.320  0.00  0.00    +0.028 A 
ENDBRANCH   3   6
BRANCH   4  12
ATOM     12  N   LIG    1      -34.300  72.140  26.778  0.00  0.00    -0.266 N 
ATOM     13  H   LIG    1      -33.726  72.650  26.130  0.00  0.00    +0.157 HD
ATOM     14  C   LIG    1      -34.157  72.378  28.196  0.00  0.00    +0.251 C 
ATOM     15  O   LIG    1      -34.812  71.744  29.005  0.00  0.00    -0.270 OA
BRANCH  14  16
ATOM     16  C   LIG    1      -33.211  73.431  28.669  0.00  0.00    +0.056 A 
ATOM     17  C   LIG    1      -32.060  73.203  29.414  0.00  0.00    +0.056 A 
ATOM     18 CL   LIG    1      -31.513  71.654  29.941  0.00  0.00    -0.083 Cl
ATOM     19  C   LIG    1      -31.251  74.277  29.781  0.00  0.00    +0.059 A 
ATOM     20  C   LIG    1      -31.593  75.576  29.418  0.00  0.00    +0.134 A 
ATOM     21  F   LIG    1      -30.793  76.549  29.870  0.00  0.00    -0.205 F 
ATOM     22  C   LIG    1      -32.728  75.865  28.654  0.00  0.00    +0.039 A 
ATOM     23  C   LIG    1      -33.543  74.762  28.305  0.00  0.00    +0.027 A 
BRANCH  22  24
ATOM     24  C   LIG    1      -33.089  77.241  28.245  0.00  0.00    +0.109 A 
ATOM     25  C   LIG    1      -32.507  77.909  27.163  0.00  0.00    +0.149 A 
ATOM     26  F   LIG    1      -31.627  77.310  26.349  0.00  0.00    -0.203 F 
ATOM     27  C   LIG    1      -32.866  79.220  26.878  0.00  0.00    +0.042 A 
ATOM     28  C   LIG    1      -33.836  79.840  27.653  0.00  0.00    +0.023 A 
ATOM     29  C   LIG    1      -34.407  79.112  28.683  0.00  0.00    +0.111 A 
ATOM     30  N   LIG    1      -34.058  77.839  28.997  0.00  0.00    -0.252 NA
ENDBRANCH  22  24
ENDBRANCH  14  16
ENDBRANCH   4  12
BRANCH   1  32
ATOM     31  N   LIG    1      -34.876  67.648  23.876  0.00  0.00    -0.244 NA
ATOM     32  C   LIG    1      -35.893  68.009  24.569  0.00  0.00    +0.236 C 
BRANCH  32  33
ATOM     33  O   LIG    1      -37.019  67.292  24.751  0.00  0.00    -0.491 OA
ATOM     34  H   LIG    1      -37.787  67.678  24.310  0.00  0.00    +0.294 HD
ENDBRANCH  32  33
BRANCH  31  35
ATOM     35  C   LIG    1      -34.849  66.380  23.153  0.00  0.00    +0.184 C 
BRANCH  35  37
ATOM     36  C   LIG    1      -36.008  66.880  20.952  0.00  0.00    +0.121 A 
ATOM     37  C   LIG    1      -34.848  66.554  21.656  0.00  0.00    +0.013 A 
ATOM     38  C   LIG    1      -33.673  66.372  20.909  0.00  0.00    +0.010 A 
ATOM     39  C   LIG    1      -33.678  66.582  19.536  0.00  0.00    +0.020 A 
ATOM     40  C   LIG    1      -34.872  66.939  18.944  0.00  0.00    +0.113 A 
ATOM     41  N   LIG    1      -36.033  67.080  19.622  0.00  0.00    -0.240 NA
BRANCH  36  42
ATOM     42  N   LIG    1      -37.234  67.062  21.590  0.00  0.00    -0.343 N 
ATOM     43  H   LIG    1      -37.623  67.976  21.386  0.00  0.00    +0.144 HD
ATOM     44  H   LIG    1      -37.033  66.980  22.586  0.00  0.00    +0.144 HD
ENDBRANCH  36  42
ENDBRANCH  35  37
ENDBRANCH  31  35
ENDBRANCH   1  32
TORSDOF 9
ENDMDL
MODEL 2
REMARK VINA RESULT:      -6.8     17.399     21.163
REMARK  Name = pdb/CHEMBL3895250.pdb
REMARK                            x       y       z     vdW  Elec       q    Type
REMARK                         _______ _______ _______ _____ _____    ______ ____
ROOT
ATOM      1  C   LIG    1      -22.067  82.574  15.611  0.00  0.00    +0.149 A 
ATOM      2  N   LIG    1      -20.805  82.128  15.524  0.00  0.00    -0.160 NA
ATOM      3  N   LIG    1      -20.877  80.788  15.729  0.00  0.00    -0.218 N 
ATOM      4  C   LIG    1      -22.210  80.361  15.769  0.00  0.00    +0.129 A 
ATOM      5  C   LIG    1      -22.963  81.500  15.803  0.00  0.00    +0.078 A 
ENDROOT
BRANCH   3   6
ATOM      6  C   LIG    1      -19.673  80.035  15.849  0.00  0.00    +0.067 A 
ATOM      7  C   LIG    1      -19.633  78.798  16.504  0.00  0.00    +0.028 A 
ATOM      8  C   LIG    1      -18.423  78.103  16.616  0.00  0.00    +0.002 A 
ATOM      9  C   LIG    1      -17.248  78.642  16.093  0.00  0.00    +0.000 A 
ATOM     10  C   LIG    1      -17.275  79.882  15.461  0.00  0.00    +0.002 A 
ATOM     11  C   LIG    1      -18.480  80.580  15.345  0.00  0.00    +0.028 A 
ENDBRANCH   3   6
BRANCH   4  12
ATOM     12  N   LIG    1      -22.691  79.041  15.689  0.00  0.00    -0.266 N 
ATOM     13  H   LIG    1      -22.973  78.603  16.549  0.00  0.00    +0.157 HD
ATOM     14  C   LIG    1      -22.705  78.279  14.463  0.00  0.00    +0.251 C 
ATOM     15  O   LIG    1      -22.330  78.775  13.415  0.00  0.00    -0.270 OA
BRANCH  14  16
ATOM     16  C   LIG    1      -23.206  76.873  14.481  0.00  0.00    +0.056 A 
ATOM     17  C   LIG    1      -24.279  76.391  13.740  0.00  0.00    +0.056 A 
ATOM     18 CL   LIG    1      -25.240  77.334  12.662  0.00  0.00    -0.083 Cl
ATOM     19  C   LIG    1      -24.638  75.048  13.839  0.00  0.00    +0.059 A 
ATOM     20  C   LIG    1      -23.938  74.189  14.681  0.00  0.00    +0.134 A 
ATOM     21  F   LIG    1      -24.394  72.933  14.761  0.00  0.00    -0.205 F 
ATOM     22  C   LIG    1      -22.841  74.612  15.438  0.00  0.00    +0.039 A 
ATOM     23  C   LIG    1      -22.503  75.983  15.334  0.00  0.00    +0.027 A 
BRANCH  22  24
ATOM     24  C   LIG    1      -22.078  73.703  16.321  0.00  0.00    +0.109 A 
ATOM     25  C   LIG    1      -22.290  73.596  17.698  0.00  0.00    +0.149 A 
ATOM     26  F   LIG    1      -23.279  74.256  18.318  0.00  0.00    -0.203 F 
ATOM     27  C   LIG    1      -21.494  72.755  18.464  0.00  0.00    +0.042 A 
ATOM     28  C   LIG    1      -20.515  71.995  17.840  0.00  0.00    +0.023 A 
ATOM     29  C   LIG    1      -20.382  72.111  16.466  0.00  0.00    +0.111 A 
ATOM     30  N   LIG    1      -21.131  72.942  15.699  0.00  0.00    -0.252 NA
ENDBRANCH  22  24
ENDBRANCH  14  16
ENDBRANCH   4  12
BRANCH   1  32
ATOM     31  N   LIG    1      -22.513  84.458  14.256  0.00  0.00    -0.244 NA
ATOM     32  C   LIG    1      -22.443  83.978  15.444  0.00  0.00    +0.236 C 
BRANCH  32  33
ATOM     33  O   LIG    1      -22.659  84.659  16.586  0.00  0.00    -0.491 OA
ATOM     34  H   LIG    1      -23.126  84.139  17.253  0.00  0.00    +0.294 HD
ENDBRANCH  32  33
BRANCH  31  35
ATOM     35  C   LIG    1      -22.815  85.865  14.013  0.00  0.00    +0.184 C 
BRANCH  35  37
ATOM     36  C   LIG    1      -20.732  87.260  14.403  0.00  0.00    +0.121 A 
ATOM     37  C   LIG    1      -21.624  86.648  13.522  0.00  0.00    +0.013 A 
ATOM     38  C   LIG    1      -21.381  86.806  12.148  0.00  0.00    +0.010 A 
ATOM     39  C   LIG    1      -20.252  87.490  11.713  0.00  0.00    +0.020 A 
ATOM     40  C   LIG    1      -19.414  88.024  12.670  0.00  0.00    +0.113 A 
ATOM     41  N   LIG    1      -19.638  87.932  13.999  0.00  0.00    -0.240 NA
BRANCH  36  42
ATOM     42  N   LIG    1      -20.890  87.186  15.786  0.00  0.00    -0.343 N 
ATOM     43  H   LIG    1      -21.848  87.379  16.058  0.00  0.00    +0.144 HD
ATOM     44  H   LIG    1      -20.267  87.900  16.166  0.00  0.00    +0.144 HD
ENDBRANCH  36  42
ENDBRANCH  35  37
ENDBRANCH  31  35
ENDBRANCH   1  32
TORSDOF 9
ENDMDL
MODEL 3
REMARK VINA RESULT:      -6.7     16.925     20.403
REMARK  Name = pdb/CHEMBL3895250.pdb
REMARK                            x       y       z     vdW  Elec       q    Type
REMARK                         _______ _______ _______ _____ _____    ______ ____
ROOT
ATOM      1  C   LIG    1      -22.958  81.591  15.353  0.00  0.00    +0.149 A 
ATOM      2  N   LIG    1      -22.106  80.558  15.439  0.00  0.00    -0.160 NA
ATOM      3  N   LIG    1      -22.804  79.474  15.013  0.00  0.00    -0.218 N 
ATOM      4  C   LIG    1      -24.044  79.855  14.488  0.00  0.00    +0.129 A 
ATOM      5  C   LIG    1      -24.188  81.177  14.800  0.00  0.00    +0.078 A 
ENDROOT
BRANCH   3   6
ATOM      6  C   LIG    1      -22.218  78.180  15.126  0.00  0.00    +0.067 A 
ATOM      7  C   LIG    1      -22.994  77.027  15.304  0.00  0.00    +0.028 A 
ATOM      8  C   LIG    1      -22.374  75.778  15.432  0.00  0.00    +0.002 A 
ATOM      9  C   LIG    1      -20.984  75.673  15.400  0.00  0.00    +0.000 A 
ATOM     10  C   LIG    1      -20.206  76.817  15.246  0.00  0.00    +0.002 A 
ATOM     11  C   LIG    1      -20.817  78.066  15.118  0.00  0.00    +0.028 A 
ENDBRANCH   3   6
BRANCH   4  12
ATOM     12  N   LIG    1      -24.923  79.078  13.711  0.00  0.00    -0.266 N 
ATOM     13  H   LIG    1      -24.788  79.087  12.715  0.00  0.00    +0.157 HD
ATOM     14  C   LIG    1      -26.045  78.360  14.271  0.00  0.00    +0.251 C 
ATOM     15  O   LIG    1      -26.254  78.366  15.471  0.00  0.00    -0.270 OA
BRANCH  14  16
ATOM     16  C   LIG    1      -26.942  77.585  13.364  0.00  0.00    +0.056 A 
ATOM     17  C   LIG    1      -26.904  76.209  13.175  0.00  0.00    +0.056 A 
ATOM     18 CL   LIG    1      -25.799  75.135  13.952  0.00  0.00    -0.083 Cl
ATOM     19  C   LIG    1      -27.811  75.605  12.307  0.00  0.00    +0.059 A 
ATOM     20  C   LIG    1      -28.748  76.371  11.620  0.00  0.00    +0.134 A 
ATOM     21  F   LIG    1      -29.535  75.714  10.758  0.00  0.00    -0.205 F 
ATOM     22  C   LIG    1      -28.847  77.756  11.781  0.00  0.00    +0.039 A 
ATOM     23  C   LIG    1      -27.906  78.350  12.655  0.00  0.00    +0.027 A 
BRANCH  22  24
ATOM     24  C   LIG    1      -29.852  78.576  11.070  0.00  0.00    +0.109 A 
ATOM     25  C   LIG    1      -29.822  78.826   9.695  0.00  0.00    +0.149 A 
ATOM     26  F   LIG    1      -28.912  78.258   8.890  0.00  0.00    -0.203 F 
ATOM     27  C   LIG    1      -30.776  79.651   9.114  0.00  0.00    +0.042 A 
ATOM     28  C   LIG    1      -31.780  80.188   9.907  0.00  0.00    +0.023 A 
ATOM     29  C   LIG    1      -31.783  79.868  11.255  0.00  0.00    +0.111 A 
ATOM     30  N   LIG    1      -30.849  79.085  11.851  0.00  0.00    -0.252 NA
ENDBRANCH  22  24
ENDBRANCH  14  16
ENDBRANCH   4  12
BRANCH   1  32
ATOM     31  N   LIG    1      -22.764  83.889  14.841  0.00  0.00    -0.244 NA
ATOM     32  C   LIG    1      -22.604  82.963  15.714  0.00  0.00    +0.236 C 
BRANCH  32  33
ATOM     33  O   LIG    1      -22.106  83.126  16.955  0.00  0.00    -0.491 OA
ATOM     34  H   LIG    1      -22.339  83.977  17.347  0.00  0.00    +0.294 HD
ENDBRANCH  32  33
BRANCH  31  35
ATOM     35  C   LIG    1      -22.371  85.270  15.104  0.00  0.00    +0.184 C 
BRANCH  35  37
ATOM     36  C   LIG    1      -20.419  86.813  14.608  0.00  0.00    +0.121 A 
ATOM     37  C   LIG    1      -21.220  85.730  14.245  0.00  0.00    +0.013 A 
ATOM     38  C   LIG    1      -20.925  85.090  13.031  0.00  0.00    +0.010 A 
ATOM     39  C   LIG    1      -19.832  85.495  12.275  0.00  0.00    +0.020 A 
ATOM     40  C   LIG    1      -19.082  86.555  12.745  0.00  0.00    +0.113 A 
ATOM     41  N   LIG    1      -19.361  87.224  13.885  0.00  0.00    -0.240 NA
BRANCH  36  42
ATOM     42  N   LIG    1      -20.636  87.534  15.781  0.00  0.00    -0.343 N 
ATOM     43  H   LIG    1      -19.796  88.022  16.073  0.00  0.00    +0.144 HD
ATOM     44  H   LIG    1      -20.898  86.838  16.479  0.00  0.00    +0.144 HD
ENDBRANCH  36  42
ENDBRANCH  35  37
ENDBRANCH  31  35
ENDBRANCH   1  32
TORSDOF 9
ENDMDL
MODEL 4
REMARK VINA RESULT:      -6.5      5.362     11.889
REMARK  Name = pdb/CHEMBL3895250.pdb
REMARK                            x       y       z     vdW  Elec       q    Type
REMARK                         _______ _______ _______ _____ _____    ______ ____
ROOT
ATOM      1  C   LIG    1      -37.023  80.039  27.567  0.00  0.00    +0.149 A 
ATOM      2  N   LIG    1      -35.948  79.290  27.856  0.00  0.00    -0.160 NA
ATOM      3  N   LIG    1      -36.356  78.001  27.723  0.00  0.00    -0.218 N 
ATOM      4  C   LIG    1      -37.642  77.940  27.176  0.00  0.00    +0.129 A 
ATOM      5  C   LIG    1      -38.107  79.225  27.178  0.00  0.00    +0.078 A 
ENDROOT
BRANCH   3   6
ATOM      6  C   LIG    1      -35.476  76.949  28.111  0.00  0.00    +0.067 A 
ATOM      7  C   LIG    1      -35.562  76.334  29.366  0.00  0.00    +0.028 A 
ATOM      8  C   LIG    1      -34.663  75.318  29.712  0.00  0.00    +0.002 A 
ATOM      9  C   LIG    1      -33.668  74.922  28.819  0.00  0.00    +0.000 A 
ATOM     10  C   LIG    1      -33.562  75.544  27.579  0.00  0.00    +0.002 A 
ATOM     11  C   LIG    1      -34.456  76.558  27.227  0.00  0.00    +0.028 A 
ENDBRANCH   3   6
BRANCH   4  12
ATOM     12  N   LIG    1      -38.295  76.814  26.640  0.00  0.00    -0.266 N 
ATOM     13  H   LIG    1      -38.940  76.329  27.238  0.00  0.00    +0.157 HD
ATOM     14  C   LIG    1      -38.006  76.286  25.326  0.00  0.00    +0.251 C 
ATOM     15  O   LIG    1      -37.197  76.834  24.597  0.00  0.00    -0.270 OA
BRANCH  14  16
ATOM     16  C   LIG    1      -38.727  75.068  24.854  0.00  0.00    +0.056 A 
ATOM     17  C   LIG    1      -39.931  75.063  24.159  0.00  0.00    +0.056 A 
ATOM     18 CL   LIG    1      -40.825  76.471  23.719  0.00  0.00    -0.083 Cl
ATOM     19  C   LIG    1      -40.494  73.852  23.762  0.00  0.00    +0.059 A 
ATOM     20  C   LIG    1      -39.866  72.648  24.065  0.00  0.00    +0.134 A 
ATOM     21  F   LIG    1      -40.512  71.533  23.700  0.00  0.00    -0.205 F 
ATOM     22  C   LIG    1      -38.646  72.590  24.745  0.00  0.00    +0.039 A 
ATOM     23  C   LIG    1      -38.100  73.830  25.153  0.00  0.00    +0.027 A 
BRANCH  22  24
ATOM     24  C   LIG    1      -37.960  71.315  25.054  0.00  0.00    +0.109 A 
ATOM     25  C   LIG    1      -37.909  70.749  26.331  0.00  0.00    +0.149 A 
ATOM     26  F   LIG    1      -38.564  71.283  27.371  0.00  0.00    -0.203 F 
ATOM     27  C   LIG    1      -37.199  69.575  26.545  0.00  0.00    +0.042 A 
ATOM     28  C   LIG    1      -36.578  68.953  25.471  0.00  0.00    +0.023 A 
ATOM     29  C   LIG    1      -36.702  69.539  24.223  0.00  0.00    +0.111 A 
ATOM     30  N   LIG    1      -37.370  70.697  23.991  0.00  0.00    -0.252 NA
ENDBRANCH  22  24
ENDBRANCH  14  16
ENDBRANCH   4  12
BRANCH   1  32
ATOM     31  N   LIG    1      -36.380  82.124  26.661  0.00  0.00    -0.244 NA
ATOM     32  C   LIG    1      -37.018  81.501  27.584  0.00  0.00    +0.236 C 
BRANCH  32  33
ATOM     33  O   LIG    1      -37.680  82.072  28.609  0.00  0.00    -0.491 OA
ATOM     34  H   LIG    1      -37.287  81.872  29.469  0.00  0.00    +0.294 HD
ENDBRANCH  32  33
BRANCH  31  35
ATOM     35  C   LIG    1      -36.273  83.579  26.649  0.00  0.00    +0.184 C 
BRANCH  35  37
ATOM     36  C   LIG    1      -36.766  85.544  25.120  0.00  0.00    +0.121 A 
ATOM     37  C   LIG    1      -36.982  84.213  25.478  0.00  0.00    +0.013 A 
ATOM     38  C   LIG    1      -37.907  83.484  24.714  0.00  0.00    +0.010 A 
ATOM     39  C   LIG    1      -38.515  84.068  23.610  0.00  0.00    +0.020 A 
ATOM     40  C   LIG    1      -38.201  85.380  23.321  0.00  0.00    +0.113 A 
ATOM     41  N   LIG    1      -37.351  86.128  24.059  0.00  0.00    -0.240 NA
BRANCH  36  42
ATOM     42  N   LIG    1      -35.886  86.366  25.822  0.00  0.00    -0.343 N 
ATOM     43  H   LIG    1      -36.233  87.318  25.874  0.00  0.00    +0.144 HD
ATOM     44  H   LIG    1      -35.013  86.338  25.295  0.00  0.00    +0.144 HD
ENDBRANCH  36  42
ENDBRANCH  35  37
ENDBRANCH  31  35
ENDBRANCH   1  32
TORSDOF 9
ENDMDL
MODEL 5
REMARK VINA RESULT:      -6.5     16.779     20.102
REMARK  Name = pdb/CHEMBL3895250.pdb
REMARK                            x       y       z     vdW  Elec       q    Type
REMARK                         _______ _______ _______ _____ _____    ______ ____
ROOT
ATOM      1  C   LIG    1      -23.233  81.801  15.601  0.00  0.00    +0.149 A 
ATOM      2  N   LIG    1      -24.289  81.681  14.782  0.00  0.00    -0.160 NA
ATOM      3  N   LIG    1      -24.396  80.354  14.517  0.00  0.00    -0.218 N 
ATOM      4  C   LIG    1      -23.515  79.614  15.313  0.00  0.00    +0.129 A 
ATOM      5  C   LIG    1      -22.704  80.532  15.919  0.00  0.00    +0.078 A 
ENDROOT
BRANCH   3   6
ATOM      6  C   LIG    1      -25.341  79.911  13.545  0.00  0.00    +0.067 A 
ATOM      7  C   LIG    1      -26.238  78.867  13.805  0.00  0.00    +0.028 A 
ATOM      8  C   LIG    1      -27.134  78.450  12.813  0.00  0.00    +0.002 A 
ATOM      9  C   LIG    1      -27.131  79.059  11.558  0.00  0.00    +0.000 A 
ATOM     10  C   LIG    1      -26.228  80.082  11.286  0.00  0.00    +0.002 A 
ATOM     11  C   LIG    1      -25.331  80.502  12.271  0.00  0.00    +0.028 A 
ENDBRANCH   3   6
BRANCH   4  12
ATOM     12  N   LIG    1      -23.515  78.224  15.532  0.00  0.00    -0.266 N 
ATOM     13  H   LIG    1      -23.858  77.898  16.419  0.00  0.00    +0.157 HD
ATOM     14  C   LIG    1      -22.965  77.277  14.591  0.00  0.00    +0.251 C 
ATOM     15  O   LIG    1      -22.505  77.651  13.525  0.00  0.00    -0.270 OA
BRANCH  14  16
ATOM     16  C   LIG    1      -22.981  75.822  14.922  0.00  0.00    +0.056 A 
ATOM     17  C   LIG    1      -23.940  74.910  14.498  0.00  0.00    +0.056 A 
ATOM     18 CL   LIG    1      -25.300  75.294  13.509  0.00  0.00    -0.083 Cl
ATOM     19  C   LIG    1      -23.832  73.571  14.868  0.00  0.00    +0.059 A 
ATOM     20  C   LIG    1      -22.778  73.143  15.670  0.00  0.00    +0.134 A 
ATOM     21  F   LIG    1      -22.791  71.853  16.029  0.00  0.00    -0.205 F 
ATOM     22  C   LIG    1      -21.775  74.009  16.113  0.00  0.00    +0.039 A 
ATOM     23  C   LIG    1      -21.912  75.367  15.738  0.00  0.00    +0.027 A 
BRANCH  22  24
ATOM     24  C   LIG    1      -20.639  73.560  16.949  0.00  0.00    +0.109 A 
ATOM     25  C   LIG    1      -20.771  73.111  18.266  0.00  0.00    +0.149 A 
ATOM     26  F   LIG    1      -21.969  72.967  18.850  0.00  0.00    -0.203 F 
ATOM     27  C   LIG    1      -19.647  72.756  18.999  0.00  0.00    +0.042 A 
ATOM     28  C   LIG    1      -18.399  72.814  18.395  0.00  0.00    +0.023 A 
ATOM     29  C   LIG    1      -18.336  73.226  17.074  0.00  0.00    +0.111 A 
ATOM     30  N   LIG    1      -19.417  73.600  16.343  0.00  0.00    -0.252 NA
ENDBRANCH  22  24
ENDBRANCH  14  16
ENDBRANCH   4  12
BRANCH   1  32
ATOM     31  N   LIG    1      -22.905  84.134  15.424  0.00  0.00    -0.244 NA
ATOM     32  C   LIG    1      -22.768  83.078  16.140  0.00  0.00    +0.236 C 
BRANCH  32  33
ATOM     33  O   LIG    1      -22.199  83.019  17.359  0.00  0.00    -0.491 OA
ATOM     34  H   LIG    1      -21.813  82.156  17.555  0.00  0.00    +0.294 HD
ENDBRANCH  32  33
BRANCH  31  35
ATOM     35  C   LIG    1      -22.405  85.432  15.865  0.00  0.00    +0.184 C 
BRANCH  35  37
ATOM     36  C   LIG    1      -20.934  85.932  13.858  0.00  0.00    +0.121 A 
ATOM     37  C   LIG    1      -21.961  86.311  14.723  0.00  0.00    +0.013 A 
ATOM     38  C   LIG    1      -22.557  87.563  14.503  0.00  0.00    +0.010 A 
ATOM     39  C   LIG    1      -22.169  88.341  13.419  0.00  0.00    +0.020 A 
ATOM     40  C   LIG    1      -21.169  87.853  12.602  0.00  0.00    +0.113 A 
ATOM     41  N   LIG    1      -20.541  86.675  12.807  0.00  0.00    -0.240 NA
BRANCH  36  42
ATOM     42  N   LIG    1      -20.259  84.720  13.997  0.00  0.00    -0.343 N 
ATOM     43  H   LIG    1      -19.798  84.454  13.134  0.00  0.00    +0.144 HD
ATOM     44  H   LIG    1      -20.978  84.038  14.236  0.00  0.00    +0.144 HD
ENDBRANCH  36  42
ENDBRANCH  35  37
ENDBRANCH  31  35
ENDBRANCH   1  32
TORSDOF 9
ENDMDL
MODEL 6
REMARK VINA RESULT:      -6.3      6.536     10.488
REMARK  Name = pdb/CHEMBL3895250.pdb
REMARK                            x       y       z     vdW  Elec       q    Type
REMARK                         _______ _______ _______ _____ _____    ______ ____
ROOT
ATOM      1  C   LIG    1      -33.037  75.840  28.852  0.00  0.00    +0.149 A 
ATOM      2  N   LIG    1      -33.449  77.037  29.296  0.00  0.00    -0.160 NA
ATOM      3  N   LIG    1      -34.339  77.482  28.372  0.00  0.00    -0.218 N 
ATOM      4  C   LIG    1      -34.622  76.484  27.433  0.00  0.00    +0.129 A 
ATOM      5  C   LIG    1      -33.721  75.485  27.671  0.00  0.00    +0.078 A 
ENDROOT
BRANCH   3   6
ATOM      6  C   LIG    1      -34.851  78.808  28.479  0.00  0.00    +0.067 A 
ATOM      7  C   LIG    1      -35.883  79.135  29.368  0.00  0.00    +0.028 A 
ATOM      8  C   LIG    1      -36.370  80.446  29.424  0.00  0.00    +0.002 A 
ATOM      9  C   LIG    1      -35.844  81.431  28.589  0.00  0.00    +0.000 A 
ATOM     10  C   LIG    1      -34.834  81.109  27.687  0.00  0.00    +0.002 A 
ATOM     11  C   LIG    1      -34.344  79.802  27.626  0.00  0.00    +0.028 A 
ENDBRANCH   3   6
BRANCH   4  12
ATOM     12  N   LIG    1      -35.675  76.457  26.500  0.00  0.00    -0.266 N 
ATOM     13  H   LIG    1      -35.469  76.764  25.566  0.00  0.00    +0.157 HD
ATOM     14  C   LIG    1      -37.032  76.104  26.850  0.00  0.00    +0.251 C 
ATOM     15  O   LIG    1      -37.315  75.767  27.987  0.00  0.00    -0.270 OA
BRANCH  14  16
ATOM     16  C   LIG    1      -38.090  76.133  25.798  0.00  0.00    +0.056 A 
ATOM     17  C   LIG    1      -38.621  75.019  25.158  0.00  0.00    +0.056 A 
ATOM     18 CL   LIG    1      -38.147  73.388  25.457  0.00  0.00    -0.083 Cl
ATOM     19  C   LIG    1      -39.618  75.184  24.200  0.00  0.00    +0.059 A 
ATOM     20  C   LIG    1      -40.079  76.455  23.871  0.00  0.00    +0.134 A 
ATOM     21  F   LIG    1      -40.992  76.522  22.893  0.00  0.00    -0.205 F 
ATOM     22  C   LIG    1      -39.596  77.611  24.492  0.00  0.00    +0.039 A 
ATOM     23  C   LIG    1      -38.573  77.422  25.451  0.00  0.00    +0.027 A 
BRANCH  22  24
ATOM     24  C   LIG    1      -40.094  78.965  24.163  0.00  0.00    +0.109 A 
ATOM     25  C   LIG    1      -41.331  79.463  24.584  0.00  0.00    +0.149 A 
ATOM     26  F   LIG    1      -42.133  78.771  25.405  0.00  0.00    -0.203 F 
ATOM     27  C   LIG    1      -41.745  80.728  24.188  0.00  0.00    +0.042 A 
ATOM     28  C   LIG    1      -40.901  81.503  23.406  0.00  0.00    +0.023 A 
ATOM     29  C   LIG    1      -39.670  80.972  23.057  0.00  0.00    +0.111 A 
ATOM     30  N   LIG    1      -39.252  79.731  23.412  0.00  0.00    -0.252 NA
ENDBRANCH  22  24
ENDBRANCH  14  16
ENDBRANCH   4  12
BRANCH   1  32
ATOM     31  N   LIG    1      -31.420  75.513  30.544  0.00  0.00    -0.244 NA
ATOM     32  C   LIG    1      -32.069  75.004  29.561  0.00  0.00    +0.236 C 
BRANCH  32  33
ATOM     33  O   LIG    1      -31.926  73.752  29.084  0.00  0.00    -0.491 OA
ATOM     34  H   LIG    1      -31.002  73.485  28.996  0.00  0.00    +0.294 HD
ENDBRANCH  32  33
BRANCH  31  35
ATOM     35  C   LIG    1      -30.390  74.763  31.256  0.00  0.00    +0.184 C 
BRANCH  35  37
ATOM     36  C   LIG    1      -29.281  76.809  32.267  0.00  0.00    +0.121 A 
ATOM     37  C   LIG    1      -29.803  75.524  32.418  0.00  0.00    +0.013 A 
ATOM     38  C   LIG    1      -29.742  74.952  33.698  0.00  0.00    +0.010 A 
ATOM     39  C   LIG    1      -29.242  75.684  34.768  0.00  0.00    +0.020 A 
ATOM     40  C   LIG    1      -28.786  76.962  34.515  0.00  0.00    +0.113 A 
ATOM     41  N   LIG    1      -28.786  77.530  33.289  0.00  0.00    -0.240 NA
BRANCH  36  42
ATOM     42  N   LIG    1      -29.270  77.464  31.036  0.00  0.00    -0.343 N 
ATOM     43  H   LIG    1      -28.488  78.107  30.969  0.00  0.00    +0.144 HD
ATOM     44  H   LIG    1      -30.151  77.976  30.997  0.00  0.00    +0.144 HD
ENDBRANCH  36  42
ENDBRANCH  35  37
ENDBRANCH  31  35
ENDBRANCH   1  32
TORSDOF 9
ENDMDL
MODEL 7
REMARK VINA RESULT:      -6.3     17.252     20.735
REMARK  Name = pdb/CHEMBL3895250.pdb
REMARK                            x       y       z     vdW  Elec       q    Type
REMARK                         _______ _______ _______ _____ _____    ______ ____
ROOT
ATOM      1  C   LIG    1      -22.794  82.867  15.509  0.00  0.00    +0.149 A 
ATOM      2  N   LIG    1      -23.890  82.285  14.998  0.00  0.00    -0.160 NA
ATOM      3  N   LIG    1      -23.590  80.965  14.899  0.00  0.00    -0.218 N 
ATOM      4  C   LIG    1      -22.366  80.686  15.516  0.00  0.00    +0.129 A 
ATOM      5  C   LIG    1      -21.811  81.900  15.806  0.00  0.00    +0.078 A 
ENDROOT
BRANCH   3   6
ATOM      6  C   LIG    1      -24.505  80.089  14.245  0.00  0.00    +0.067 A 
ATOM      7  C   LIG    1      -25.443  79.331  14.957  0.00  0.00    +0.028 A 
ATOM      8  C   LIG    1      -26.308  78.467  14.274  0.00  0.00    +0.002 A 
ATOM      9  C   LIG    1      -26.233  78.343  12.887  0.00  0.00    +0.000 A 
ATOM     10  C   LIG    1      -25.288  79.076  12.176  0.00  0.00    +0.002 A 
ATOM     11  C   LIG    1      -24.422  79.940  12.851  0.00  0.00    +0.028 A 
ENDBRANCH   3   6
BRANCH   4  12
ATOM     12  N   LIG    1      -21.847  79.424  15.863  0.00  0.00    -0.266 N 
ATOM     13  H   LIG    1      -21.853  79.176  16.837  0.00  0.00    +0.157 HD
ATOM     14  C   LIG    1      -21.233  78.533  14.906  0.00  0.00    +0.251 C 
ATOM     15  O   LIG    1      -21.177  78.829  13.725  0.00  0.00    -0.270 OA
BRANCH  14  16
ATOM     16  C   LIG    1      -20.682  77.227  15.371  0.00  0.00    +0.056 A 
ATOM     17  C   LIG    1      -19.376  77.008  15.792  0.00  0.00    +0.056 A 
ATOM     18 CL   LIG    1      -18.140  78.209  15.847  0.00  0.00    -0.083 Cl
ATOM     19  C   LIG    1      -18.991  75.738  16.218  0.00  0.00    +0.059 A 
ATOM     20  C   LIG    1      -19.902  74.685  16.214  0.00  0.00    +0.134 A 
ATOM     21  F   LIG    1      -19.426  73.487  16.576  0.00  0.00    -0.205 F 
ATOM     22  C   LIG    1      -21.232  74.848  15.818  0.00  0.00    +0.039 A 
ATOM     23  C   LIG    1      -21.597  76.142  15.375  0.00  0.00    +0.027 A 
BRANCH  22  24
ATOM     24  C   LIG    1      -22.214  73.740  15.829  0.00  0.00    +0.109 A 
ATOM     25  C   LIG    1      -23.043  73.447  16.915  0.00  0.00    +0.149 A 
ATOM     26  F   LIG    1      -23.075  74.216  18.013  0.00  0.00    -0.203 F 
ATOM     27  C   LIG    1      -23.901  72.356  16.863  0.00  0.00    +0.042 A 
ATOM     28  C   LIG    1      -23.951  71.589  15.708  0.00  0.00    +0.023 A 
ATOM     29  C   LIG    1      -23.137  71.956  14.650  0.00  0.00    +0.111 A 
ATOM     30  N   LIG    1      -22.274  73.002  14.683  0.00  0.00    -0.252 NA
ENDBRANCH  22  24
ENDBRANCH  14  16
ENDBRANCH   4  12
BRANCH   1  32
ATOM     31  N   LIG    1      -22.421  85.094  14.816  0.00  0.00    -0.244 NA
ATOM     32  C   LIG    1      -22.692  84.299  15.785  0.00  0.00    +0.236 C 
BRANCH  32  33
ATOM     33  O   LIG    1      -22.872  84.655  17.072  0.00  0.00    -0.491 OA
ATOM     34  H   LIG    1      -22.474  85.508  17.286  0.00  0.00    +0.294 HD
ENDBRANCH  32  33
BRANCH  31  35
ATOM     35  C   LIG    1      -22.237  86.527  15.026  0.00  0.00    +0.184 C 
BRANCH  35  37
ATOM     36  C   LIG    1      -20.260  86.753  13.451  0.00  0.00    +0.121 A 
ATOM     37  C   LIG    1      -21.506  87.200  13.891  0.00  0.00    +0.013 A 
ATOM     38  C   LIG    1      -22.051  88.323  13.248  0.00  0.00    +0.010 A 
ATOM     39  C   LIG    1      -21.387  88.902  12.173  0.00  0.00    +0.020 A 
ATOM     40  C   LIG    1      -20.178  88.357  11.794  0.00  0.00    +0.113 A 
ATOM     41  N   LIG    1      -19.600  87.306  12.417  0.00  0.00    -0.240 NA
BRANCH  36  42
ATOM     42  N   LIG    1      -19.617  85.662  14.032  0.00  0.00    -0.343 N 
ATOM     43  H   LIG    1      -18.841  85.959  14.615  0.00  0.00    +0.144 HD
ATOM     44  H   LIG    1      -19.275  85.104  13.250  0.00  0.00    +0.144 HD
ENDBRANCH  36  42
ENDBRANCH  35  37
ENDBRANCH  31  35
ENDBRANCH   1  32
TORSDOF 9
ENDMDL
MODEL 8
REMARK VINA RESULT:      -6.3      6.899     10.829
REMARK  Name = pdb/CHEMBL3895250.pdb
REMARK                            x       y       z     vdW  Elec       q    Type
REMARK                         _______ _______ _______ _____ _____    ______ ____
ROOT
ATOM      1  C   LIG    1      -28.573  75.892  31.778  0.00  0.00    +0.149 A 
ATOM      2  N   LIG    1      -28.849  74.580  31.766  0.00  0.00    -0.160 NA
ATOM      3  N   LIG    1      -30.082  74.471  31.206  0.00  0.00    -0.218 N 
ATOM      4  C   LIG    1      -30.509  75.704  30.700  0.00  0.00    +0.129 A 
ATOM      5  C   LIG    1      -29.608  76.624  31.155  0.00  0.00    +0.078 A 
ENDROOT
BRANCH   3   6
ATOM      6  C   LIG    1      -30.729  73.201  31.187  0.00  0.00    +0.067 A 
ATOM      7  C   LIG    1      -31.261  72.622  32.346  0.00  0.00    +0.028 A 
ATOM      8  C   LIG    1      -31.870  71.363  32.283  0.00  0.00    +0.002 A 
ATOM      9  C   LIG    1      -31.937  70.669  31.075  0.00  0.00    +0.000 A 
ATOM     10  C   LIG    1      -31.389  71.228  29.924  0.00  0.00    +0.002 A 
ATOM     11  C   LIG    1      -30.781  72.485  29.979  0.00  0.00    +0.028 A 
ENDBRANCH   3   6
BRANCH   4  12
ATOM     12  N   LIG    1      -31.582  75.946  29.823  0.00  0.00    -0.266 N 
ATOM     13  H   LIG    1      -31.357  76.135  28.862  0.00  0.00    +0.157 HD
ATOM     14  C   LIG    1      -32.956  76.029  30.261  0.00  0.00    +0.251 C 
ATOM     15  O   LIG    1      -33.251  75.845  31.430  0.00  0.00    -0.270 OA
BRANCH  14  16
ATOM     16  C   LIG    1      -34.026  76.321  29.263  0.00  0.00    +0.056 A 
ATOM     17  C   LIG    1      -34.625  75.386  28.427  0.00  0.00    +0.056 A 
ATOM     18 CL   LIG    1      -34.236  73.706  28.383  0.00  0.00    -0.083 Cl
ATOM     19  C   LIG    1      -35.626  75.789  27.545  0.00  0.00    +0.059 A 
ATOM     20  C   LIG    1      -36.022  77.122  27.487  0.00  0.00    +0.134 A 
ATOM     21  F   LIG    1      -36.944  77.428  26.565  0.00  0.00    -0.205 F 
ATOM     22  C   LIG    1      -35.469  78.104  28.314  0.00  0.00    +0.039 A 
ATOM     23  C   LIG    1      -34.444  77.676  29.191  0.00  0.00    +0.027 A 
BRANCH  22  24
ATOM     24  C   LIG    1      -35.898  79.520  28.274  0.00  0.00    +0.109 A 
ATOM     25  C   LIG    1      -35.114  80.556  27.759  0.00  0.00    +0.149 A 
ATOM     26  F   LIG    1      -33.931  80.326  27.170  0.00  0.00    -0.203 F 
ATOM     27  C   LIG    1      -35.570  81.867  27.807  0.00  0.00    +0.042 A 
ATOM     28  C   LIG    1      -36.826  82.127  28.335  0.00  0.00    +0.023 A 
ATOM     29  C   LIG    1      -37.574  81.054  28.790  0.00  0.00    +0.111 A 
ATOM     30  N   LIG    1      -37.142  79.768  28.776  0.00  0.00    -0.252 NA
ENDBRANCH  22  24
ENDBRANCH  14  16
ENDBRANCH   4  12
BRANCH   1  32
ATOM     31  N   LIG    1      -26.214  75.968  31.880  0.00  0.00    -0.244 NA
ATOM     32  C   LIG    1      -27.327  76.453  32.297  0.00  0.00    +0.236 C 
BRANCH  32  33
ATOM     33  O   LIG    1      -27.468  77.433  33.210  0.00  0.00    -0.491 OA
ATOM     34  H   LIG    1      -27.033  77.233  34.049  0.00  0.00    +0.294 HD
ENDBRANCH  32  33
BRANCH  31  35
ATOM     35  C   LIG    1      -24.932  76.429  32.402  0.00  0.00    +0.184 C 
BRANCH  35  37
ATOM     36  C   LIG    1      -23.969  77.240  30.199  0.00  0.00    +0.121 A 
ATOM     37  C   LIG    1      -23.848  76.468  31.354  0.00  0.00    +0.013 A 
ATOM     38  C   LIG    1      -22.678  75.704  31.498  0.00  0.00    +0.010 A 
ATOM     39  C   LIG    1      -21.669  75.788  30.547  0.00  0.00    +0.020 A 
ATOM     40  C   LIG    1      -21.875  76.612  29.460  0.00  0.00    +0.113 A 
ATOM     41  N   LIG    1      -23.005  77.327  29.264  0.00  0.00    -0.240 NA
BRANCH  36  42
ATOM     42  N   LIG    1      -25.097  78.019  29.944  0.00  0.00    -0.343 N 
ATOM     43  H   LIG    1      -24.850  78.877  29.461  0.00  0.00    +0.144 HD
ATOM     44  H   LIG    1      -25.489  78.232  30.861  0.00  0.00    +0.144 HD
ENDBRANCH  36  42
ENDBRANCH  35  37
ENDBRANCH  31  35
ENDBRANCH   1  32
TORSDOF 9
ENDMDL
MODEL 9
REMARK VINA RESULT:      -6.2      6.335      8.996
REMARK  Name = pdb/CHEMBL3895250.pdb
REMARK                            x       y       z     vdW  Elec       q    Type
REMARK                         _______ _______ _______ _____ _____    ______ ____
ROOT
ATOM      1  C   LIG    1      -33.063  76.036  28.642  0.00  0.00    +0.149 A 
ATOM      2  N   LIG    1      -33.543  77.184  29.144  0.00  0.00    -0.160 NA
ATOM      3  N   LIG    1      -34.480  77.607  28.257  0.00  0.00    -0.218 N 
ATOM      4  C   LIG    1      -34.719  76.631  27.282  0.00  0.00    +0.129 A 
ATOM      5  C   LIG    1      -33.749  75.686  27.459  0.00  0.00    +0.078 A 
ENDROOT
BRANCH   3   6
ATOM      6  C   LIG    1      -35.076  78.890  28.431  0.00  0.00    +0.067 A 
ATOM      7  C   LIG    1      -36.334  79.050  29.024  0.00  0.00    +0.028 A 
ATOM      8  C   LIG    1      -36.890  80.328  29.155  0.00  0.00    +0.002 A 
ATOM      9  C   LIG    1      -36.205  81.448  28.684  0.00  0.00    +0.000 A 
ATOM     10  C   LIG    1      -34.964  81.294  28.072  0.00  0.00    +0.002 A 
ATOM     11  C   LIG    1      -34.404  80.022  27.938  0.00  0.00    +0.028 A 
ENDBRANCH   3   6
BRANCH   4  12
ATOM     12  N   LIG    1      -35.788  76.574  26.369  0.00  0.00    -0.266 N 
ATOM     13  H   LIG    1      -35.618  76.916  25.440  0.00  0.00    +0.157 HD
ATOM     14  C   LIG    1      -37.116  76.140  26.736  0.00  0.00    +0.251 C 
ATOM     15  O   LIG    1      -37.358  75.759  27.868  0.00  0.00    -0.270 OA
BRANCH  14  16
ATOM     16  C   LIG    1      -38.196  76.141  25.705  0.00  0.00    +0.056 A 
ATOM     17  C   LIG    1      -38.741  75.011  25.109  0.00  0.00    +0.056 A 
ATOM     18 CL   LIG    1      -38.263  73.388  25.444  0.00  0.00    -0.083 Cl
ATOM     19  C   LIG    1      -39.759  75.150  24.167  0.00  0.00    +0.059 A 
ATOM     20  C   LIG    1      -40.225  76.412  23.811  0.00  0.00    +0.134 A 
ATOM     21  F   LIG    1      -41.158  76.452  22.851  0.00  0.00    -0.205 F 
ATOM     22  C   LIG    1      -39.728  77.584  24.389  0.00  0.00    +0.039 A 
ATOM     23  C   LIG    1      -38.685  77.421  25.331  0.00  0.00    +0.027 A 
BRANCH  22  24
ATOM     24  C   LIG    1      -40.231  78.929  24.033  0.00  0.00    +0.109 A 
ATOM     25  C   LIG    1      -41.529  79.371  24.303  0.00  0.00    +0.149 A 
ATOM     26  F   LIG    1      -42.403  78.628  24.997  0.00  0.00    -0.203 F 
ATOM     27  C   LIG    1      -41.938  80.632  23.889  0.00  0.00    +0.042 A 
ATOM     28  C   LIG    1      -41.031  81.458  23.240  0.00  0.00    +0.023 A 
ATOM     29  C   LIG    1      -39.747  80.981  23.040  0.00  0.00    +0.111 A 
ATOM     30  N   LIG    1      -39.330  79.745  23.414  0.00  0.00    -0.252 NA
ENDBRANCH  22  24
ENDBRANCH  14  16
ENDBRANCH   4  12
BRANCH   1  32
ATOM     31  N   LIG    1      -32.087  73.959  29.203  0.00  0.00    -0.244 NA
ATOM     32  C   LIG    1      -32.027  75.238  29.295  0.00  0.00    +0.236 C 
BRANCH  32  33
ATOM     33  O   LIG    1      -31.097  75.938  29.973  0.00  0.00    -0.491 OA
ATOM     34  H   LIG    1      -30.721  75.446  30.714  0.00  0.00    +0.294 HD
ENDBRANCH  32  33
BRANCH  31  35
ATOM     35  C   LIG    1      -31.129  73.094  29.883  0.00  0.00    +0.184 C 
BRANCH  35  37
ATOM     36  C   LIG    1      -32.745  71.512  31.034  0.00  0.00    +0.121 A 
ATOM     37  C   LIG    1      -31.674  71.716  30.164  0.00  0.00    +0.013 A 
ATOM     38  C   LIG    1      -31.103  70.580  29.569  0.00  0.00    +0.010 A 
ATOM     39  C   LIG    1      -31.647  69.322  29.800  0.00  0.00    +0.020 A 
ATOM     40  C   LIG    1      -32.731  69.237  30.649  0.00  0.00    +0.113 A 
ATOM     41  N   LIG    1      -33.280  70.301  31.275  0.00  0.00    -0.240 NA
BRANCH  36  42
ATOM     42  N   LIG    1      -33.373  72.566  31.695  0.00  0.00    -0.343 N 
ATOM     43  H   LIG    1      -34.367  72.393  31.805  0.00  0.00    +0.144 HD
ATOM     44  H   LIG    1      -33.222  73.382  31.103  0.00  0.00    +0.144 HD
ENDBRANCH  36  42
ENDBRANCH  35  37
ENDBRANCH  31  35
ENDBRANCH   1  32
TORSDOF 9
ENDMDL
