MODEL 1
REMARK VINA RESULT:      -6.9      0.000      0.000
REMARK  Name = pdb/CHEMBL3933154.pdb
REMARK                            x       y       z     vdW  Elec       q    Type
REMARK                         _______ _______ _______ _____ _____    ______ ____
ROOT
ATOM      1  C   LIG    1      -31.041  87.157  30.922  0.00  0.00    +0.149 A 
ATOM      2  N   LIG    1      -32.170  87.873  30.834  0.00  0.00    -0.160 NA
ATOM      3  N   LIG    1      -33.021  87.136  30.084  0.00  0.00    -0.218 N 
ATOM      4  C   LIG    1      -32.501  85.862  29.815  0.00  0.00    +0.129 A 
ATOM      5  C   LIG    1      -31.189  85.916  30.243  0.00  0.00    +0.078 A 
ENDROOT
BRANCH   3   6
ATOM      6  C   LIG    1      -34.308  87.656  29.777  0.00  0.00    +0.067 A 
ATOM      7  C   LIG    1      -34.527  88.271  28.531  0.00  0.00    +0.028 A 
ATOM      8  C   LIG    1      -35.776  88.820  28.230  0.00  0.00    +0.002 A 
ATOM      9  C   LIG    1      -36.815  88.736  29.154  0.00  0.00    +0.000 A 
ATOM     10  C   LIG    1      -36.613  88.095  30.374  0.00  0.00    +0.002 A 
ATOM     11  C   LIG    1      -35.366  87.546  30.684  0.00  0.00    +0.028 A 
ENDBRANCH   3   6
BRANCH   4  12
ATOM     12  N   LIG    1      -33.195  84.742  29.314  0.00  0.00    -0.266 N 
ATOM     13  H   LIG    1      -33.168  84.574  28.319  0.00  0.00    +0.157 HD
ATOM     14  C   LIG    1      -34.108  83.946  30.105  0.00  0.00    +0.251 C 
ATOM     15  O   LIG    1      -34.310  84.214  31.269  0.00  0.00    -0.270 OA
BRANCH  14  16
ATOM     16  C   LIG    1      -34.891  82.865  29.421  0.00  0.00    +0.056 A 
ATOM     17  C   LIG    1      -36.229  82.971  29.058  0.00  0.00    +0.054 A 
ATOM     18 CL   LIG    1      -37.135  84.429  29.216  0.00  0.00    -0.083 Cl
ATOM     19  C   LIG    1      -36.884  81.877  28.481  0.00  0.00    +0.041 A 
ATOM     20  C   LIG    1      -36.201  80.685  28.194  0.00  0.00    +0.052 A 
ATOM     21 CL   LIG    1      -37.201  79.400  27.600  0.00  0.00    -0.083 Cl
ATOM     22  C   LIG    1      -34.815  80.574  28.416  0.00  0.00    +0.019 A 
ATOM     23  C   LIG    1      -34.203  81.678  29.081  0.00  0.00    +0.026 A 
BRANCH  22  24
ATOM     24  C   LIG    1      -33.950  79.443  27.967  0.00  0.00    +0.072 A 
ATOM     25  N   LIG    1      -33.214  79.694  26.852  0.00  0.00    -0.255 NA
ATOM     26  C   LIG    1      -32.499  78.678  26.307  0.00  0.00    +0.111 A 
ATOM     27  C   LIG    1      -32.464  77.395  26.819  0.00  0.00    +0.020 A 
ATOM     28  C   LIG    1      -33.206  77.138  27.959  0.00  0.00    +0.004 A 
ATOM     29  C   LIG    1      -33.960  78.164  28.530  0.00  0.00    +0.028 A 
ENDBRANCH  22  24
ENDBRANCH  14  16
ENDBRANCH   4  12
BRANCH   1  30
ATOM     30  C   LIG    1      -29.896  87.617  31.721  0.00  0.00    +0.236 C 
ATOM     31  N   LIG    1      -29.938  87.548  33.003  0.00  0.00    -0.243 NA
BRANCH  30  32
ATOM     32  O   LIG    1      -28.879  88.147  31.006  0.00  0.00    -0.491 OA
ATOM     33  H   LIG    1      -29.138  88.932  30.503  0.00  0.00    +0.294 HD
ENDBRANCH  30  32
BRANCH  31  34
ATOM     34  C   LIG    1      -28.806  88.034  33.796  0.00  0.00    +0.204 C 
BRANCH  34  35
ATOM     35  C   LIG    1      -28.173  86.910  34.549  0.00  0.00    +0.105 A 
ATOM     36  N   LIG    1      -26.928  87.030  35.028  0.00  0.00    -0.082 NA
ATOM     37  O   LIG    1      -26.663  85.833  35.676  0.00  0.00    -0.363 OA
ATOM     38  C   LIG    1      -27.751  85.026  35.598  0.00  0.00    +0.230 A 
ATOM     39  C   LIG    1      -28.738  85.660  34.891  0.00  0.00    +0.069 A 
ENDBRANCH  34  35
ENDBRANCH  31  34
ENDBRANCH   1  30
TORSDOF 8
ENDMDL
MODEL 2
REMARK VINA RESULT:      -6.6      6.735     11.234
REMARK  Name = pdb/CHEMBL3933154.pdb
REMARK                            x       y       z     vdW  Elec       q    Type
REMARK                         _______ _______ _______ _____ _____    ______ ____
ROOT
ATOM      1  C   LIG    1      -36.094  79.225  27.792  0.00  0.00    +0.149 A 
ATOM      2  N   LIG    1      -35.278  78.251  28.221  0.00  0.00    -0.160 NA
ATOM      3  N   LIG    1      -35.951  77.093  28.034  0.00  0.00    -0.218 N 
ATOM      4  C   LIG    1      -37.148  77.299  27.333  0.00  0.00    +0.129 A 
ATOM      5  C   LIG    1      -37.301  78.670  27.285  0.00  0.00    +0.078 A 
ENDROOT
BRANCH   3   6
ATOM      6  C   LIG    1      -35.353  75.867  28.436  0.00  0.00    +0.067 A 
ATOM      7  C   LIG    1      -35.928  75.127  29.485  0.00  0.00    +0.028 A 
ATOM      8  C   LIG    1      -35.330  73.940  29.916  0.00  0.00    +0.002 A 
ATOM      9  C   LIG    1      -34.176  73.474  29.289  0.00  0.00    +0.000 A 
ATOM     10  C   LIG    1      -33.626  74.184  28.224  0.00  0.00    +0.002 A 
ATOM     11  C   LIG    1      -34.216  75.374  27.790  0.00  0.00    +0.028 A 
ENDBRANCH   3   6
BRANCH   4  12
ATOM     12  N   LIG    1      -37.961  76.322  26.722  0.00  0.00    -0.266 N 
ATOM     13  H   LIG    1      -38.534  75.744  27.317  0.00  0.00    +0.157 HD
ATOM     14  C   LIG    1      -37.866  75.963  25.323  0.00  0.00    +0.251 C 
ATOM     15  O   LIG    1      -37.066  76.512  24.599  0.00  0.00    -0.270 OA
BRANCH  14  16
ATOM     16  C   LIG    1      -38.689  74.813  24.824  0.00  0.00    +0.056 A 
ATOM     17  C   LIG    1      -39.911  74.941  24.173  0.00  0.00    +0.054 A 
ATOM     18 CL   LIG    1      -40.578  76.464  23.716  0.00  0.00    -0.083 Cl
ATOM     19  C   LIG    1      -40.628  73.799  23.805  0.00  0.00    +0.041 A 
ATOM     20  C   LIG    1      -40.112  72.510  24.017  0.00  0.00    +0.052 A 
ATOM     21 CL   LIG    1      -41.194  71.218  23.615  0.00  0.00    -0.083 Cl
ATOM     22  C   LIG    1      -38.821  72.329  24.549  0.00  0.00    +0.019 A 
ATOM     23  C   LIG    1      -38.158  73.513  24.987  0.00  0.00    +0.026 A 
BRANCH  22  24
ATOM     24  C   LIG    1      -38.090  71.029  24.632  0.00  0.00    +0.072 A 
ATOM     25  N   LIG    1      -37.535  70.761  25.843  0.00  0.00    -0.255 NA
ATOM     26  C   LIG    1      -36.749  69.662  25.965  0.00  0.00    +0.111 A 
ATOM     27  C   LIG    1      -36.478  68.786  24.932  0.00  0.00    +0.020 A 
ATOM     28  C   LIG    1      -37.047  69.051  23.699  0.00  0.00    +0.004 A 
ATOM     29  C   LIG    1      -37.849  70.183  23.545  0.00  0.00    +0.028 A 
ENDBRANCH  22  24
ENDBRANCH  14  16
ENDBRANCH   4  12
BRANCH   1  30
ATOM     30  C   LIG    1      -35.674  80.634  27.783  0.00  0.00    +0.236 C 
ATOM     31  N   LIG    1      -36.445  81.537  28.272  0.00  0.00    -0.243 NA
BRANCH  30  32
ATOM     32  O   LIG    1      -34.486  80.870  27.185  0.00  0.00    -0.491 OA
ATOM     33  H   LIG    1      -33.731  80.558  27.704  0.00  0.00    +0.294 HD
ENDBRANCH  30  32
BRANCH  31  34
ATOM     34  C   LIG    1      -36.035  82.943  28.236  0.00  0.00    +0.204 C 
BRANCH  34  35
ATOM     35  C   LIG    1      -36.550  83.607  27.002  0.00  0.00    +0.105 A 
ATOM     36  N   LIG    1      -35.997  83.349  25.810  0.00  0.00    -0.082 NA
ATOM     37  O   LIG    1      -36.714  84.107  24.896  0.00  0.00    -0.363 OA
ATOM     38  C   LIG    1      -37.694  84.786  25.543  0.00  0.00    +0.230 A 
ATOM     39  C   LIG    1      -37.634  84.508  26.882  0.00  0.00    +0.069 A 
ENDBRANCH  34  35
ENDBRANCH  31  34
ENDBRANCH   1  30
TORSDOF 8
ENDMDL
MODEL 3
REMARK VINA RESULT:      -6.5      9.206     16.287
REMARK  Name = pdb/CHEMBL3933154.pdb
REMARK                            x       y       z     vdW  Elec       q    Type
REMARK                         _______ _______ _______ _____ _____    ______ ____
ROOT
ATOM      1  C   LIG    1      -35.519  68.949  24.915  0.00  0.00    +0.149 A 
ATOM      2  N   LIG    1      -36.572  69.778  24.850  0.00  0.00    -0.160 NA
ATOM      3  N   LIG    1      -36.267  70.828  25.646  0.00  0.00    -0.218 N 
ATOM      4  C   LIG    1      -34.944  70.761  26.106  0.00  0.00    +0.129 A 
ATOM      5  C   LIG    1      -34.504  69.504  25.742  0.00  0.00    +0.078 A 
ENDROOT
BRANCH   3   6
ATOM      6  C   LIG    1      -37.217  71.872  25.817  0.00  0.00    +0.067 A 
ATOM      7  C   LIG    1      -37.719  72.544  24.687  0.00  0.00    +0.028 A 
ATOM      8  C   LIG    1      -38.624  73.596  24.843  0.00  0.00    +0.002 A 
ATOM      9  C   LIG    1      -39.052  73.965  26.116  0.00  0.00    +0.000 A 
ATOM     10  C   LIG    1      -38.588  73.277  27.234  0.00  0.00    +0.002 A 
ATOM     11  C   LIG    1      -37.679  72.226  27.088  0.00  0.00    +0.028 A 
ENDBRANCH   3   6
BRANCH   4  12
ATOM     12  N   LIG    1      -34.195  71.789  26.714  0.00  0.00    -0.266 N 
ATOM     13  H   LIG    1      -33.537  72.297  26.141  0.00  0.00    +0.157 HD
ATOM     14  C   LIG    1      -34.162  72.020  28.142  0.00  0.00    +0.251 C 
ATOM     15  O   LIG    1      -34.805  71.321  28.894  0.00  0.00    -0.270 OA
BRANCH  14  16
ATOM     16  C   LIG    1      -33.219  73.056  28.676  0.00  0.00    +0.056 A 
ATOM     17  C   LIG    1      -32.090  72.776  29.438  0.00  0.00    +0.054 A 
ATOM     18 CL   LIG    1      -31.537  71.173  29.748  0.00  0.00    -0.083 Cl
ATOM     19  C   LIG    1      -31.312  73.824  29.943  0.00  0.00    +0.041 A 
ATOM     20  C   LIG    1      -31.605  75.164  29.641  0.00  0.00    +0.052 A 
ATOM     21 CL   LIG    1      -30.612  76.326  30.456  0.00  0.00    -0.083 Cl
ATOM     22  C   LIG    1      -32.656  75.493  28.764  0.00  0.00    +0.019 A 
ATOM     23  C   LIG    1      -33.474  74.405  28.339  0.00  0.00    +0.026 A 
BRANCH  22  24
ATOM     24  C   LIG    1      -32.934  76.853  28.212  0.00  0.00    +0.072 A 
ATOM     25  N   LIG    1      -32.221  77.176  27.101  0.00  0.00    -0.255 NA
ATOM     26  C   LIG    1      -32.322  78.437  26.612  0.00  0.00    +0.111 A 
ATOM     27  C   LIG    1      -33.114  79.423  27.171  0.00  0.00    +0.020 A 
ATOM     28  C   LIG    1      -33.847  79.095  28.298  0.00  0.00    +0.004 A 
ATOM     29  C   LIG    1      -33.749  77.808  28.827  0.00  0.00    +0.028 A 
ENDBRANCH  22  24
ENDBRANCH  14  16
ENDBRANCH   4  12
BRANCH   1  30
ATOM     30  C   LIG    1      -35.462  67.713  24.122  0.00  0.00    +0.236 C 
ATOM     31  N   LIG    1      -36.147  67.611  23.039  0.00  0.00    -0.243 NA
BRANCH  30  32
ATOM     32  O   LIG    1      -34.705  66.729  24.654  0.00  0.00    -0.491 OA
ATOM     33  H   LIG    1      -33.985  66.447  24.071  0.00  0.00    +0.294 HD
ENDBRANCH  30  32
BRANCH  31  34
ATOM     34  C   LIG    1      -36.109  66.367  22.267  0.00  0.00    +0.204 C 
BRANCH  34  35
ATOM     35  C   LIG    1      -35.060  66.440  21.207  0.00  0.00    +0.105 A 
ATOM     36  N   LIG    1      -33.762  66.464  21.537  0.00  0.00    -0.082 NA
ATOM     37  O   LIG    1      -33.074  66.515  20.333  0.00  0.00    -0.363 OA
ATOM     38  C   LIG    1      -33.960  66.498  19.306  0.00  0.00    +0.230 A 
ATOM     39  C   LIG    1      -35.235  66.453  19.804  0.00  0.00    +0.069 A 
ENDBRANCH  34  35
ENDBRANCH  31  34
ENDBRANCH   1  30
TORSDOF 8
ENDMDL
MODEL 4
REMARK VINA RESULT:      -6.5      9.279     14.086
REMARK  Name = pdb/CHEMBL3933154.pdb
REMARK                            x       y       z     vdW  Elec       q    Type
REMARK                         _______ _______ _______ _____ _____    ______ ____
ROOT
ATOM      1  C   LIG    1      -24.440  82.946  37.213  0.00  0.00    +0.149 A 
ATOM      2  N   LIG    1      -23.439  83.425  37.967  0.00  0.00    -0.160 NA
ATOM      3  N   LIG    1      -22.339  82.721  37.615  0.00  0.00    -0.218 N 
ATOM      4  C   LIG    1      -22.589  81.889  36.514  0.00  0.00    +0.129 A 
ATOM      5  C   LIG    1      -23.956  81.939  36.333  0.00  0.00    +0.078 A 
ENDROOT
BRANCH   3   6
ATOM      6  C   LIG    1      -21.108  82.976  38.278  0.00  0.00    +0.067 A 
ATOM      7  C   LIG    1      -20.350  84.107  37.923  0.00  0.00    +0.028 A 
ATOM      8  C   LIG    1      -19.120  84.348  38.540  0.00  0.00    +0.002 A 
ATOM      9  C   LIG    1      -18.653  83.483  39.527  0.00  0.00    +0.000 A 
ATOM     10  C   LIG    1      -19.418  82.383  39.908  0.00  0.00    +0.002 A 
ATOM     11  C   LIG    1      -20.648  82.132  39.293  0.00  0.00    +0.028 A 
ENDBRANCH   3   6
BRANCH   4  12
ATOM     12  N   LIG    1      -21.639  81.231  35.706  0.00  0.00    -0.266 N 
ATOM     13  H   LIG    1      -21.474  81.594  34.779  0.00  0.00    +0.157 HD
ATOM     14  C   LIG    1      -21.046  79.955  36.044  0.00  0.00    +0.251 C 
ATOM     15  O   LIG    1      -21.345  79.390  37.073  0.00  0.00    -0.270 OA
BRANCH  14  16
ATOM     16  C   LIG    1      -20.155  79.292  35.037  0.00  0.00    +0.056 A 
ATOM     17  C   LIG    1      -18.789  79.091  35.205  0.00  0.00    +0.054 A 
ATOM     18 CL   LIG    1      -17.958  79.448  36.673  0.00  0.00    -0.083 Cl
ATOM     19  C   LIG    1      -18.037  78.519  34.174  0.00  0.00    +0.041 A 
ATOM     20  C   LIG    1      -18.641  78.077  32.986  0.00  0.00    +0.052 A 
ATOM     21 CL   LIG    1      -17.536  77.514  31.774  0.00  0.00    -0.083 Cl
ATOM     22  C   LIG    1      -20.038  78.133  32.822  0.00  0.00    +0.019 A 
ATOM     23  C   LIG    1      -20.758  78.797  33.858  0.00  0.00    +0.026 A 
BRANCH  22  24
ATOM     24  C   LIG    1      -20.807  77.514  31.701  0.00  0.00    +0.072 A 
ATOM     25  N   LIG    1      -21.813  76.685  32.088  0.00  0.00    -0.255 NA
ATOM     26  C   LIG    1      -22.477  75.986  31.134  0.00  0.00    +0.111 A 
ATOM     27  C   LIG    1      -22.202  76.067  29.783  0.00  0.00    +0.020 A 
ATOM     28  C   LIG    1      -21.184  76.916  29.384  0.00  0.00    +0.004 A 
ATOM     29  C   LIG    1      -20.477  77.635  30.349  0.00  0.00    +0.028 A 
ENDBRANCH  22  24
ENDBRANCH  14  16
ENDBRANCH   4  12
BRANCH   1  30
ATOM     30  C   LIG    1      -25.793  83.517  37.276  0.00  0.00    +0.236 C 
ATOM     31  N   LIG    1      -26.313  84.055  36.232  0.00  0.00    -0.243 NA
BRANCH  30  32
ATOM     32  O   LIG    1      -26.374  83.472  38.495  0.00  0.00    -0.491 OA
ATOM     33  H   LIG    1      -26.979  84.211  38.654  0.00  0.00    +0.294 HD
ENDBRANCH  30  32
BRANCH  31  34
ATOM     34  C   LIG    1      -27.650  84.647  36.306  0.00  0.00    +0.204 C 
BRANCH  34  35
ATOM     35  C   LIG    1      -27.708  85.912  35.514  0.00  0.00    +0.105 A 
ATOM     36  N   LIG    1      -26.688  86.779  35.544  0.00  0.00    -0.082 NA
ATOM     37  O   LIG    1      -27.057  87.816  34.699  0.00  0.00    -0.363 OA
ATOM     38  C   LIG    1      -28.273  87.548  34.161  0.00  0.00    +0.230 A 
ATOM     39  C   LIG    1      -28.733  86.353  34.646  0.00  0.00    +0.069 A 
ENDBRANCH  34  35
ENDBRANCH  31  34
ENDBRANCH   1  30
TORSDOF 8
ENDMDL
MODEL 5
REMARK VINA RESULT:      -6.3     18.358     20.234
REMARK  Name = pdb/CHEMBL3933154.pdb
REMARK                            x       y       z     vdW  Elec       q    Type
REMARK                         _______ _______ _______ _____ _____    ______ ____
ROOT
ATOM      1  C   LIG    1      -22.536  82.905  15.280  0.00  0.00    +0.149 A 
ATOM      2  N   LIG    1      -23.629  82.264  14.841  0.00  0.00    -0.160 NA
ATOM      3  N   LIG    1      -23.304  80.952  14.814  0.00  0.00    -0.218 N 
ATOM      4  C   LIG    1      -22.046  80.719  15.388  0.00  0.00    +0.129 A 
ATOM      5  C   LIG    1      -21.502  81.974  15.575  0.00  0.00    +0.078 A 
ENDROOT
BRANCH   3   6
ATOM      6  C   LIG    1      -24.258  80.007  14.347  0.00  0.00    +0.067 A 
ATOM      7  C   LIG    1      -25.259  79.545  15.220  0.00  0.00    +0.028 A 
ATOM      8  C   LIG    1      -26.181  78.588  14.787  0.00  0.00    +0.002 A 
ATOM      9  C   LIG    1      -26.125  78.109  13.480  0.00  0.00    +0.000 A 
ATOM     10  C   LIG    1      -25.159  78.593  12.600  0.00  0.00    +0.002 A 
ATOM     11  C   LIG    1      -24.232  79.546  13.028  0.00  0.00    +0.028 A 
ENDBRANCH   3   6
BRANCH   4  12
ATOM     12  N   LIG    1      -21.501  79.480  15.784  0.00  0.00    -0.266 N 
ATOM     13  H   LIG    1      -21.438  79.285  16.772  0.00  0.00    +0.157 HD
ATOM     14  C   LIG    1      -20.841  78.568  14.875  0.00  0.00    +0.251 C 
ATOM     15  O   LIG    1      -20.737  78.838  13.699  0.00  0.00    -0.270 OA
BRANCH  14  16
ATOM     16  C   LIG    1      -20.182  77.347  15.443  0.00  0.00    +0.056 A 
ATOM     17  C   LIG    1      -18.872  77.303  15.909  0.00  0.00    +0.054 A 
ATOM     18 CL   LIG    1      -17.870  78.700  16.033  0.00  0.00    -0.083 Cl
ATOM     19  C   LIG    1      -18.332  76.094  16.359  0.00  0.00    +0.041 A 
ATOM     20  C   LIG    1      -19.107  74.924  16.418  0.00  0.00    +0.052 A 
ATOM     21 CL   LIG    1      -18.236  73.498  16.880  0.00  0.00    -0.083 Cl
ATOM     22  C   LIG    1      -20.475  74.946  16.086  0.00  0.00    +0.019 A 
ATOM     23  C   LIG    1      -20.964  76.175  15.554  0.00  0.00    +0.026 A 
BRANCH  22  24
ATOM     24  C   LIG    1      -21.440  73.826  16.301  0.00  0.00    +0.072 A 
ATOM     25  N   LIG    1      -21.433  72.873  15.332  0.00  0.00    -0.255 NA
ATOM     26  C   LIG    1      -22.366  71.889  15.388  0.00  0.00    +0.111 A 
ATOM     27  C   LIG    1      -23.327  71.788  16.375  0.00  0.00    +0.020 A 
ATOM     28  C   LIG    1      -23.332  72.753  17.367  0.00  0.00    +0.004 A 
ATOM     29  C   LIG    1      -22.391  73.782  17.324  0.00  0.00    +0.028 A 
ENDBRANCH  22  24
ENDBRANCH  14  16
ENDBRANCH   4  12
BRANCH   1  30
ATOM     30  C   LIG    1      -22.532  84.359  15.500  0.00  0.00    +0.236 C 
ATOM     31  N   LIG    1      -22.204  85.152  14.544  0.00  0.00    -0.243 NA
BRANCH  30  32
ATOM     32  O   LIG    1      -22.833  84.746  16.759  0.00  0.00    -0.491 OA
ATOM     33  H   LIG    1      -22.375  85.555  17.027  0.00  0.00    +0.294 HD
ENDBRANCH  30  32
BRANCH  31  34
ATOM     34  C   LIG    1      -22.174  86.598  14.775  0.00  0.00    +0.204 C 
BRANCH  34  35
ATOM     35  C   LIG    1      -21.037  87.223  14.037  0.00  0.00    +0.105 A 
ATOM     36  N   LIG    1      -19.774  87.011  14.428  0.00  0.00    -0.082 NA
ATOM     37  O   LIG    1      -18.984  87.713  13.530  0.00  0.00    -0.363 OA
ATOM     38  C   LIG    1      -19.775  88.313  12.606  0.00  0.00    +0.230 A 
ATOM     39  C   LIG    1      -21.088  88.038  12.881  0.00  0.00    +0.069 A 
ENDBRANCH  34  35
ENDBRANCH  31  34
ENDBRANCH   1  30
TORSDOF 8
ENDMDL
MODEL 6
REMARK VINA RESULT:      -6.3      8.389     11.179
REMARK  Name = pdb/CHEMBL3933154.pdb
REMARK                            x       y       z     vdW  Elec       q    Type
REMARK                         _______ _______ _______ _____ _____    ______ ____
ROOT
ATOM      1  C   LIG    1      -32.141  74.313  29.963  0.00  0.00    +0.149 A 
ATOM      2  N   LIG    1      -32.147  75.645  29.807  0.00  0.00    -0.160 NA
ATOM      3  N   LIG    1      -32.958  75.891  28.753  0.00  0.00    -0.218 N 
ATOM      4  C   LIG    1      -33.610  74.728  28.319  0.00  0.00    +0.129 A 
ATOM      5  C   LIG    1      -33.000  73.700  29.009  0.00  0.00    +0.078 A 
ENDROOT
BRANCH   3   6
ATOM      6  C   LIG    1      -33.137  77.231  28.310  0.00  0.00    +0.067 A 
ATOM      7  C   LIG    1      -34.064  78.059  28.967  0.00  0.00    +0.028 A 
ATOM      8  C   LIG    1      -34.279  79.365  28.520  0.00  0.00    +0.002 A 
ATOM      9  C   LIG    1      -33.554  79.858  27.436  0.00  0.00    +0.000 A 
ATOM     10  C   LIG    1      -32.607  79.053  26.807  0.00  0.00    +0.002 A 
ATOM     11  C   LIG    1      -32.390  77.745  27.246  0.00  0.00    +0.028 A 
ENDBRANCH   3   6
BRANCH   4  12
ATOM     12  N   LIG    1      -34.716  74.640  27.450  0.00  0.00    -0.266 N 
ATOM     13  H   LIG    1      -34.535  74.524  26.464  0.00  0.00    +0.157 HD
ATOM     14  C   LIG    1      -36.078  74.914  27.855  0.00  0.00    +0.251 C 
ATOM     15  O   LIG    1      -36.329  75.230  28.998  0.00  0.00    -0.270 OA
BRANCH  14  16
ATOM     16  C   LIG    1      -37.148  74.922  26.805  0.00  0.00    +0.056 A 
ATOM     17  C   LIG    1      -37.770  76.069  26.322  0.00  0.00    +0.054 A 
ATOM     18 CL   LIG    1      -37.282  77.662  26.764  0.00  0.00    -0.083 Cl
ATOM     19  C   LIG    1      -38.804  75.959  25.386  0.00  0.00    +0.041 A 
ATOM     20  C   LIG    1      -39.191  74.714  24.866  0.00  0.00    +0.052 A 
ATOM     21 CL   LIG    1      -40.571  74.761  23.818  0.00  0.00    -0.083 Cl
ATOM     22  C   LIG    1      -38.503  73.538  25.221  0.00  0.00    +0.019 A 
ATOM     23  C   LIG    1      -37.513  73.680  26.237  0.00  0.00    +0.026 A 
BRANCH  22  24
ATOM     24  C   LIG    1      -38.688  72.198  24.587  0.00  0.00    +0.072 A 
ATOM     25  N   LIG    1      -37.547  71.472  24.443  0.00  0.00    -0.255 NA
ATOM     26  C   LIG    1      -37.609  70.299  23.764  0.00  0.00    +0.111 A 
ATOM     27  C   LIG    1      -38.765  69.787  23.208  0.00  0.00    +0.020 A 
ATOM     28  C   LIG    1      -39.930  70.520  23.359  0.00  0.00    +0.004 A 
ATOM     29  C   LIG    1      -39.889  71.735  24.043  0.00  0.00    +0.028 A 
ENDBRANCH  22  24
ENDBRANCH  14  16
ENDBRANCH   4  12
BRANCH   1  30
ATOM     30  C   LIG    1      -31.408  73.670  31.063  0.00  0.00    +0.236 C 
ATOM     31  N   LIG    1      -30.124  73.716  31.093  0.00  0.00    -0.243 NA
BRANCH  30  32
ATOM     32  O   LIG    1      -32.180  73.011  31.954  0.00  0.00    -0.491 OA
ATOM     33  H   LIG    1      -32.074  72.049  31.910  0.00  0.00    +0.294 HD
ENDBRANCH  30  32
BRANCH  31  34
ATOM     34  C   LIG    1      -29.396  73.050  32.175  0.00  0.00    +0.204 C 
BRANCH  34  35
ATOM     35  C   LIG    1      -28.013  72.697  31.737  0.00  0.00    +0.105 A 
ATOM     36  N   LIG    1      -27.800  71.634  30.950  0.00  0.00    -0.082 NA
ATOM     37  O   LIG    1      -26.432  71.607  30.725  0.00  0.00    -0.363 OA
ATOM     38  C   LIG    1      -25.850  72.657  31.355  0.00  0.00    +0.230 A 
ATOM     39  C   LIG    1      -26.807  73.381  32.015  0.00  0.00    +0.069 A 
ENDBRANCH  34  35
ENDBRANCH  31  34
ENDBRANCH   1  30
TORSDOF 8
ENDMDL
MODEL 7
REMARK VINA RESULT:      -6.3      8.646     10.814
REMARK  Name = pdb/CHEMBL3933154.pdb
REMARK                            x       y       z     vdW  Elec       q    Type
REMARK                         _______ _______ _______ _____ _____    ______ ____
ROOT
ATOM      1  C   LIG    1      -31.475  74.357  29.979  0.00  0.00    +0.149 A 
ATOM      2  N   LIG    1      -31.584  75.678  29.774  0.00  0.00    -0.160 NA
ATOM      3  N   LIG    1      -32.489  75.825  28.779  0.00  0.00    -0.218 N 
ATOM      4  C   LIG    1      -33.090  74.605  28.442  0.00  0.00    +0.129 A 
ATOM      5  C   LIG    1      -32.359  73.649  29.119  0.00  0.00    +0.078 A 
ENDROOT
BRANCH   3   6
ATOM      6  C   LIG    1      -32.793  77.130  28.303  0.00  0.00    +0.067 A 
ATOM      7  C   LIG    1      -32.203  77.588  27.112  0.00  0.00    +0.028 A 
ATOM      8  C   LIG    1      -32.464  78.882  26.652  0.00  0.00    +0.002 A 
ATOM      9  C   LIG    1      -33.330  79.712  27.361  0.00  0.00    +0.000 A 
ATOM     10  C   LIG    1      -33.946  79.248  28.521  0.00  0.00    +0.002 A 
ATOM     11  C   LIG    1      -33.688  77.957  28.989  0.00  0.00    +0.028 A 
ENDBRANCH   3   6
BRANCH   4  12
ATOM     12  N   LIG    1      -34.251  74.407  27.667  0.00  0.00    -0.266 N 
ATOM     13  H   LIG    1      -34.140  74.293  26.670  0.00  0.00    +0.157 HD
ATOM     14  C   LIG    1      -35.594  74.566  28.180  0.00  0.00    +0.251 C 
ATOM     15  O   LIG    1      -35.779  74.875  29.337  0.00  0.00    -0.270 OA
BRANCH  14  16
ATOM     16  C   LIG    1      -36.742  74.465  27.222  0.00  0.00    +0.056 A 
ATOM     17  C   LIG    1      -37.441  73.293  26.950  0.00  0.00    +0.054 A 
ATOM     18 CL   LIG    1      -37.171  71.818  27.800  0.00  0.00    -0.083 Cl
ATOM     19  C   LIG    1      -38.457  73.294  25.988  0.00  0.00    +0.041 A 
ATOM     20  C   LIG    1      -38.840  74.474  25.330  0.00  0.00    +0.052 A 
ATOM     21 CL   LIG    1      -40.024  74.259  24.083  0.00  0.00    -0.083 Cl
ATOM     22  C   LIG    1      -38.257  75.710  25.667  0.00  0.00    +0.019 A 
ATOM     23  C   LIG    1      -37.171  75.654  26.589  0.00  0.00    +0.026 A 
BRANCH  22  24
ATOM     24  C   LIG    1      -38.718  77.048  25.188  0.00  0.00    +0.072 A 
ATOM     25  N   LIG    1      -39.021  77.935  26.173  0.00  0.00    -0.255 NA
ATOM     26  C   LIG    1      -39.565  79.127  25.824  0.00  0.00    +0.111 A 
ATOM     27  C   LIG    1      -39.830  79.506  24.522  0.00  0.00    +0.020 A 
ATOM     28  C   LIG    1      -39.517  78.609  23.516  0.00  0.00    +0.004 A 
ATOM     29  C   LIG    1      -38.968  77.370  23.851  0.00  0.00    +0.028 A 
ENDBRANCH  22  24
ENDBRANCH  14  16
ENDBRANCH   4  12
BRANCH   1  30
ATOM     30  C   LIG    1      -30.616  73.811  31.040  0.00  0.00    +0.236 C 
ATOM     31  N   LIG    1      -29.710  74.546  31.576  0.00  0.00    -0.243 NA
BRANCH  30  32
ATOM     32  O   LIG    1      -30.830  72.509  31.331  0.00  0.00    -0.491 OA
ATOM     33  H   LIG    1      -30.943  71.957  30.544  0.00  0.00    +0.294 HD
ENDBRANCH  30  32
BRANCH  31  34
ATOM     34  C   LIG    1      -28.839  73.990  32.614  0.00  0.00    +0.204 C 
BRANCH  34  35
ATOM     35  C   LIG    1      -27.586  73.446  32.010  0.00  0.00    +0.105 A 
ATOM     36  N   LIG    1      -27.597  72.271  31.366  0.00  0.00    -0.082 NA
ATOM     37  O   LIG    1      -26.296  72.079  30.924  0.00  0.00    -0.363 OA
ATOM     38  C   LIG    1      -25.534  73.142  31.285  0.00  0.00    +0.230 A 
ATOM     39  C   LIG    1      -26.302  74.038  31.979  0.00  0.00    +0.069 A 
ENDBRANCH  34  35
ENDBRANCH  31  34
ENDBRANCH   1  30
TORSDOF 8
ENDMDL
MODEL 8
REMARK VINA RESULT:      -6.1      8.605     11.153
REMARK  Name = pdb/CHEMBL3933154.pdb
REMARK                            x       y       z     vdW  Elec       q    Type
REMARK                         _______ _______ _______ _____ _____    ______ ____
ROOT
ATOM      1  C   LIG    1      -32.437  75.728  30.044  0.00  0.00    +0.149 A 
ATOM      2  N   LIG    1      -33.476  76.525  29.754  0.00  0.00    -0.160 NA
ATOM      3  N   LIG    1      -34.089  75.962  28.688  0.00  0.00    -0.218 N 
ATOM      4  C   LIG    1      -33.544  74.707  28.381  0.00  0.00    +0.129 A 
ATOM      5  C   LIG    1      -32.411  74.610  29.164  0.00  0.00    +0.078 A 
ENDROOT
BRANCH   3   6
ATOM      6  C   LIG    1      -35.220  76.606  28.115  0.00  0.00    +0.067 A 
ATOM      7  C   LIG    1      -35.595  77.883  28.570  0.00  0.00    +0.028 A 
ATOM      8  C   LIG    1      -36.725  78.512  28.043  0.00  0.00    +0.002 A 
ATOM      9  C   LIG    1      -37.469  77.885  27.045  0.00  0.00    +0.000 A 
ATOM     10  C   LIG    1      -37.079  76.638  26.564  0.00  0.00    +0.002 A 
ATOM     11  C   LIG    1      -35.952  76.001  27.089  0.00  0.00    +0.028 A 
ENDBRANCH   3   6
BRANCH   4  12
ATOM     12  N   LIG    1      -34.089  73.720  27.535  0.00  0.00    -0.266 N 
ATOM     13  H   LIG    1      -33.951  73.820  26.540  0.00  0.00    +0.157 HD
ATOM     14  C   LIG    1      -35.005  72.695  27.987  0.00  0.00    +0.251 C 
ATOM     15  O   LIG    1      -35.341  72.638  29.150  0.00  0.00    -0.270 OA
BRANCH  14  16
ATOM     16  C   LIG    1      -35.624  71.789  26.965  0.00  0.00    +0.056 A 
ATOM     17  C   LIG    1      -35.174  70.505  26.674  0.00  0.00    +0.054 A 
ATOM     18 CL   LIG    1      -33.922  69.722  27.564  0.00  0.00    -0.083 Cl
ATOM     19  C   LIG    1      -35.784  69.767  25.655  0.00  0.00    +0.041 A 
ATOM     20  C   LIG    1      -36.895  70.265  24.955  0.00  0.00    +0.052 A 
ATOM     21 CL   LIG    1      -37.436  69.267  23.646  0.00  0.00    -0.083 Cl
ATOM     22  C   LIG    1      -37.473  71.500  25.303  0.00  0.00    +0.019 A 
ATOM     23  C   LIG    1      -36.772  72.258  26.288  0.00  0.00    +0.026 A 
BRANCH  22  24
ATOM     24  C   LIG    1      -38.763  72.036  24.775  0.00  0.00    +0.072 A 
ATOM     25  N   LIG    1      -39.663  71.090  24.397  0.00  0.00    -0.255 NA
ATOM     26  C   LIG    1      -40.808  71.493  23.791  0.00  0.00    +0.111 A 
ATOM     27  C   LIG    1      -41.125  72.813  23.535  0.00  0.00    +0.020 A 
ATOM     28  C   LIG    1      -40.214  73.779  23.924  0.00  0.00    +0.004 A 
ATOM     29  C   LIG    1      -39.024  73.389  24.538  0.00  0.00    +0.028 A 
ENDBRANCH  22  24
ENDBRANCH  14  16
ENDBRANCH   4  12
BRANCH   1  30
ATOM     30  C   LIG    1      -31.562  75.991  31.195  0.00  0.00    +0.236 C 
ATOM     31  N   LIG    1      -30.384  75.481  31.237  0.00  0.00    -0.243 NA
BRANCH  30  32
ATOM     32  O   LIG    1      -32.120  76.735  32.176  0.00  0.00    -0.491 OA
ATOM     33  H   LIG    1      -33.069  76.875  32.053  0.00  0.00    +0.294 HD
ENDBRANCH  30  32
BRANCH  31  34
ATOM     34  C   LIG    1      -29.526  75.723  32.399  0.00  0.00    +0.204 C 
BRANCH  34  35
ATOM     35  C   LIG    1      -28.204  76.269  31.971  0.00  0.00    +0.105 A 
ATOM     36  N   LIG    1      -28.100  77.531  31.534  0.00  0.00    -0.082 NA
ATOM     37  O   LIG    1      -26.756  77.712  31.240  0.00  0.00    -0.363 OA
ATOM     38  C   LIG    1      -26.075  76.574  31.523  0.00  0.00    +0.230 A 
ATOM     39  C   LIG    1      -26.945  75.624  31.988  0.00  0.00    +0.069 A 
ENDBRANCH  34  35
ENDBRANCH  31  34
ENDBRANCH   1  30
TORSDOF 8
ENDMDL
MODEL 9
REMARK VINA RESULT:      -6.0      9.264     14.056
REMARK  Name = pdb/CHEMBL3933154.pdb
REMARK                            x       y       z     vdW  Elec       q    Type
REMARK                         _______ _______ _______ _____ _____    ______ ____
ROOT
ATOM      1  C   LIG    1      -24.736  82.858  37.381  0.00  0.00    +0.149 A 
ATOM      2  N   LIG    1      -23.670  83.240  38.100  0.00  0.00    -0.160 NA
ATOM      3  N   LIG    1      -22.726  82.293  37.897  0.00  0.00    -0.218 N 
ATOM      4  C   LIG    1      -23.121  81.373  36.915  0.00  0.00    +0.129 A 
ATOM      5  C   LIG    1      -24.449  81.659  36.673  0.00  0.00    +0.078 A 
ENDROOT
BRANCH   3   6
ATOM      6  C   LIG    1      -21.477  82.399  38.568  0.00  0.00    +0.067 A 
ATOM      7  C   LIG    1      -20.598  83.444  38.234  0.00  0.00    +0.028 A 
ATOM      8  C   LIG    1      -19.351  83.539  38.858  0.00  0.00    +0.002 A 
ATOM      9  C   LIG    1      -18.987  82.611  39.832  0.00  0.00    +0.000 A 
ATOM     10  C   LIG    1      -19.871  81.596  40.193  0.00  0.00    +0.002 A 
ATOM     11  C   LIG    1      -21.118  81.493  39.570  0.00  0.00    +0.028 A 
ENDBRANCH   3   6
BRANCH   4  12
ATOM     12  N   LIG    1      -22.310  80.432  36.248  0.00  0.00    -0.266 N 
ATOM     13  H   LIG    1      -22.379  79.465  36.527  0.00  0.00    +0.157 HD
ATOM     14  C   LIG    1      -21.243  80.795  35.340  0.00  0.00    +0.251 C 
ATOM     15  O   LIG    1      -21.005  81.959  35.103  0.00  0.00    -0.270 OA
BRANCH  14  16
ATOM     16  C   LIG    1      -20.362  79.708  34.801  0.00  0.00    +0.056 A 
ATOM     17  C   LIG    1      -19.208  79.247  35.425  0.00  0.00    +0.054 A 
ATOM     18 CL   LIG    1      -18.712  79.769  36.991  0.00  0.00    -0.083 Cl
ATOM     19  C   LIG    1      -18.422  78.271  34.803  0.00  0.00    +0.041 A 
ATOM     20  C   LIG    1      -18.806  77.689  33.585  0.00  0.00    +0.052 A 
ATOM     21 CL   LIG    1      -17.648  76.594  32.905  0.00  0.00    -0.083 Cl
ATOM     22  C   LIG    1      -20.033  78.022  32.981  0.00  0.00    +0.019 A 
ATOM     23  C   LIG    1      -20.764  79.079  33.601  0.00  0.00    +0.026 A 
BRANCH  22  24
ATOM     24  C   LIG    1      -20.640  77.330  31.804  0.00  0.00    +0.072 A 
ATOM     25  N   LIG    1      -20.056  77.615  30.610  0.00  0.00    -0.255 NA
ATOM     26  C   LIG    1      -20.625  77.126  29.480  0.00  0.00    +0.111 A 
ATOM     27  C   LIG    1      -21.765  76.347  29.462  0.00  0.00    +0.020 A 
ATOM     28  C   LIG    1      -22.359  76.049  30.676  0.00  0.00    +0.004 A 
ATOM     29  C   LIG    1      -21.799  76.551  31.852  0.00  0.00    +0.028 A 
ENDBRANCH  22  24
ENDBRANCH  14  16
ENDBRANCH   4  12
BRANCH   1  30
ATOM     30  C   LIG    1      -25.950  83.683  37.307  0.00  0.00    +0.236 C 
ATOM     31  N   LIG    1      -26.240  84.305  36.221  0.00  0.00    -0.243 NA
BRANCH  30  32
ATOM     32  O   LIG    1      -26.657  83.761  38.456  0.00  0.00    -0.491 OA
ATOM     33  H   LIG    1      -26.105  83.683  39.247  0.00  0.00    +0.294 HD
ENDBRANCH  30  32
BRANCH  31  34
ATOM     34  C   LIG    1      -27.436  85.147  36.160  0.00  0.00    +0.204 C 
BRANCH  34  35
ATOM     35  C   LIG    1      -28.605  84.363  35.664  0.00  0.00    +0.105 A 
ATOM     36  N   LIG    1      -28.914  83.182  36.215  0.00  0.00    -0.082 NA
ATOM     37  O   LIG    1      -30.043  82.741  35.541  0.00  0.00    -0.363 OA
ATOM     38  C   LIG    1      -30.407  83.665  34.617  0.00  0.00    +0.230 A 
ATOM     39  C   LIG    1      -29.527  84.714  34.651  0.00  0.00    +0.069 A 
ENDBRANCH  34  35
ENDBRANCH  31  34
ENDBRANCH   1  30
TORSDOF 8
ENDMDL
