MODEL 1
REMARK VINA RESULT:      -6.0      0.000      0.000
REMARK  Name = pdb/CHEMBL3676042.pdb
REMARK                            x       y       z     vdW  Elec       q    Type
REMARK                         _______ _______ _______ _____ _____    ______ ____
ROOT
ATOM      1  C   UNK A  0      -22.893  76.843  30.447  0.00  0.00    +0.100 A 
ATOM      2  C   UNK A  0      -22.029  77.372  31.394  0.00  0.00    +0.170 A 
ATOM      3  N   UNK A  0      -22.206  77.788  32.696  0.00  0.00    -0.212 NA
ATOM      4  C   UNK A  0      -21.135  78.168  33.363  0.00  0.00    +0.126 A 
ATOM      5  C   UNK A  0      -19.764  78.222  32.741  0.00  0.00    +0.063 A 
ATOM      6  C   UNK A  0      -19.655  77.832  31.467  0.00  0.00    +0.118 A 
ATOM      7  N   UNK A  0      -20.770  77.392  30.778  0.00  0.00    -0.221 N 
ATOM      8  N   UNK A  0      -20.808  76.933  29.505  0.00  0.00    -0.173 NA
ATOM      9  C   UNK A  0      -22.075  76.575  29.329  0.00  0.00    +0.150 A 
ENDROOT
BRANCH   4  10
ATOM     10  N   UNK A  0      -21.219  78.566  34.691  0.00  0.00    -0.308 N 
ATOM     11  C   UNK A  0      -20.886  79.969  35.038  0.00  0.00    +0.108 C 
ATOM     12  C   UNK A  0      -19.731  79.836  36.040  0.00  0.00    +0.029 C 
ATOM     13  C   UNK A  0      -20.048  78.556  36.792  0.00  0.00    +0.021 C 
ATOM     14  C   UNK A  0      -20.692  77.668  35.733  0.00  0.00    +0.107 C 
BRANCH  11  15
ATOM     15  C   UNK A  0      -22.102  80.695  35.599  0.00  0.00    +0.011 A 
ATOM     16  C   UNK A  0      -21.962  81.996  36.106  0.00  0.00    +0.129 A 
ATOM     17  F   UNK A  0      -20.759  82.588  36.095  0.00  0.00    -0.205 F 
ATOM     18  C   UNK A  0      -23.046  82.708  36.630  0.00  0.00    +0.041 A 
ATOM     19  C   UNK A  0      -24.309  82.122  36.662  0.00  0.00    +0.041 A 
ATOM     20  C   UNK A  0      -24.466  80.833  36.171  0.00  0.00    +0.124 A 
ATOM     21  F   UNK A  0      -25.675  80.258  36.201  0.00  0.00    -0.205 F 
ATOM     22  C   UNK A  0      -23.386  80.122  35.648  0.00  0.00    +0.046 A 
ENDBRANCH  11  15
ENDBRANCH   4  10
BRANCH   1  25
ATOM     23  N   SER A  1      -24.738  75.816  31.562  0.00  0.00    -0.304 N 
ATOM     24  H   SER A  1      -24.020  75.405  32.154  0.00  0.00    +0.149 HD
ATOM     25  C   UNK A  0      -24.305  76.581  30.515  0.00  0.00    +0.250 C 
ATOM     26  O   UNK A  0      -25.081  77.111  29.713  0.00  0.00    -0.270 OA
BRANCH  23  27
ATOM     27  CA  SER A  1      -26.154  75.553  31.889  0.00  0.00    +0.124 C 
BRANCH  27  28
ATOM     28  C   SER A  1      -26.388  74.278  32.735  0.00  0.00    +0.180 C 
BRANCH  28  29
ATOM     29  O   SER A  1      -26.304  74.473  34.141  0.00  0.00    -0.393 OA
ATOM     30  H   SER A  1      -26.427  73.602  34.575  0.00  0.00    +0.209 HD
ENDBRANCH  28  29
ENDBRANCH  27  28
BRANCH  27  31
ATOM     31  CB  SER A  1      -26.848  76.773  32.517  0.00  0.00    +0.180 C 
BRANCH  31  32
ATOM     32  OG  SER A  1      -27.518  77.533  31.509  0.00  0.00    -0.393 OA
ATOM     33  H   SER A  1      -28.448  77.599  31.797  0.00  0.00    +0.209 HD
ENDBRANCH  31  32
ENDBRANCH  27  31
ENDBRANCH  23  27
ENDBRANCH   1  25
TORSDOF 8
ENDMDL
MODEL 2
REMARK VINA RESULT:      -5.9     13.443     17.851
REMARK  Name = pdb/CHEMBL3676042.pdb
REMARK                            x       y       z     vdW  Elec       q    Type
REMARK                         _______ _______ _______ _____ _____    ______ ____
ROOT
ATOM      1  C   UNK A  0      -35.999  79.002  28.195  0.00  0.00    +0.100 A 
ATOM      2  C   UNK A  0      -37.306  79.001  27.732  0.00  0.00    +0.170 A 
ATOM      3  N   UNK A  0      -37.959  78.262  26.770  0.00  0.00    -0.212 NA
ATOM      4  C   UNK A  0      -39.256  78.455  26.632  0.00  0.00    +0.126 A 
ATOM      5  C   UNK A  0      -40.016  79.479  27.433  0.00  0.00    +0.063 A 
ATOM      6  C   UNK A  0      -39.328  80.186  28.334  0.00  0.00    +0.118 A 
ATOM      7  N   UNK A  0      -37.975  79.956  28.509  0.00  0.00    -0.221 N 
ATOM      8  N   UNK A  0      -37.159  80.562  29.403  0.00  0.00    -0.173 NA
ATOM      9  C   UNK A  0      -35.987  79.960  29.231  0.00  0.00    +0.150 A 
ENDROOT
BRANCH   4  10
ATOM     10  N   UNK A  0      -39.998  77.724  25.713  0.00  0.00    -0.308 N 
ATOM     11  C   UNK A  0      -39.325  77.229  24.487  0.00  0.00    +0.108 C 
ATOM     12  C   UNK A  0      -40.128  77.865  23.344  0.00  0.00    +0.029 C 
ATOM     13  C   UNK A  0      -41.546  77.920  23.883  0.00  0.00    +0.021 C 
ATOM     14  C   UNK A  0      -41.354  78.185  25.372  0.00  0.00    +0.107 C 
BRANCH  11  15
ATOM     15  C   UNK A  0      -39.311  75.705  24.451  0.00  0.00    +0.011 A 
ATOM     16  C   UNK A  0      -38.194  75.009  24.936  0.00  0.00    +0.129 A 
ATOM     17  F   UNK A  0      -37.148  75.689  25.426  0.00  0.00    -0.205 F 
ATOM     18  C   UNK A  0      -38.131  73.611  24.927  0.00  0.00    +0.041 A 
ATOM     19  C   UNK A  0      -39.198  72.873  24.421  0.00  0.00    +0.041 A 
ATOM     20  C   UNK A  0      -40.309  73.545  23.931  0.00  0.00    +0.124 A 
ATOM     21  F   UNK A  0      -41.339  72.845  23.438  0.00  0.00    -0.205 F 
ATOM     22  C   UNK A  0      -40.373  74.939  23.938  0.00  0.00    +0.046 A 
ENDBRANCH  11  15
ENDBRANCH   4  10
BRANCH   1  25
ATOM     23  N   SER A  1      -33.630  78.701  28.135  0.00  0.00    -0.304 N 
ATOM     24  H   SER A  1      -33.605  79.619  28.574  0.00  0.00    +0.149 HD
ATOM     25  C   UNK A  0      -34.862  78.225  27.780  0.00  0.00    +0.250 C 
ATOM     26  O   UNK A  0      -35.018  77.136  27.218  0.00  0.00    -0.270 OA
BRANCH  23  27
ATOM     27  CA  SER A  1      -32.356  77.984  27.931  0.00  0.00    +0.124 C 
BRANCH  27  28
ATOM     28  C   SER A  1      -32.182  76.726  28.816  0.00  0.00    +0.180 C 
BRANCH  28  29
ATOM     29  O   SER A  1      -31.121  76.803  29.760  0.00  0.00    -0.393 OA
ATOM     30  H   SER A  1      -30.327  76.394  29.357  0.00  0.00    +0.209 HD
ENDBRANCH  28  29
ENDBRANCH  27  28
BRANCH  27  31
ATOM     31  CB  SER A  1      -32.093  77.663  26.450  0.00  0.00    +0.180 C 
BRANCH  31  32
ATOM     32  OG  SER A  1      -32.300  78.827  25.648  0.00  0.00    -0.393 OA
ATOM     33  H   SER A  1      -31.485  79.357  25.729  0.00  0.00    +0.209 HD
ENDBRANCH  31  32
ENDBRANCH  27  31
ENDBRANCH  23  27
ENDBRANCH   1  25
TORSDOF 8
ENDMDL
MODEL 3
REMARK VINA RESULT:      -5.9      6.030      9.032
REMARK  Name = pdb/CHEMBL3676042.pdb
REMARK                            x       y       z     vdW  Elec       q    Type
REMARK                         _______ _______ _______ _____ _____    ______ ____
ROOT
ATOM      1  C   UNK A  0      -32.219  74.663  29.553  0.00  0.00    +0.100 A 
ATOM      2  C   UNK A  0      -31.100  74.570  30.367  0.00  0.00    +0.170 A 
ATOM      3  N   UNK A  0      -30.174  75.496  30.797  0.00  0.00    -0.212 NA
ATOM      4  C   UNK A  0      -29.261  75.088  31.655  0.00  0.00    +0.126 A 
ATOM      5  C   UNK A  0      -29.160  73.659  32.120  0.00  0.00    +0.063 A 
ATOM      6  C   UNK A  0      -30.068  72.798  31.651  0.00  0.00    +0.118 A 
ATOM      7  N   UNK A  0      -31.054  73.233  30.784  0.00  0.00    -0.221 N 
ATOM      8  N   UNK A  0      -32.057  72.492  30.259  0.00  0.00    -0.173 NA
ATOM      9  C   UNK A  0      -32.768  73.364  29.553  0.00  0.00    +0.150 A 
ENDROOT
BRANCH   4  10
ATOM     10  N   UNK A  0      -28.314  75.966  32.168  0.00  0.00    -0.308 N 
ATOM     11  C   UNK A  0      -27.014  75.421  32.630  0.00  0.00    +0.108 C 
ATOM     12  C   UNK A  0      -26.947  75.831  34.107  0.00  0.00    +0.029 C 
ATOM     13  C   UNK A  0      -27.661  77.169  34.145  0.00  0.00    +0.021 C 
ATOM     14  C   UNK A  0      -28.756  77.022  33.094  0.00  0.00    +0.107 C 
BRANCH  11  15
ATOM     15  C   UNK A  0      -25.865  75.967  31.790  0.00  0.00    +0.011 A 
ATOM     16  C   UNK A  0      -24.785  75.133  31.465  0.00  0.00    +0.129 A 
ATOM     17  F   UNK A  0      -24.771  73.864  31.896  0.00  0.00    -0.205 F 
ATOM     18  C   UNK A  0      -23.706  75.584  30.696  0.00  0.00    +0.041 A 
ATOM     19  C   UNK A  0      -23.685  76.898  30.236  0.00  0.00    +0.041 A 
ATOM     20  C   UNK A  0      -24.742  77.740  30.553  0.00  0.00    +0.124 A 
ATOM     21  F   UNK A  0      -24.730  79.006  30.120  0.00  0.00    -0.205 F 
ATOM     22  C   UNK A  0      -25.818  77.292  31.321  0.00  0.00    +0.046 A 
ENDBRANCH  11  15
ENDBRANCH   4  10
BRANCH   1  25
ATOM     23  N   SER A  1      -31.975  76.896  28.742  0.00  0.00    -0.304 N 
ATOM     24  H   SER A  1      -31.096  76.878  29.255  0.00  0.00    +0.149 HD
ATOM     25  C   UNK A  0      -32.770  75.789  28.849  0.00  0.00    +0.250 C 
ATOM     26  O   UNK A  0      -33.870  75.704  28.293  0.00  0.00    -0.270 OA
BRANCH  23  27
ATOM     27  CA  SER A  1      -32.297  78.095  27.942  0.00  0.00    +0.124 C 
BRANCH  27  28
ATOM     28  C   SER A  1      -32.273  77.867  26.411  0.00  0.00    +0.180 C 
BRANCH  28  29
ATOM     29  O   SER A  1      -32.375  79.051  25.630  0.00  0.00    -0.393 OA
ATOM     30  H   SER A  1      -31.713  78.996  24.909  0.00  0.00    +0.209 HD
ENDBRANCH  28  29
ENDBRANCH  27  28
BRANCH  27  31
ATOM     31  CB  SER A  1      -33.611  78.760  28.384  0.00  0.00    +0.180 C 
BRANCH  31  32
ATOM     32  OG  SER A  1      -34.641  78.504  27.428  0.00  0.00    -0.393 OA
ATOM     33  H   SER A  1      -34.464  77.612  27.076  0.00  0.00    +0.209 HD
ENDBRANCH  31  32
ENDBRANCH  27  31
ENDBRANCH  23  27
ENDBRANCH   1  25
TORSDOF 8
ENDMDL
MODEL 4
REMARK VINA RESULT:      -5.7     14.499     19.262
REMARK  Name = pdb/CHEMBL3676042.pdb
REMARK                            x       y       z     vdW  Elec       q    Type
REMARK                         _______ _______ _______ _____ _____    ______ ____
ROOT
ATOM      1  C   UNK A  0      -37.120  76.294  26.351  0.00  0.00    +0.100 A 
ATOM      2  C   UNK A  0      -37.737  75.205  25.753  0.00  0.00    +0.170 A 
ATOM      3  N   UNK A  0      -37.446  73.858  25.731  0.00  0.00    -0.212 NA
ATOM      4  C   UNK A  0      -38.304  73.061  25.127  0.00  0.00    +0.126 A 
ATOM      5  C   UNK A  0      -39.534  73.572  24.423  0.00  0.00    +0.063 A 
ATOM      6  C   UNK A  0      -39.754  74.890  24.455  0.00  0.00    +0.118 A 
ATOM      7  N   UNK A  0      -38.877  75.724  25.124  0.00  0.00    -0.221 N 
ATOM      8  N   UNK A  0      -38.987  77.064  25.273  0.00  0.00    -0.173 NA
ATOM      9  C   UNK A  0      -37.950  77.390  26.038  0.00  0.00    +0.150 A 
ENDROOT
BRANCH   4  10
ATOM     10  N   UNK A  0      -38.107  71.686  25.091  0.00  0.00    -0.308 N 
ATOM     11  C   UNK A  0      -39.250  70.811  24.738  0.00  0.00    +0.108 C 
ATOM     12  C   UNK A  0      -39.406  69.897  25.961  0.00  0.00    +0.029 C 
ATOM     13  C   UNK A  0      -37.984  69.713  26.459  0.00  0.00    +0.021 C 
ATOM     14  C   UNK A  0      -37.324  71.056  26.168  0.00  0.00    +0.107 C 
BRANCH  11  15
ATOM     15  C   UNK A  0      -38.980  70.057  23.442  0.00  0.00    +0.011 A 
ATOM     16  C   UNK A  0      -40.031  69.826  22.541  0.00  0.00    +0.129 A 
ATOM     17  F   UNK A  0      -41.263  70.268  22.829  0.00  0.00    -0.205 F 
ATOM     18  C   UNK A  0      -39.836  69.141  21.336  0.00  0.00    +0.041 A 
ATOM     19  C   UNK A  0      -38.570  68.664  21.008  0.00  0.00    +0.041 A 
ATOM     20  C   UNK A  0      -37.520  68.877  21.889  0.00  0.00    +0.124 A 
ATOM     21  F   UNK A  0      -36.299  68.419  21.586  0.00  0.00    -0.205 F 
ATOM     22  C   UNK A  0      -37.712  69.560  23.091  0.00  0.00    +0.046 A 
ENDBRANCH  11  15
ENDBRANCH   4  10
BRANCH   1  25
ATOM     23  N   SER A  1      -34.983  77.285  26.745  0.00  0.00    -0.304 N 
ATOM     24  H   SER A  1      -35.160  77.770  25.868  0.00  0.00    +0.149 HD
ATOM     25  C   UNK A  0      -35.919  76.370  27.138  0.00  0.00    +0.250 C 
ATOM     26  O   UNK A  0      -35.803  75.701  28.171  0.00  0.00    -0.270 OA
BRANCH  23  27
ATOM     27  CA  SER A  1      -33.755  77.615  27.496  0.00  0.00    +0.124 C 
BRANCH  27  28
ATOM     28  C   SER A  1      -32.455  77.544  26.658  0.00  0.00    +0.180 C 
BRANCH  28  29
ATOM     29  O   SER A  1      -32.323  78.563  25.675  0.00  0.00    -0.393 OA
ATOM     30  H   SER A  1      -33.020  78.423  24.999  0.00  0.00    +0.209 HD
ENDBRANCH  28  29
ENDBRANCH  27  28
BRANCH  27  31
ATOM     31  CB  SER A  1      -33.865  78.956  28.240  0.00  0.00    +0.180 C 
BRANCH  31  32
ATOM     32  OG  SER A  1      -34.162  80.009  27.320  0.00  0.00    -0.393 OA
ATOM     33  H   SER A  1      -34.282  80.811  27.861  0.00  0.00    +0.209 HD
ENDBRANCH  31  32
ENDBRANCH  27  31
ENDBRANCH  23  27
ENDBRANCH   1  25
TORSDOF 8
ENDMDL
MODEL 5
REMARK VINA RESULT:      -5.7     18.301     21.229
REMARK  Name = pdb/CHEMBL3676042.pdb
REMARK                            x       y       z     vdW  Elec       q    Type
REMARK                         _______ _______ _______ _____ _____    ______ ____
ROOT
ATOM      1  C   UNK A  0      -18.325  84.837  13.071  0.00  0.00    +0.100 A 
ATOM      2  C   UNK A  0      -18.789  83.570  13.391  0.00  0.00    +0.170 A 
ATOM      3  N   UNK A  0      -19.893  83.123  14.083  0.00  0.00    -0.212 NA
ATOM      4  C   UNK A  0      -20.092  81.822  14.135  0.00  0.00    +0.126 A 
ATOM      5  C   UNK A  0      -19.138  80.827  13.527  0.00  0.00    +0.063 A 
ATOM      6  C   UNK A  0      -18.070  81.315  12.889  0.00  0.00    +0.118 A 
ATOM      7  N   UNK A  0      -17.881  82.682  12.797  0.00  0.00    -0.221 N 
ATOM      8  N   UNK A  0      -16.875  83.321  12.156  0.00  0.00    -0.173 NA
ATOM      9  C   UNK A  0      -17.169  84.609  12.295  0.00  0.00    +0.150 A 
ENDROOT
BRANCH   4  10
ATOM     10  N   UNK A  0      -21.201  81.288  14.780  0.00  0.00    -0.308 N 
ATOM     11  C   UNK A  0      -22.546  81.799  14.424  0.00  0.00    +0.108 C 
ATOM     12  C   UNK A  0      -23.099  82.338  15.750  0.00  0.00    +0.029 C 
ATOM     13  C   UNK A  0      -22.510  81.405  16.794  0.00  0.00    +0.021 C 
ATOM     14  C   UNK A  0      -21.134  81.064  16.234  0.00  0.00    +0.107 C 
BRANCH  11  15
ATOM     15  C   UNK A  0      -23.401  80.699  13.806  0.00  0.00    +0.011 A 
ATOM     16  C   UNK A  0      -24.656  81.017  13.264  0.00  0.00    +0.129 A 
ATOM     17  F   UNK A  0      -25.093  82.283  13.295  0.00  0.00    -0.205 F 
ATOM     18  C   UNK A  0      -25.479  80.045  12.684  0.00  0.00    +0.041 A 
ATOM     19  C   UNK A  0      -25.059  78.718  12.639  0.00  0.00    +0.041 A 
ATOM     20  C   UNK A  0      -23.824  78.384  13.176  0.00  0.00    +0.124 A 
ATOM     21  F   UNK A  0      -23.412  77.111  13.143  0.00  0.00    -0.205 F 
ATOM     22  C   UNK A  0      -23.002  79.352  13.756  0.00  0.00    +0.046 A 
ENDBRANCH  11  15
ENDBRANCH   4  10
BRANCH   1  25
ATOM     23  N   SER A  1      -20.087  86.166  13.983  0.00  0.00    -0.304 N 
ATOM     24  H   SER A  1      -20.585  85.280  14.047  0.00  0.00    +0.149 HD
ATOM     25  C   UNK A  0      -18.852  86.134  13.400  0.00  0.00    +0.250 C 
ATOM     26  O   UNK A  0      -18.163  87.149  13.245  0.00  0.00    -0.270 OA
BRANCH  23  27
ATOM     27  CA  SER A  1      -20.737  87.377  14.523  0.00  0.00    +0.124 C 
BRANCH  27  28
ATOM     28  C   SER A  1      -21.328  88.319  13.446  0.00  0.00    +0.180 C 
BRANCH  28  29
ATOM     29  O   SER A  1      -20.401  89.240  12.885  0.00  0.00    -0.393 OA
ATOM     30  H   SER A  1      -20.351  90.018  13.479  0.00  0.00    +0.209 HD
ENDBRANCH  28  29
ENDBRANCH  27  28
BRANCH  27  31
ATOM     31  CB  SER A  1      -21.777  87.051  15.608  0.00  0.00    +0.180 C 
BRANCH  31  32
ATOM     32  OG  SER A  1      -21.334  87.533  16.878  0.00  0.00    -0.393 OA
ATOM     33  H   SER A  1      -22.027  88.145  17.190  0.00  0.00    +0.209 HD
ENDBRANCH  31  32
ENDBRANCH  27  31
ENDBRANCH  23  27
ENDBRANCH   1  25
TORSDOF 8
ENDMDL
MODEL 6
REMARK VINA RESULT:      -5.6     13.551     17.303
REMARK  Name = pdb/CHEMBL3676042.pdb
REMARK                            x       y       z     vdW  Elec       q    Type
REMARK                         _______ _______ _______ _____ _____    ______ ____
ROOT
ATOM      1  C   UNK A  0      -36.921  76.459  26.795  0.00  0.00    +0.100 A 
ATOM      2  C   UNK A  0      -37.925  77.149  26.132  0.00  0.00    +0.170 A 
ATOM      3  N   UNK A  0      -38.224  78.489  26.019  0.00  0.00    -0.212 NA
ATOM      4  C   UNK A  0      -39.220  78.824  25.225  0.00  0.00    +0.126 A 
ATOM      5  C   UNK A  0      -40.063  77.807  24.502  0.00  0.00    +0.063 A 
ATOM      6  C   UNK A  0      -39.745  76.520  24.668  0.00  0.00    +0.118 A 
ATOM      7  N   UNK A  0      -38.673  76.168  25.467  0.00  0.00    -0.221 N 
ATOM      8  N   UNK A  0      -38.210  74.917  25.699  0.00  0.00    -0.173 NA
ATOM      9  C   UNK A  0      -37.141  75.105  26.465  0.00  0.00    +0.150 A 
ENDROOT
BRANCH   4  10
ATOM     10  N   UNK A  0      -39.564  80.156  25.025  0.00  0.00    -0.308 N 
ATOM     11  C   UNK A  0      -39.438  81.102  26.159  0.00  0.00    +0.108 C 
ATOM     12  C   UNK A  0      -40.860  81.650  26.340  0.00  0.00    +0.029 C 
ATOM     13  C   UNK A  0      -41.419  81.682  24.929  0.00  0.00    +0.021 C 
ATOM     14  C   UNK A  0      -40.787  80.464  24.265  0.00  0.00    +0.107 C 
BRANCH  11  15
ATOM     15  C   UNK A  0      -38.401  82.178  25.859  0.00  0.00    +0.011 A 
ATOM     16  C   UNK A  0      -37.233  82.252  26.634  0.00  0.00    +0.129 A 
ATOM     17  F   UNK A  0      -37.040  81.378  27.631  0.00  0.00    -0.205 F 
ATOM     18  C   UNK A  0      -36.250  83.219  26.399  0.00  0.00    +0.041 A 
ATOM     19  C   UNK A  0      -36.420  84.147  25.374  0.00  0.00    +0.041 A 
ATOM     20  C   UNK A  0      -37.572  84.093  24.602  0.00  0.00    +0.124 A 
ATOM     21  F   UNK A  0      -37.748  84.982  23.617  0.00  0.00    -0.205 F 
ATOM     22  C   UNK A  0      -38.554  83.129  24.835  0.00  0.00    +0.046 A 
ENDBRANCH  11  15
ENDBRANCH   4  10
BRANCH   1  25
ATOM     23  N   SER A  1      -34.751  77.438  26.995  0.00  0.00    -0.304 N 
ATOM     24  H   SER A  1      -34.725  77.338  25.982  0.00  0.00    +0.149 HD
ATOM     25  C   UNK A  0      -35.853  76.939  27.630  0.00  0.00    +0.250 C 
ATOM     26  O   UNK A  0      -35.988  76.979  28.859  0.00  0.00    -0.270 OA
BRANCH  23  27
ATOM     27  CA  SER A  1      -33.617  78.105  27.665  0.00  0.00    +0.124 C 
BRANCH  27  28
ATOM     28  C   SER A  1      -32.293  78.072  26.864  0.00  0.00    +0.180 C 
BRANCH  28  29
ATOM     29  O   SER A  1      -32.338  78.743  25.610  0.00  0.00    -0.393 OA
ATOM     30  H   SER A  1      -33.009  79.455  25.672  0.00  0.00    +0.209 HD
ENDBRANCH  28  29
ENDBRANCH  27  28
BRANCH  27  31
ATOM     31  CB  SER A  1      -33.960  79.534  28.115  0.00  0.00    +0.180 C 
BRANCH  31  32
ATOM     32  OG  SER A  1      -33.987  80.414  26.989  0.00  0.00    -0.393 OA
ATOM     33  H   SER A  1      -33.971  81.318  27.355  0.00  0.00    +0.209 HD
ENDBRANCH  31  32
ENDBRANCH  27  31
ENDBRANCH  23  27
ENDBRANCH   1  25
TORSDOF 8
ENDMDL
MODEL 7
REMARK VINA RESULT:      -5.5     19.016     20.939
REMARK  Name = pdb/CHEMBL3676042.pdb
REMARK                            x       y       z     vdW  Elec       q    Type
REMARK                         _______ _______ _______ _____ _____    ______ ____
ROOT
ATOM      1  C   UNK A  0      -38.961  68.867  21.822  0.00  0.00    +0.100 A 
ATOM      2  C   UNK A  0      -39.880  69.752  22.366  0.00  0.00    +0.170 A 
ATOM      3  N   UNK A  0      -39.784  70.725  23.337  0.00  0.00    -0.212 NA
ATOM      4  C   UNK A  0      -40.850  71.466  23.563  0.00  0.00    +0.126 A 
ATOM      5  C   UNK A  0      -42.160  71.245  22.854  0.00  0.00    +0.063 A 
ATOM      6  C   UNK A  0      -42.205  70.271  21.940  0.00  0.00    +0.118 A 
ATOM      7  N   UNK A  0      -41.075  69.520  21.671  0.00  0.00    -0.221 N 
ATOM      8  N   UNK A  0      -40.957  68.533  20.753  0.00  0.00    -0.173 NA
ATOM      9  C   UNK A  0      -39.680  68.173  20.827  0.00  0.00    +0.150 A 
ENDROOT
BRANCH   4  10
ATOM     10  N   UNK A  0      -40.827  72.493  24.498  0.00  0.00    -0.308 N 
ATOM     11  C   UNK A  0      -39.565  73.247  24.697  0.00  0.00    +0.108 C 
ATOM     12  C   UNK A  0      -39.243  73.038  26.183  0.00  0.00    +0.029 C 
ATOM     13  C   UNK A  0      -40.607  72.970  26.845  0.00  0.00    +0.021 C 
ATOM     14  C   UNK A  0      -41.478  72.279  25.802  0.00  0.00    +0.107 C 
BRANCH  11  15
ATOM     15  C   UNK A  0      -39.737  74.710  24.308  0.00  0.00    +0.011 A 
ATOM     16  C   UNK A  0      -38.676  75.608  24.497  0.00  0.00    +0.129 A 
ATOM     17  F   UNK A  0      -37.521  75.173  25.020  0.00  0.00    -0.205 F 
ATOM     18  C   UNK A  0      -38.781  76.961  24.155  0.00  0.00    +0.041 A 
ATOM     19  C   UNK A  0      -39.968  77.449  23.615  0.00  0.00    +0.041 A 
ATOM     20  C   UNK A  0      -41.031  76.577  23.427  0.00  0.00    +0.124 A 
ATOM     21  F   UNK A  0      -42.178  77.036  22.912  0.00  0.00    -0.205 F 
ATOM     22  C   UNK A  0      -40.928  75.228  23.767  0.00  0.00    +0.046 A 
ENDBRANCH  11  15
ENDBRANCH   4  10
BRANCH   1  25
ATOM     23  N   SER A  1      -37.159  67.358  22.245  0.00  0.00    -0.304 N 
ATOM     24  H   SER A  1      -37.883  66.643  22.202  0.00  0.00    +0.149 HD
ATOM     25  C   UNK A  0      -37.573  68.656  22.133  0.00  0.00    +0.250 C 
ATOM     26  O   UNK A  0      -36.792  69.611  22.195  0.00  0.00    -0.270 OA
BRANCH  23  27
ATOM     27  CA  SER A  1      -35.757  66.929  22.416  0.00  0.00    +0.124 C 
BRANCH  27  28
ATOM     28  C   SER A  1      -35.172  67.203  23.823  0.00  0.00    +0.180 C 
BRANCH  28  29
ATOM     29  O   SER A  1      -34.685  68.525  24.020  0.00  0.00    -0.393 OA
ATOM     30  H   SER A  1      -34.470  68.629  24.970  0.00  0.00    +0.209 HD
ENDBRANCH  28  29
ENDBRANCH  27  28
BRANCH  27  31
ATOM     31  CB  SER A  1      -35.535  65.466  21.998  0.00  0.00    +0.180 C 
BRANCH  31  32
ATOM     32  OG  SER A  1      -34.681  64.808  22.935  0.00  0.00    -0.393 OA
ATOM     33  H   SER A  1      -34.016  65.469  23.203  0.00  0.00    +0.209 HD
ENDBRANCH  31  32
ENDBRANCH  27  31
ENDBRANCH  23  27
ENDBRANCH   1  25
TORSDOF 8
ENDMDL
MODEL 8
REMARK VINA RESULT:      -5.4     14.312     17.965
REMARK  Name = pdb/CHEMBL3676042.pdb
REMARK                            x       y       z     vdW  Elec       q    Type
REMARK                         _______ _______ _______ _____ _____    ______ ____
ROOT
ATOM      1  C   UNK A  0      -37.122  76.408  26.493  0.00  0.00    +0.100 A 
ATOM      2  C   UNK A  0      -38.145  77.228  26.040  0.00  0.00    +0.170 A 
ATOM      3  N   UNK A  0      -38.440  78.558  26.243  0.00  0.00    -0.212 NA
ATOM      4  C   UNK A  0      -39.462  79.062  25.582  0.00  0.00    +0.126 A 
ATOM      5  C   UNK A  0      -40.337  78.232  24.679  0.00  0.00    +0.063 A 
ATOM      6  C   UNK A  0      -40.021  76.941  24.539  0.00  0.00    +0.118 A 
ATOM      7  N   UNK A  0      -38.923  76.420  25.200  0.00  0.00    -0.221 N 
ATOM      8  N   UNK A  0      -38.460  75.150  25.126  0.00  0.00    -0.173 NA
ATOM      9  C   UNK A  0      -37.363  75.163  25.876  0.00  0.00    +0.150 A 
ENDROOT
BRANCH   4  10
ATOM     10  N   UNK A  0      -39.804  80.404  25.699  0.00  0.00    -0.308 N 
ATOM     11  C   UNK A  0      -38.747  81.427  25.515  0.00  0.00    +0.108 C 
ATOM     12  C   UNK A  0      -38.741  82.193  26.844  0.00  0.00    +0.029 C 
ATOM     13  C   UNK A  0      -40.194  82.170  27.283  0.00  0.00    +0.021 C 
ATOM     14  C   UNK A  0      -40.693  80.814  26.798  0.00  0.00    +0.107 C 
BRANCH  11  15
ATOM     15  C   UNK A  0      -39.042  82.304  24.304  0.00  0.00    +0.011 A 
ATOM     16  C   UNK A  0      -38.228  83.416  24.036  0.00  0.00    +0.129 A 
ATOM     17  F   UNK A  0      -37.199  83.697  24.848  0.00  0.00    -0.205 F 
ATOM     18  C   UNK A  0      -38.455  84.252  22.938  0.00  0.00    +0.041 A 
ATOM     19  C   UNK A  0      -39.518  83.992  22.077  0.00  0.00    +0.041 A 
ATOM     20  C   UNK A  0      -40.338  82.901  22.329  0.00  0.00    +0.124 A 
ATOM     21  F   UNK A  0      -41.366  82.644  21.511  0.00  0.00    -0.205 F 
ATOM     22  C   UNK A  0      -40.113  82.066  23.425  0.00  0.00    +0.046 A 
ENDBRANCH  11  15
ENDBRANCH   4  10
BRANCH   1  25
ATOM     23  N   SER A  1      -34.896  77.214  26.807  0.00  0.00    -0.304 N 
ATOM     24  H   SER A  1      -34.882  77.269  25.790  0.00  0.00    +0.149 HD
ATOM     25  C   UNK A  0      -36.023  76.690  27.376  0.00  0.00    +0.250 C 
ATOM     26  O   UNK A  0      -36.147  76.549  28.598  0.00  0.00    -0.270 OA
BRANCH  23  27
ATOM     27  CA  SER A  1      -33.719  77.701  27.553  0.00  0.00    +0.124 C 
BRANCH  27  28
ATOM     28  C   SER A  1      -32.400  77.694  26.742  0.00  0.00    +0.180 C 
BRANCH  28  29
ATOM     29  O   SER A  1      -32.355  78.625  25.669  0.00  0.00    -0.393 OA
ATOM     30  H   SER A  1      -32.296  78.119  24.831  0.00  0.00    +0.209 HD
ENDBRANCH  28  29
ENDBRANCH  27  28
BRANCH  27  31
ATOM     31  CB  SER A  1      -33.963  79.072  28.205  0.00  0.00    +0.180 C 
BRANCH  31  32
ATOM     32  OG  SER A  1      -34.332  80.033  27.212  0.00  0.00    -0.393 OA
ATOM     33  H   SER A  1      -34.102  79.632  26.353  0.00  0.00    +0.209 HD
ENDBRANCH  31  32
ENDBRANCH  27  31
ENDBRANCH  23  27
ENDBRANCH   1  25
TORSDOF 8
ENDMDL
MODEL 9
REMARK VINA RESULT:      -5.4     14.121     18.055
REMARK  Name = pdb/CHEMBL3676042.pdb
REMARK                            x       y       z     vdW  Elec       q    Type
REMARK                         _______ _______ _______ _____ _____    ______ ____
ROOT
ATOM      1  C   UNK A  0      -35.321  73.626  28.176  0.00  0.00    +0.100 A 
ATOM      2  C   UNK A  0      -35.961  74.776  27.740  0.00  0.00    +0.170 A 
ATOM      3  N   UNK A  0      -37.099  74.990  26.994  0.00  0.00    -0.212 NA
ATOM      4  C   UNK A  0      -37.490  76.237  26.826  0.00  0.00    +0.126 A 
ATOM      5  C   UNK A  0      -36.714  77.413  27.359  0.00  0.00    +0.063 A 
ATOM      6  C   UNK A  0      -35.603  77.148  28.053  0.00  0.00    +0.118 A 
ATOM      7  N   UNK A  0      -35.214  75.839  28.267  0.00  0.00    -0.221 N 
ATOM      8  N   UNK A  0      -34.142  75.417  28.977  0.00  0.00    -0.173 NA
ATOM      9  C   UNK A  0      -34.235  74.092  28.946  0.00  0.00    +0.150 A 
ENDROOT
BRANCH   4  10
ATOM     10  N   UNK A  0      -38.648  76.539  26.120  0.00  0.00    -0.308 N 
ATOM     11  C   UNK A  0      -38.653  76.358  24.648  0.00  0.00    +0.108 C 
ATOM     12  C   UNK A  0      -38.979  77.756  24.107  0.00  0.00    +0.029 C 
ATOM     13  C   UNK A  0      -39.909  78.343  25.152  0.00  0.00    +0.021 C 
ATOM     14  C   UNK A  0      -39.386  77.767  26.463  0.00  0.00    +0.107 C 
BRANCH  11  15
ATOM     15  C   UNK A  0      -39.659  75.291  24.234  0.00  0.00    +0.011 A 
ATOM     16  C   UNK A  0      -39.303  73.936  24.302  0.00  0.00    +0.129 A 
ATOM     17  F   UNK A  0      -38.081  73.590  24.730  0.00  0.00    -0.205 F 
ATOM     18  C   UNK A  0      -40.190  72.918  23.935  0.00  0.00    +0.041 A 
ATOM     19  C   UNK A  0      -41.466  73.241  23.482  0.00  0.00    +0.041 A 
ATOM     20  C   UNK A  0      -41.834  74.576  23.401  0.00  0.00    +0.124 A 
ATOM     21  F   UNK A  0      -43.057  74.899  22.962  0.00  0.00    -0.205 F 
ATOM     22  C   UNK A  0      -40.951  75.593  23.766  0.00  0.00    +0.046 A 
ENDBRANCH  11  15
ENDBRANCH   4  10
BRANCH   1  25
ATOM     23  N   SER A  1      -35.458  71.765  26.685  0.00  0.00    -0.304 N 
ATOM     24  H   SER A  1      -35.214  72.450  25.972  0.00  0.00    +0.149 HD
ATOM     25  C   UNK A  0      -35.637  72.241  27.954  0.00  0.00    +0.250 C 
ATOM     26  O   UNK A  0      -35.959  71.511  28.898  0.00  0.00    -0.270 OA
BRANCH  23  27
ATOM     27  CA  SER A  1      -35.588  70.350  26.285  0.00  0.00    +0.124 C 
BRANCH  27  28
ATOM     28  C   SER A  1      -36.705  70.079  25.249  0.00  0.00    +0.180 C 
BRANCH  28  29
ATOM     29  O   SER A  1      -36.683  70.932  24.111  0.00  0.00    -0.393 OA
ATOM     30  H   SER A  1      -36.702  71.859  24.428  0.00  0.00    +0.209 HD
ENDBRANCH  28  29
ENDBRANCH  27  28
BRANCH  27  31
ATOM     31  CB  SER A  1      -34.250  69.742  25.832  0.00  0.00    +0.180 C 
BRANCH  31  32
ATOM     32  OG  SER A  1      -34.417  69.047  24.595  0.00  0.00    -0.393 OA
ATOM     33  H   SER A  1      -34.813  69.690  23.978  0.00  0.00    +0.209 HD
ENDBRANCH  31  32
ENDBRANCH  27  31
ENDBRANCH  23  27
ENDBRANCH   1  25
TORSDOF 8
ENDMDL
