MODEL 1
REMARK VINA RESULT:      -6.2      0.000      0.000
REMARK  Name = pdb/CHEMBL3930459.pdb
REMARK                            x       y       z     vdW  Elec       q    Type
REMARK                         _______ _______ _______ _____ _____    ______ ____
ROOT
ATOM      1  C   LIG    1      -21.282  77.132  30.580  0.00  0.00    +0.027 A 
ATOM      2  C   LIG    1      -21.167  77.966  31.697  0.00  0.00    +0.060 A 
ATOM      3  C   LIG    1      -19.927  78.140  32.277  0.00  0.00    +0.157 A 
ATOM      4  N   LIG    1      -18.816  77.507  31.840  0.00  0.00    -0.236 NA
ATOM      5  C   LIG    1      -18.947  76.710  30.752  0.00  0.00    +0.114 A 
ATOM      6  C   LIG    1      -20.145  76.490  30.093  0.00  0.00    +0.031 A 
ENDROOT
BRANCH   1   7
ATOM      7  C   LIG    1      -22.604  76.879  29.931  0.00  0.00    +0.195 C 
ATOM      8  O   LIG    1      -22.852  77.440  28.871  0.00  0.00    -0.287 OA
BRANCH   7  16
ATOM      9  N   LIG    1      -24.427  74.107  31.474  0.00  0.00    -0.343 N 
ATOM     10  C   LIG    1      -25.395  75.080  31.604  0.00  0.00    +0.053 A 
ATOM     11  C   LIG    1      -26.686  75.032  32.141  0.00  0.00    +0.046 A 
ATOM     12  C   LIG    1      -27.389  76.226  32.123  0.00  0.00    +0.113 A 
ATOM     13  N   LIG    1      -26.915  77.389  31.636  0.00  0.00    -0.263 NA
ATOM     14  C   LIG    1      -25.660  77.424  31.117  0.00  0.00    +0.121 A 
ATOM     15  C   LIG    1      -24.865  76.267  31.079  0.00  0.00    +0.029 A 
ATOM     16  C   LIG    1      -23.554  75.968  30.575  0.00  0.00    +0.049 A 
ATOM     17  C   LIG    1      -23.332  74.629  30.836  0.00  0.00    +0.099 A 
BRANCH   9  19
ATOM     18  C   LIG    1      -25.079  71.780  30.911  0.00  0.00    +0.030 C 
ATOM     19  C   LIG    1      -24.513  72.732  31.967  0.00  0.00    +0.081 C 
ATOM     20  C   LIG    1      -23.158  72.247  32.488  0.00  0.00    +0.030 C 
ENDBRANCH   9  19
ENDBRANCH   7  16
ENDBRANCH   1   7
BRANCH   3  21
ATOM     21  N   LIG    1      -19.799  79.033  33.345  0.00  0.00    -0.197 NA
ATOM     22  C   LIG    1      -19.673  78.623  34.565  0.00  0.00    +0.193 C 
BRANCH  22  23
ATOM     23  O   LIG    1      -19.668  77.330  34.939  0.00  0.00    -0.495 OA
ATOM     24  H   LIG    1      -19.481  76.775  34.156  0.00  0.00    +0.293 HD
ENDBRANCH  22  23
BRANCH  22  25
ATOM     25  C   LIG    1      -19.568  79.575  35.729  0.00  0.00    +0.130 C 
BRANCH  25  26
ATOM     26  C   LIG    1      -20.814  80.392  35.992  0.00  0.00    -0.037 A 
ATOM     27  C   LIG    1      -22.087  79.850  35.748  0.00  0.00    +0.025 A 
ATOM     28  C   LIG    1      -23.241  80.625  35.931  0.00  0.00    +0.060 A 
ATOM     29 CL   LIG    1      -24.765  79.892  35.564  0.00  0.00    -0.082 Cl
ATOM     30  C   LIG    1      -23.136  81.941  36.388  0.00  0.00    +0.059 A 
ATOM     31 CL   LIG    1      -24.513  82.954  36.632  0.00  0.00    -0.082 Cl
ATOM     32  C   LIG    1      -21.874  82.480  36.651  0.00  0.00    +0.022 A 
ATOM     33  C   LIG    1      -20.721  81.709  36.459  0.00  0.00    +0.005 A 
ENDBRANCH  25  26
ENDBRANCH  22  25
ENDBRANCH   3  21
TORSDOF 7
ENDMDL
MODEL 2
REMARK VINA RESULT:      -6.2      4.347      9.207
REMARK  Name = pdb/CHEMBL3930459.pdb
REMARK                            x       y       z     vdW  Elec       q    Type
REMARK                         _______ _______ _______ _____ _____    ______ ____
ROOT
ATOM      1  C   LIG    1      -26.154  76.246  31.550  0.00  0.00    +0.027 A 
ATOM      2  C   LIG    1      -25.577  74.975  31.640  0.00  0.00    +0.060 A 
ATOM      3  C   LIG    1      -26.348  73.920  32.085  0.00  0.00    +0.157 A 
ATOM      4  N   LIG    1      -27.632  74.065  32.481  0.00  0.00    -0.236 NA
ATOM      5  C   LIG    1      -28.174  75.302  32.379  0.00  0.00    +0.114 A 
ATOM      6  C   LIG    1      -27.485  76.415  31.925  0.00  0.00    +0.031 A 
ENDROOT
BRANCH   1   7
ATOM      7  C   LIG    1      -25.359  77.431  31.106  0.00  0.00    +0.195 C 
ATOM      8  O   LIG    1      -25.906  78.274  30.406  0.00  0.00    -0.287 OA
BRANCH   7  16
ATOM      9  N   LIG    1      -22.159  77.931  32.807  0.00  0.00    -0.343 N 
ATOM     10  C   LIG    1      -21.673  77.517  31.586  0.00  0.00    +0.053 A 
ATOM     11  C   LIG    1      -20.364  77.352  31.121  0.00  0.00    +0.046 A 
ATOM     12  C   LIG    1      -20.242  76.896  29.819  0.00  0.00    +0.113 A 
ATOM     13  N   LIG    1      -21.277  76.610  29.004  0.00  0.00    -0.263 NA
ATOM     14  C   LIG    1      -22.544  76.774  29.467  0.00  0.00    +0.121 A 
ATOM     15  C   LIG    1      -22.779  77.240  30.770  0.00  0.00    +0.029 A 
ATOM     16  C   LIG    1      -23.960  77.552  31.526  0.00  0.00    +0.049 A 
ATOM     17  C   LIG    1      -23.528  77.977  32.768  0.00  0.00    +0.099 A 
BRANCH   9  19
ATOM     18  C   LIG    1      -21.785  79.564  34.638  0.00  0.00    +0.030 C 
ATOM     19  C   LIG    1      -21.361  78.243  33.994  0.00  0.00    +0.081 C 
ATOM     20  C   LIG    1      -21.398  77.093  35.003  0.00  0.00    +0.030 C 
ENDBRANCH   9  19
ENDBRANCH   7  16
ENDBRANCH   1   7
BRANCH   3  21
ATOM     21  N   LIG    1      -25.794  72.637  32.103  0.00  0.00    -0.197 NA
ATOM     22  C   LIG    1      -26.367  71.639  31.515  0.00  0.00    +0.193 C 
BRANCH  22  23
ATOM     23  O   LIG    1      -27.537  71.712  30.853  0.00  0.00    -0.495 OA
ATOM     24  H   LIG    1      -28.149  72.285  31.355  0.00  0.00    +0.293 HD
ENDBRANCH  22  23
BRANCH  22  25
ATOM     25  C   LIG    1      -25.797  70.243  31.555  0.00  0.00    +0.130 C 
BRANCH  25  26
ATOM     26  C   LIG    1      -24.637  70.009  30.613  0.00  0.00    -0.037 A 
ATOM     27  C   LIG    1      -24.694  70.460  29.284  0.00  0.00    +0.025 A 
ATOM     28  C   LIG    1      -23.647  70.190  28.391  0.00  0.00    +0.060 A 
ATOM     29 CL   LIG    1      -23.820  70.745  26.761  0.00  0.00    -0.082 Cl
ATOM     30  C   LIG    1      -22.519  69.491  28.826  0.00  0.00    +0.059 A 
ATOM     31 CL   LIG    1      -21.194  69.119  27.782  0.00  0.00    -0.082 Cl
ATOM     32  C   LIG    1      -22.447  69.055  30.151  0.00  0.00    +0.022 A 
ATOM     33  C   LIG    1      -23.496  69.316  31.041  0.00  0.00    +0.005 A 
ENDBRANCH  25  26
ENDBRANCH  22  25
ENDBRANCH   3  21
TORSDOF 7
ENDMDL
MODEL 3
REMARK VINA RESULT:      -6.0     18.084     20.162
REMARK  Name = pdb/CHEMBL3930459.pdb
REMARK                            x       y       z     vdW  Elec       q    Type
REMARK                         _______ _______ _______ _____ _____    ______ ____
ROOT
ATOM      1  C   LIG    1      -21.799  82.336  15.357  0.00  0.00    +0.027 A 
ATOM      2  C   LIG    1      -21.967  83.554  14.690  0.00  0.00    +0.060 A 
ATOM      3  C   LIG    1      -22.513  84.621  15.374  0.00  0.00    +0.157 A 
ATOM      4  N   LIG    1      -22.935  84.534  16.654  0.00  0.00    -0.236 NA
ATOM      5  C   LIG    1      -22.758  83.349  17.285  0.00  0.00    +0.114 A 
ATOM      6  C   LIG    1      -22.201  82.230  16.688  0.00  0.00    +0.031 A 
ENDROOT
BRANCH   1   7
ATOM      7  C   LIG    1      -21.244  81.136  14.659  0.00  0.00    +0.195 C 
ATOM      8  O   LIG    1      -20.168  81.239  14.086  0.00  0.00    -0.287 OA
BRANCH   7  16
ATOM      9  N   LIG    1      -23.698  78.425  14.527  0.00  0.00    -0.343 N 
ATOM     10  C   LIG    1      -22.593  77.677  14.872  0.00  0.00    +0.053 A 
ATOM     11  C   LIG    1      -22.444  76.308  15.117  0.00  0.00    +0.046 A 
ATOM     12  C   LIG    1      -21.161  75.890  15.430  0.00  0.00    +0.113 A 
ATOM     13  N   LIG    1      -20.086  76.699  15.508  0.00  0.00    -0.263 NA
ATOM     14  C   LIG    1      -20.242  78.027  15.267  0.00  0.00    +0.121 A 
ATOM     15  C   LIG    1      -21.503  78.557  14.950  0.00  0.00    +0.029 A 
ATOM     16  C   LIG    1      -21.998  79.880  14.689  0.00  0.00    +0.049 A 
ATOM     17  C   LIG    1      -23.351  79.748  14.440  0.00  0.00    +0.099 A 
BRANCH   9  19
ATOM     18  C   LIG    1      -26.119  78.695  14.993  0.00  0.00    +0.030 C 
ATOM     19  C   LIG    1      -25.039  77.908  14.250  0.00  0.00    +0.081 C 
ATOM     20  C   LIG    1      -25.314  77.863  12.745  0.00  0.00    +0.030 C 
ENDBRANCH   9  19
ENDBRANCH   7  16
ENDBRANCH   1   7
BRANCH   3  21
ATOM     21  N   LIG    1      -22.610  85.858  14.731  0.00  0.00    -0.197 NA
ATOM     22  C   LIG    1      -22.180  86.947  15.278  0.00  0.00    +0.193 C 
BRANCH  22  23
ATOM     23  O   LIG    1      -21.620  87.018  16.501  0.00  0.00    -0.495 OA
ATOM     24  H   LIG    1      -20.749  87.455  16.425  0.00  0.00    +0.293 HD
ENDBRANCH  22  23
BRANCH  22  25
ATOM     25  C   LIG    1      -22.308  88.293  14.610  0.00  0.00    +0.130 C 
BRANCH  25  26
ATOM     26  C   LIG    1      -21.509  88.442  13.334  0.00  0.00    -0.037 A 
ATOM     27  C   LIG    1      -20.152  88.080  13.294  0.00  0.00    +0.025 A 
ATOM     28  C   LIG    1      -19.393  88.274  12.132  0.00  0.00    +0.060 A 
ATOM     29 CL   LIG    1      -17.718  87.841  12.186  0.00  0.00    -0.082 Cl
ATOM     30  C   LIG    1      -19.990  88.807  10.987  0.00  0.00    +0.059 A 
ATOM     31 CL   LIG    1      -19.116  89.079   9.522  0.00  0.00    -0.082 Cl
ATOM     32  C   LIG    1      -21.343  89.153  11.013  0.00  0.00    +0.022 A 
ATOM     33  C   LIG    1      -22.100  88.967  12.177  0.00  0.00    +0.005 A 
ENDBRANCH  25  26
ENDBRANCH  22  25
ENDBRANCH   3  21
TORSDOF 7
ENDMDL
MODEL 4
REMARK VINA RESULT:      -6.0     16.499     19.728
REMARK  Name = pdb/CHEMBL3930459.pdb
REMARK                            x       y       z     vdW  Elec       q    Type
REMARK                         _______ _______ _______ _____ _____    ______ ____
ROOT
ATOM      1  C   LIG    1      -23.493  80.774  15.288  0.00  0.00    +0.027 A 
ATOM      2  C   LIG    1      -23.473  79.414  15.614  0.00  0.00    +0.060 A 
ATOM      3  C   LIG    1      -24.309  78.552  14.933  0.00  0.00    +0.157 A 
ATOM      4  N   LIG    1      -25.181  78.967  13.989  0.00  0.00    -0.236 NA
ATOM      5  C   LIG    1      -25.180  80.287  13.683  0.00  0.00    +0.114 A 
ATOM      6  C   LIG    1      -24.364  81.223  14.297  0.00  0.00    +0.031 A 
ENDROOT
BRANCH   1   7
ATOM      7  C   LIG    1      -22.635  81.760  16.014  0.00  0.00    +0.195 C 
ATOM      8  O   LIG    1      -22.475  81.622  17.219  0.00  0.00    -0.287 OA
BRANCH   7  16
ATOM      9  N   LIG    1      -21.660  84.878  14.366  0.00  0.00    -0.343 N 
ATOM     10  C   LIG    1      -20.571  84.114  14.006  0.00  0.00    +0.053 A 
ATOM     11  C   LIG    1      -19.444  84.416  13.234  0.00  0.00    +0.046 A 
ATOM     12  C   LIG    1      -18.524  83.392  13.087  0.00  0.00    +0.113 A 
ATOM     13  N   LIG    1      -18.647  82.164  13.628  0.00  0.00    -0.263 NA
ATOM     14  C   LIG    1      -19.746  81.881  14.376  0.00  0.00    +0.121 A 
ATOM     15  C   LIG    1      -20.745  82.846  14.580  0.00  0.00    +0.029 A 
ATOM     16  C   LIG    1      -22.009  82.852  15.262  0.00  0.00    +0.049 A 
ATOM     17  C   LIG    1      -22.535  84.119  15.098  0.00  0.00    +0.099 A 
BRANCH   9  19
ATOM     18  C   LIG    1      -23.063  86.521  13.146  0.00  0.00    +0.030 C 
ATOM     19  C   LIG    1      -21.859  86.296  14.061  0.00  0.00    +0.081 C 
ATOM     20  C   LIG    1      -21.966  87.126  15.342  0.00  0.00    +0.030 C 
ENDBRANCH   9  19
ENDBRANCH   7  16
ENDBRANCH   1   7
BRANCH   3  21
ATOM     21  N   LIG    1      -24.234  77.183  15.205  0.00  0.00    -0.197 NA
ATOM     22  C   LIG    1      -23.748  76.343  14.351  0.00  0.00    +0.193 C 
BRANCH  22  23
ATOM     23  O   LIG    1      -23.285  76.677  13.131  0.00  0.00    -0.495 OA
ATOM     24  H   LIG    1      -23.187  77.649  13.085  0.00  0.00    +0.293 HD
ENDBRANCH  22  23
BRANCH  22  25
ATOM     25  C   LIG    1      -23.692  74.860  14.618  0.00  0.00    +0.130 C 
BRANCH  25  26
ATOM     26  C   LIG    1      -22.637  74.438  15.618  0.00  0.00    -0.037 A 
ATOM     27  C   LIG    1      -22.999  73.755  16.791  0.00  0.00    +0.025 A 
ATOM     28  C   LIG    1      -22.033  73.417  17.749  0.00  0.00    +0.060 A 
ATOM     29 CL   LIG    1      -22.573  72.615  19.184  0.00  0.00    -0.082 Cl
ATOM     30  C   LIG    1      -20.690  73.734  17.530  0.00  0.00    +0.059 A 
ATOM     31 CL   LIG    1      -19.447  73.353  18.668  0.00  0.00    -0.082 Cl
ATOM     32  C   LIG    1      -20.320  74.397  16.358  0.00  0.00    +0.022 A 
ATOM     33  C   LIG    1      -21.286  74.742  15.405  0.00  0.00    +0.005 A 
ENDBRANCH  25  26
ENDBRANCH  22  25
ENDBRANCH   3  21
TORSDOF 7
ENDMDL
MODEL 5
REMARK VINA RESULT:      -6.0      5.242      8.597
REMARK  Name = pdb/CHEMBL3930459.pdb
REMARK                            x       y       z     vdW  Elec       q    Type
REMARK                         _______ _______ _______ _____ _____    ______ ____
ROOT
ATOM      1  C   LIG    1      -29.944  75.740  32.045  0.00  0.00    +0.027 A 
ATOM      2  C   LIG    1      -28.986  76.711  31.740  0.00  0.00    +0.060 A 
ATOM      3  C   LIG    1      -27.652  76.424  31.952  0.00  0.00    +0.157 A 
ATOM      4  N   LIG    1      -27.228  75.256  32.483  0.00  0.00    -0.236 NA
ATOM      5  C   LIG    1      -28.171  74.326  32.765  0.00  0.00    +0.114 A 
ATOM      6  C   LIG    1      -29.529  74.516  32.568  0.00  0.00    +0.031 A 
ENDROOT
BRANCH   1   7
ATOM      7  C   LIG    1      -31.405  76.005  31.868  0.00  0.00    +0.195 C 
ATOM      8  O   LIG    1      -32.012  76.562  32.773  0.00  0.00    -0.287 OA
BRANCH   7  16
ATOM      9  N   LIG    1      -32.956  75.703  28.568  0.00  0.00    -0.343 N 
ATOM     10  C   LIG    1      -33.046  74.383  28.952  0.00  0.00    +0.053 A 
ATOM     11  C   LIG    1      -33.579  73.265  28.301  0.00  0.00    +0.046 A 
ATOM     12  C   LIG    1      -33.483  72.067  28.988  0.00  0.00    +0.113 A 
ATOM     13  N   LIG    1      -32.924  71.921  30.205  0.00  0.00    -0.263 NA
ATOM     14  C   LIG    1      -32.409  73.013  30.829  0.00  0.00    +0.121 A 
ATOM     15  C   LIG    1      -32.462  74.278  30.223  0.00  0.00    +0.029 A 
ATOM     16  C   LIG    1      -32.059  75.598  30.622  0.00  0.00    +0.049 A 
ATOM     17  C   LIG    1      -32.387  76.439  29.575  0.00  0.00    +0.099 A 
BRANCH   9  19
ATOM     18  C   LIG    1      -34.843  76.630  27.251  0.00  0.00    +0.030 C 
ATOM     19  C   LIG    1      -33.360  76.256  27.275  0.00  0.00    +0.081 C 
ATOM     20  C   LIG    1      -32.477  77.443  26.882  0.00  0.00    +0.030 C 
ENDBRANCH   9  19
ENDBRANCH   7  16
ENDBRANCH   1   7
BRANCH   3  21
ATOM     21  N   LIG    1      -26.690  77.365  31.576  0.00  0.00    -0.197 NA
ATOM     22  C   LIG    1      -25.578  77.017  31.016  0.00  0.00    +0.193 C 
BRANCH  22  23
ATOM     23  O   LIG    1      -25.221  75.746  30.752  0.00  0.00    -0.495 OA
ATOM     24  H   LIG    1      -24.489  75.751  30.103  0.00  0.00    +0.293 HD
ENDBRANCH  22  23
BRANCH  22  25
ATOM     25  C   LIG    1      -24.517  78.019  30.635  0.00  0.00    +0.130 C 
BRANCH  25  26
ATOM     26  C   LIG    1      -23.104  77.480  30.655  0.00  0.00    -0.037 A 
ATOM     27  C   LIG    1      -22.373  77.437  31.854  0.00  0.00    +0.025 A 
ATOM     28  C   LIG    1      -21.042  76.996  31.865  0.00  0.00    +0.060 A 
ATOM     29 CL   LIG    1      -20.203  77.018  33.379  0.00  0.00    -0.082 Cl
ATOM     30  C   LIG    1      -20.437  76.567  30.682  0.00  0.00    +0.059 A 
ATOM     31 CL   LIG    1      -18.801  76.015  30.620  0.00  0.00    -0.082 Cl
ATOM     32  C   LIG    1      -21.163  76.589  29.489  0.00  0.00    +0.022 A 
ATOM     33  C   LIG    1      -22.489  77.038  29.476  0.00  0.00    +0.005 A 
ENDBRANCH  25  26
ENDBRANCH  22  25
ENDBRANCH   3  21
TORSDOF 7
ENDMDL
MODEL 6
REMARK VINA RESULT:      -5.9     18.106     20.047
REMARK  Name = pdb/CHEMBL3930459.pdb
REMARK                            x       y       z     vdW  Elec       q    Type
REMARK                         _______ _______ _______ _____ _____    ______ ____
ROOT
ATOM      1  C   LIG    1      -21.779  82.342  15.379  0.00  0.00    +0.027 A 
ATOM      2  C   LIG    1      -21.956  83.559  14.713  0.00  0.00    +0.060 A 
ATOM      3  C   LIG    1      -22.506  84.622  15.400  0.00  0.00    +0.157 A 
ATOM      4  N   LIG    1      -22.923  84.532  16.682  0.00  0.00    -0.236 NA
ATOM      5  C   LIG    1      -22.735  83.347  17.311  0.00  0.00    +0.114 A 
ATOM      6  C   LIG    1      -22.175  82.232  16.711  0.00  0.00    +0.031 A 
ENDROOT
BRANCH   1   7
ATOM      7  C   LIG    1      -21.219  81.146  14.678  0.00  0.00    +0.195 C 
ATOM      8  O   LIG    1      -20.143  81.254  14.104  0.00  0.00    -0.287 OA
BRANCH   7  16
ATOM      9  N   LIG    1      -22.421  77.694  14.855  0.00  0.00    -0.343 N 
ATOM     10  C   LIG    1      -23.637  78.321  14.693  0.00  0.00    +0.053 A 
ATOM     11  C   LIG    1      -24.936  77.808  14.603  0.00  0.00    +0.046 A 
ATOM     12  C   LIG    1      -25.944  78.747  14.456  0.00  0.00    +0.113 A 
ATOM     13  N   LIG    1      -25.751  80.079  14.398  0.00  0.00    -0.263 NA
ATOM     14  C   LIG    1      -24.485  80.566  14.486  0.00  0.00    +0.121 A 
ATOM     15  C   LIG    1      -23.390  79.700  14.628  0.00  0.00    +0.029 A 
ATOM     16  C   LIG    1      -21.968  79.886  14.706  0.00  0.00    +0.049 A 
ATOM     17  C   LIG    1      -21.416  78.626  14.839  0.00  0.00    +0.099 A 
BRANCH   9  19
ATOM     18  C   LIG    1      -22.578  75.448  13.814  0.00  0.00    +0.030 C 
ATOM     19  C   LIG    1      -22.207  76.260  15.056  0.00  0.00    +0.081 C 
ATOM     20  C   LIG    1      -20.773  75.973  15.505  0.00  0.00    +0.030 C 
ENDBRANCH   9  19
ENDBRANCH   7  16
ENDBRANCH   1   7
BRANCH   3  21
ATOM     21  N   LIG    1      -22.613  85.859  14.758  0.00  0.00    -0.197 NA
ATOM     22  C   LIG    1      -22.198  86.952  15.310  0.00  0.00    +0.193 C 
BRANCH  22  23
ATOM     23  O   LIG    1      -21.646  87.027  16.536  0.00  0.00    -0.495 OA
ATOM     24  H   LIG    1      -22.301  87.408  17.154  0.00  0.00    +0.293 HD
ENDBRANCH  22  23
BRANCH  22  25
ATOM     25  C   LIG    1      -22.337  88.297  14.642  0.00  0.00    +0.130 C 
BRANCH  25  26
ATOM     26  C   LIG    1      -21.581  88.436  13.339  0.00  0.00    -0.037 A 
ATOM     27  C   LIG    1      -20.211  88.131  13.272  0.00  0.00    +0.025 A 
ATOM     28  C   LIG    1      -19.494  88.318  12.082  0.00  0.00    +0.060 A 
ATOM     29 CL   LIG    1      -17.801  87.958  12.102  0.00  0.00    -0.082 Cl
ATOM     30  C   LIG    1      -20.145  88.785  10.938  0.00  0.00    +0.059 A 
ATOM     31 CL   LIG    1      -19.324  89.043   9.440  0.00  0.00    -0.082 Cl
ATOM     32  C   LIG    1      -21.511  89.074  10.992  0.00  0.00    +0.022 A 
ATOM     33  C   LIG    1      -22.226  88.895  12.183  0.00  0.00    +0.005 A 
ENDBRANCH  25  26
ENDBRANCH  22  25
ENDBRANCH   3  21
TORSDOF 7
ENDMDL
MODEL 7
REMARK VINA RESULT:      -5.8     20.737     23.273
REMARK  Name = pdb/CHEMBL3930459.pdb
REMARK                            x       y       z     vdW  Elec       q    Type
REMARK                         _______ _______ _______ _____ _____    ______ ____
ROOT
ATOM      1  C   LIG    1      -23.039  87.616  12.677  0.00  0.00    +0.027 A 
ATOM      2  C   LIG    1      -22.672  86.278  12.850  0.00  0.00    +0.060 A 
ATOM      3  C   LIG    1      -22.065  85.898  14.030  0.00  0.00    +0.157 A 
ATOM      4  N   LIG    1      -21.770  86.771  15.018  0.00  0.00    -0.236 NA
ATOM      5  C   LIG    1      -22.140  88.061  14.835  0.00  0.00    +0.114 A 
ATOM      6  C   LIG    1      -22.770  88.531  13.694  0.00  0.00    +0.031 A 
ENDROOT
BRANCH   1   7
ATOM      7  C   LIG    1      -23.667  88.093  11.408  0.00  0.00    +0.195 C 
ATOM      8  O   LIG    1      -23.840  87.289  10.502  0.00  0.00    -0.287 OA
BRANCH   7  16
ATOM      9  N   LIG    1      -25.294  91.371  11.411  0.00  0.00    -0.343 N 
ATOM     10  C   LIG    1      -24.073  91.755  10.901  0.00  0.00    +0.053 A 
ATOM     11  C   LIG    1      -23.594  93.004  10.490  0.00  0.00    +0.046 A 
ATOM     12  C   LIG    1      -22.286  93.027  10.036  0.00  0.00    +0.113 A 
ATOM     13  N   LIG    1      -21.476  91.952   9.971  0.00  0.00    -0.263 NA
ATOM     14  C   LIG    1      -21.951  90.744  10.374  0.00  0.00    +0.121 A 
ATOM     15  C   LIG    1      -23.267  90.608  10.843  0.00  0.00    +0.029 A 
ATOM     16  C   LIG    1      -24.063  89.499  11.290  0.00  0.00    +0.049 A 
ATOM     17  C   LIG    1      -25.300  90.017  11.623  0.00  0.00    +0.099 A 
BRANCH   9  19
ATOM     18  C   LIG    1      -27.747  91.694  11.225  0.00  0.00    +0.030 C 
ATOM     19  C   LIG    1      -26.416  92.257  11.726  0.00  0.00    +0.081 C 
ATOM     20  C   LIG    1      -26.469  92.570  13.223  0.00  0.00    +0.030 C 
ENDBRANCH   9  19
ENDBRANCH   7  16
ENDBRANCH   1   7
BRANCH   3  21
ATOM     21  N   LIG    1      -21.768  84.548  14.234  0.00  0.00    -0.197 NA
ATOM     22  C   LIG    1      -22.178  83.909  15.280  0.00  0.00    +0.193 C 
BRANCH  22  23
ATOM     23  O   LIG    1      -22.903  84.457  16.273  0.00  0.00    -0.495 OA
ATOM     24  H   LIG    1      -23.648  84.955  15.883  0.00  0.00    +0.293 HD
ENDBRANCH  22  23
BRANCH  22  25
ATOM     25  C   LIG    1      -21.837  82.461  15.528  0.00  0.00    +0.130 C 
BRANCH  25  26
ATOM     26  C   LIG    1      -22.939  81.485  15.181  0.00  0.00    -0.037 A 
ATOM     27  C   LIG    1      -23.725  81.674  14.033  0.00  0.00    +0.025 A 
ATOM     28  C   LIG    1      -24.787  80.806  13.741  0.00  0.00    +0.060 A 
ATOM     29 CL   LIG    1      -25.731  81.139  12.329  0.00  0.00    -0.082 Cl
ATOM     30  C   LIG    1      -25.057  79.723  14.581  0.00  0.00    +0.059 A 
ATOM     31 CL   LIG    1      -26.350  78.617  14.288  0.00  0.00    -0.082 Cl
ATOM     32  C   LIG    1      -24.268  79.518  15.716  0.00  0.00    +0.022 A 
ATOM     33  C   LIG    1      -23.213  80.390  16.011  0.00  0.00    +0.005 A 
ENDBRANCH  25  26
ENDBRANCH  22  25
ENDBRANCH   3  21
TORSDOF 7
ENDMDL
MODEL 8
REMARK VINA RESULT:      -5.7     13.875     17.936
REMARK  Name = pdb/CHEMBL3930459.pdb
REMARK                            x       y       z     vdW  Elec       q    Type
REMARK                         _______ _______ _______ _____ _____    ______ ____
ROOT
ATOM      1  C   LIG    1      -38.958  70.925  24.156  0.00  0.00    +0.027 A 
ATOM      2  C   LIG    1      -38.247  71.002  25.357  0.00  0.00    +0.060 A 
ATOM      3  C   LIG    1      -37.045  70.332  25.467  0.00  0.00    +0.157 A 
ATOM      4  N   LIG    1      -36.538  69.567  24.476  0.00  0.00    -0.236 NA
ATOM      5  C   LIG    1      -37.238  69.511  23.318  0.00  0.00    +0.114 A 
ATOM      6  C   LIG    1      -38.441  70.164  23.108  0.00  0.00    +0.031 A 
ENDROOT
BRANCH   1   7
ATOM      7  C   LIG    1      -40.281  71.601  23.990  0.00  0.00    +0.195 C 
ATOM      8  O   LIG    1      -41.281  70.907  23.860  0.00  0.00    -0.287 OA
BRANCH   7  16
ATOM      9  N   LIG    1      -39.759  75.208  24.313  0.00  0.00    -0.343 N 
ATOM     10  C   LIG    1      -40.991  75.239  23.697  0.00  0.00    +0.053 A 
ATOM     11  C   LIG    1      -41.810  76.310  23.322  0.00  0.00    +0.046 A 
ATOM     12  C   LIG    1      -42.998  75.969  22.697  0.00  0.00    +0.113 A 
ATOM     13  N   LIG    1      -43.395  74.708  22.439  0.00  0.00    -0.263 NA
ATOM     14  C   LIG    1      -42.592  73.675  22.807  0.00  0.00    +0.121 A 
ATOM     15  C   LIG    1      -41.369  73.910  23.455  0.00  0.00    +0.029 A 
ATOM     16  C   LIG    1      -40.341  73.065  23.995  0.00  0.00    +0.049 A 
ATOM     17  C   LIG    1      -39.377  73.907  24.515  0.00  0.00    +0.099 A 
BRANCH   9  19
ATOM     18  C   LIG    1      -39.363  76.971  26.013  0.00  0.00    +0.030 C 
ATOM     19  C   LIG    1      -38.942  76.368  24.672  0.00  0.00    +0.081 C 
ATOM     20  C   LIG    1      -37.452  76.020  24.658  0.00  0.00    +0.030 C 
ENDBRANCH   9  19
ENDBRANCH   7  16
ENDBRANCH   1   7
BRANCH   3  21
ATOM     21  N   LIG    1      -36.298  70.471  26.640  0.00  0.00    -0.197 NA
ATOM     22  C   LIG    1      -35.074  70.887  26.625  0.00  0.00    +0.193 C 
BRANCH  22  23
ATOM     23  O   LIG    1      -34.391  71.209  25.509  0.00  0.00    -0.495 OA
ATOM     24  H   LIG    1      -34.255  72.177  25.491  0.00  0.00    +0.293 HD
ENDBRANCH  22  23
BRANCH  22  25
ATOM     25  C   LIG    1      -34.247  71.010  27.879  0.00  0.00    +0.130 C 
BRANCH  25  26
ATOM     26  C   LIG    1      -33.937  72.431  28.294  0.00  0.00    -0.037 A 
ATOM     27  C   LIG    1      -34.813  73.478  27.963  0.00  0.00    +0.025 A 
ATOM     28  C   LIG    1      -34.499  74.805  28.292  0.00  0.00    +0.060 A 
ATOM     29 CL   LIG    1      -35.614  76.036  27.808  0.00  0.00    -0.082 Cl
ATOM     30  C   LIG    1      -33.318  75.095  28.980  0.00  0.00    +0.059 A 
ATOM     31 CL   LIG    1      -32.865  76.704  29.413  0.00  0.00    -0.082 Cl
ATOM     32  C   LIG    1      -32.451  74.056  29.328  0.00  0.00    +0.022 A 
ATOM     33  C   LIG    1      -32.760  72.733  28.992  0.00  0.00    +0.005 A 
ENDBRANCH  25  26
ENDBRANCH  22  25
ENDBRANCH   3  21
TORSDOF 7
ENDMDL
MODEL 9
REMARK VINA RESULT:      -5.7     12.477     16.903
REMARK  Name = pdb/CHEMBL3930459.pdb
REMARK                            x       y       z     vdW  Elec       q    Type
REMARK                         _______ _______ _______ _____ _____    ______ ____
ROOT
ATOM      1  C   LIG    1      -35.036  74.839  28.619  0.00  0.00    +0.027 A 
ATOM      2  C   LIG    1      -36.303  75.119  28.098  0.00  0.00    +0.060 A 
ATOM      3  C   LIG    1      -36.437  76.141  27.180  0.00  0.00    +0.157 A 
ATOM      4  N   LIG    1      -35.402  76.917  26.788  0.00  0.00    -0.236 NA
ATOM      5  C   LIG    1      -34.182  76.624  27.298  0.00  0.00    +0.114 A 
ATOM      6  C   LIG    1      -33.948  75.607  28.209  0.00  0.00    +0.031 A 
ENDROOT
BRANCH   1   7
ATOM      7  C   LIG    1      -34.835  73.767  29.641  0.00  0.00    +0.195 C 
ATOM      8  O   LIG    1      -35.252  73.955  30.777  0.00  0.00    -0.287 OA
BRANCH   7  16
ATOM      9  N   LIG    1      -32.599  70.917  29.122  0.00  0.00    -0.343 N 
ATOM     10  C   LIG    1      -33.647  70.495  28.333  0.00  0.00    +0.053 A 
ATOM     11  C   LIG    1      -33.812  69.345  27.554  0.00  0.00    +0.046 A 
ATOM     12  C   LIG    1      -35.023  69.236  26.892  0.00  0.00    +0.113 A 
ATOM     13  N   LIG    1      -36.018  70.142  26.954  0.00  0.00    -0.263 NA
ATOM     14  C   LIG    1      -35.847  71.256  27.715  0.00  0.00    +0.121 A 
ATOM     15  C   LIG    1      -34.653  71.469  28.420  0.00  0.00    +0.029 A 
ATOM     16  C   LIG    1      -34.155  72.528  29.254  0.00  0.00    +0.049 A 
ATOM     17  C   LIG    1      -32.890  72.146  29.656  0.00  0.00    +0.099 A 
BRANCH   9  19
ATOM     18  C   LIG    1      -30.187  71.102  29.674  0.00  0.00    +0.030 C 
ATOM     19  C   LIG    1      -31.370  70.172  29.398  0.00  0.00    +0.081 C 
ATOM     20  C   LIG    1      -31.574  69.173  30.538  0.00  0.00    +0.030 C 
ENDBRANCH   9  19
ENDBRANCH   7  16
ENDBRANCH   1   7
BRANCH   3  21
ATOM     21  N   LIG    1      -37.689  76.372  26.602  0.00  0.00    -0.197 NA
ATOM     22  C   LIG    1      -37.846  76.442  25.321  0.00  0.00    +0.193 C 
BRANCH  22  23
ATOM     23  O   LIG    1      -36.851  76.321  24.422  0.00  0.00    -0.495 OA
ATOM     24  H   LIG    1      -36.091  75.879  24.849  0.00  0.00    +0.293 HD
ENDBRANCH  22  23
BRANCH  22  25
ATOM     25  C   LIG    1      -39.185  76.722  24.686  0.00  0.00    +0.130 C 
BRANCH  25  26
ATOM     26  C   LIG    1      -39.955  75.490  24.266  0.00  0.00    -0.037 A 
ATOM     27  C   LIG    1      -39.391  74.211  24.411  0.00  0.00    +0.025 A 
ATOM     28  C   LIG    1      -40.075  73.072  23.966  0.00  0.00    +0.060 A 
ATOM     29 CL   LIG    1      -39.287  71.542  24.145  0.00  0.00    -0.082 Cl
ATOM     30  C   LIG    1      -41.344  73.197  23.396  0.00  0.00    +0.059 A 
ATOM     31 CL   LIG    1      -42.244  71.838  22.821  0.00  0.00    -0.082 Cl
ATOM     32  C   LIG    1      -41.919  74.463  23.264  0.00  0.00    +0.022 A 
ATOM     33  C   LIG    1      -41.232  75.602  23.701  0.00  0.00    +0.005 A 
ENDBRANCH  25  26
ENDBRANCH  22  25
ENDBRANCH   3  21
TORSDOF 7
ENDMDL
