MODEL 1
REMARK VINA RESULT:      -6.2      0.000      0.000
REMARK  Name = pdb/CHEMBL3673477.pdb
REMARK                            x       y       z     vdW  Elec       q    Type
REMARK                         _______ _______ _______ _____ _____    ______ ____
ROOT
ATOM      1  C   LIG    1      -26.285  75.101  13.842  0.00  0.00    +0.162 A 
ATOM      2  C   LIG    1      -26.970  76.337  13.880  0.00  0.00    +0.162 A 
ATOM      3  C   LIG    1      -28.182  76.472  13.182  0.00  0.00    +0.050 A 
ATOM      4  C   LIG    1      -28.735  75.394  12.490  0.00  0.00    +0.009 A 
ATOM      5  C   LIG    1      -28.090  74.158  12.489  0.00  0.00    -0.024 A 
ATOM      6  C   LIG    1      -26.855  74.039  13.134  0.00  0.00    +0.054 A 
ENDROOT
BRANCH   1   8
ATOM      7  C   LIG    1      -23.911  75.397  13.734  0.00  0.00    +0.277 C 
ATOM      8  O   LIG    1      -25.065  74.960  14.456  0.00  0.00    -0.491 OA
ENDBRANCH   1   8
BRANCH   2   9
ATOM      9  O   LIG    1      -26.608  77.479  14.563  0.00  0.00    -0.484 OA
BRANCH   9  10
ATOM     10  C   LIG    1      -26.101  78.526  13.739  0.00  0.00    +0.266 C 
BRANCH  10  11
ATOM     11  C   LIG    1      -25.181  79.465  14.471  0.00  0.00    +0.008 A 
ATOM     12  C   LIG    1      -25.098  80.791  14.055  0.00  0.00    +0.118 A 
ATOM     13  N   LIG    1      -24.273  81.715  14.598  0.00  0.00    -0.251 NA
ATOM     14  C   LIG    1      -23.466  81.313  15.621  0.00  0.00    +0.144 A 
ATOM     15  C   LIG    1      -23.489  80.000  16.098  0.00  0.00    +0.033 A 
ATOM     16  C   LIG    1      -24.343  79.067  15.508  0.00  0.00    +0.010 A 
BRANCH  14  17
ATOM     17  C   LIG    1      -22.501  82.315  16.238  0.00  0.00    +0.434 C 
ATOM     18  F   LIG    1      -22.747  83.606  15.871  0.00  0.00    -0.164 F 
ATOM     19  F   LIG    1      -21.198  82.072  15.917  0.00  0.00    -0.164 F 
ATOM     20  F   LIG    1      -22.537  82.318  17.605  0.00  0.00    -0.164 F 
ENDBRANCH  14  17
ENDBRANCH  10  11
ENDBRANCH   9  10
ENDBRANCH   2   9
BRANCH   5  21
ATOM     21  C   LIG    1      -28.695  72.933  11.851  0.00  0.00    +0.161 C 
BRANCH  21  22
ATOM     22  N   LIG    1      -29.857  72.473  12.579  0.00  0.00    -0.293 N 
ATOM     23  C   LIG    1      -29.829  71.597  13.638  0.00  0.00    +0.162 A 
ATOM     24  N   LIG    1      -28.743  71.085  14.259  0.00  0.00    -0.235 NA
ATOM     25  C   LIG    1      -29.090  70.244  15.274  0.00  0.00    +0.121 A 
ATOM     26  C   LIG    1      -30.387  69.906  15.679  0.00  0.00    +0.005 A 
ATOM     27  C   LIG    1      -31.461  70.468  14.974  0.00  0.00    +0.041 A 
ATOM     28  C   LIG    1      -31.162  71.344  13.924  0.00  0.00    +0.110 A 
ATOM     29  N   LIG    1      -31.983  72.040  13.074  0.00  0.00    -0.213 NA
ATOM     30  C   LIG    1      -31.186  72.714  12.300  0.00  0.00    +0.195 A 
BRANCH  26  31
ATOM     31  C   LIG    1      -30.610  69.011  16.798  0.00  0.00    +0.021 A 
ATOM     32  C   LIG    1      -30.279  67.671  16.816  0.00  0.00    +0.116 A 
ATOM     33  N   LIG    1      -30.680  67.190  18.029  0.00  0.00    -0.274 N 
ATOM     34  C   LIG    1      -30.547  65.832  18.496  0.00  0.00    +0.172 C 
ATOM     35  N   LIG    1      -31.246  68.124  18.813  0.00  0.00    -0.179 NA
ATOM     36  C   LIG    1      -31.207  69.229  18.063  0.00  0.00    +0.143 A 
ENDBRANCH  26  31
BRANCH  30  37
ATOM     37  N   LIG    1      -31.589  73.564  11.326  0.00  0.00    -0.329 N 
ATOM     38  H   LIG    1      -30.834  74.159  10.990  0.00  0.00    +0.145 HD
ATOM     39  H   LIG    1      -32.137  73.207  10.555  0.00  0.00    +0.145 HD
ENDBRANCH  30  37
ENDBRANCH  21  22
ENDBRANCH   5  21
TORSDOF 9
ENDMDL
MODEL 2
REMARK VINA RESULT:      -6.1     18.445     22.268
REMARK  Name = pdb/CHEMBL3673477.pdb
REMARK                            x       y       z     vdW  Elec       q    Type
REMARK                         _______ _______ _______ _____ _____    ______ ____
ROOT
ATOM      1  C   LIG    1      -35.233  83.888  32.356  0.00  0.00    +0.162 A 
ATOM      2  C   LIG    1      -34.780  83.102  31.272  0.00  0.00    +0.162 A 
ATOM      3  C   LIG    1      -34.290  83.739  30.119  0.00  0.00    +0.050 A 
ATOM      4  C   LIG    1      -34.206  85.130  30.050  0.00  0.00    +0.009 A 
ATOM      5  C   LIG    1      -34.604  85.911  31.134  0.00  0.00    -0.024 A 
ATOM      6  C   LIG    1      -35.148  85.280  32.257  0.00  0.00    +0.054 A 
ENDROOT
BRANCH   1   8
ATOM      7  C   LIG    1      -37.143  82.866  33.378  0.00  0.00    +0.277 C 
ATOM      8  O   LIG    1      -35.782  83.296  33.466  0.00  0.00    -0.491 OA
ENDBRANCH   1   8
BRANCH   2   9
ATOM      9  O   LIG    1      -34.728  81.725  31.194  0.00  0.00    -0.484 OA
BRANCH   9  10
ATOM     10  C   LIG    1      -35.524  81.160  30.155  0.00  0.00    +0.266 C 
BRANCH  10  11
ATOM     11  C   LIG    1      -34.780  80.155  29.319  0.00  0.00    +0.008 A 
ATOM     12  C   LIG    1      -34.629  78.856  29.798  0.00  0.00    +0.118 A 
ATOM     13  N   LIG    1      -33.940  77.881  29.165  0.00  0.00    -0.251 NA
ATOM     14  C   LIG    1      -33.351  78.198  27.977  0.00  0.00    +0.144 A 
ATOM     15  C   LIG    1      -33.455  79.478  27.427  0.00  0.00    +0.033 A 
ATOM     16  C   LIG    1      -34.163  80.466  28.111  0.00  0.00    +0.010 A 
BRANCH  14  17
ATOM     17  C   LIG    1      -32.540  77.135  27.247  0.00  0.00    +0.434 C 
ATOM     18  F   LIG    1      -31.933  77.595  26.115  0.00  0.00    -0.164 F 
ATOM     19  F   LIG    1      -33.287  76.059  26.866  0.00  0.00    -0.164 F 
ATOM     20  F   LIG    1      -31.531  76.617  28.011  0.00  0.00    -0.164 F 
ENDBRANCH  14  17
ENDBRANCH  10  11
ENDBRANCH   9  10
ENDBRANCH   2   9
BRANCH   5  21
ATOM     21  C   LIG    1      -34.434  87.408  31.155  0.00  0.00    +0.161 C 
BRANCH  21  22
ATOM     22  N   LIG    1      -33.056  87.790  30.934  0.00  0.00    -0.293 N 
ATOM     23  C   LIG    1      -32.062  87.742  31.882  0.00  0.00    +0.162 A 
ATOM     24  N   LIG    1      -32.141  87.250  33.138  0.00  0.00    -0.235 NA
ATOM     25  C   LIG    1      -30.956  87.366  33.803  0.00  0.00    +0.121 A 
ATOM     26  C   LIG    1      -29.767  87.916  33.309  0.00  0.00    +0.005 A 
ATOM     27  C   LIG    1      -29.771  88.419  32.001  0.00  0.00    +0.041 A 
ATOM     28  C   LIG    1      -30.960  88.320  31.270  0.00  0.00    +0.110 A 
ATOM     29  N   LIG    1      -31.263  88.709  29.990  0.00  0.00    -0.213 NA
ATOM     30  C   LIG    1      -32.504  88.368  29.810  0.00  0.00    +0.195 A 
BRANCH  26  31
ATOM     31  C   LIG    1      -28.568  87.954  34.124  0.00  0.00    +0.021 A 
ATOM     32  C   LIG    1      -28.144  89.046  34.856  0.00  0.00    +0.116 A 
ATOM     33  N   LIG    1      -26.969  88.681  35.448  0.00  0.00    -0.274 N 
ATOM     34  C   LIG    1      -26.153  89.505  36.305  0.00  0.00    +0.172 C 
ATOM     35  N   LIG    1      -26.595  87.422  35.162  0.00  0.00    -0.179 NA
ATOM     36  C   LIG    1      -27.565  86.982  34.355  0.00  0.00    +0.143 A 
ENDBRANCH  26  31
BRANCH  30  37
ATOM     37  N   LIG    1      -33.196  88.545  28.660  0.00  0.00    -0.329 N 
ATOM     38  H   LIG    1      -33.822  89.347  28.701  0.00  0.00    +0.145 HD
ATOM     39  H   LIG    1      -32.703  88.518  27.778  0.00  0.00    +0.145 HD
ENDBRANCH  30  37
ENDBRANCH  21  22
ENDBRANCH   5  21
TORSDOF 9
ENDMDL
MODEL 3
REMARK VINA RESULT:      -6.1      5.277      9.044
REMARK  Name = pdb/CHEMBL3673477.pdb
REMARK                            x       y       z     vdW  Elec       q    Type
REMARK                         _______ _______ _______ _____ _____    ______ ____
ROOT
ATOM      1  C   LIG    1      -28.110  76.801  12.740  0.00  0.00    +0.162 A 
ATOM      2  C   LIG    1      -27.204  77.859  12.983  0.00  0.00    +0.162 A 
ATOM      3  C   LIG    1      -27.063  78.876  12.025  0.00  0.00    +0.050 A 
ATOM      4  C   LIG    1      -27.833  78.877  10.861  0.00  0.00    +0.009 A 
ATOM      5  C   LIG    1      -28.765  77.864  10.637  0.00  0.00    -0.024 A 
ATOM      6  C   LIG    1      -28.863  76.820  11.563  0.00  0.00    +0.054 A 
ENDROOT
BRANCH   1   8
ATOM      7  C   LIG    1      -27.288  74.681  13.490  0.00  0.00    +0.277 C 
ATOM      8  O   LIG    1      -28.219  75.758  13.625  0.00  0.00    -0.491 OA
ENDBRANCH   1   8
BRANCH   2   9
ATOM      9  O   LIG    1      -26.417  78.053  14.099  0.00  0.00    -0.484 OA
BRANCH   9  10
ATOM     10  C   LIG    1      -25.020  78.151  13.830  0.00  0.00    +0.266 C 
BRANCH  10  11
ATOM     11  C   LIG    1      -24.340  79.242  14.612  0.00  0.00    +0.008 A 
ATOM     12  C   LIG    1      -24.659  80.569  14.337  0.00  0.00    +0.118 A 
ATOM     13  N   LIG    1      -24.082  81.636  14.934  0.00  0.00    -0.251 NA
ATOM     14  C   LIG    1      -23.117  81.388  15.866  0.00  0.00    +0.144 A 
ATOM     15  C   LIG    1      -22.740  80.085  16.199  0.00  0.00    +0.033 A 
ATOM     16  C   LIG    1      -23.347  79.006  15.556  0.00  0.00    +0.010 A 
BRANCH  14  17
ATOM     17  C   LIG    1      -22.421  82.563  16.538  0.00  0.00    +0.434 C 
ATOM     18  F   LIG    1      -21.060  82.505  16.463  0.00  0.00    -0.164 F 
ATOM     19  F   LIG    1      -22.721  82.677  17.864  0.00  0.00    -0.164 F 
ATOM     20  F   LIG    1      -22.760  83.769  15.991  0.00  0.00    -0.164 F 
ENDBRANCH  14  17
ENDBRANCH  10  11
ENDBRANCH   9  10
ENDBRANCH   2   9
BRANCH   5  21
ATOM     21  C   LIG    1      -29.698  77.874   9.454  0.00  0.00    +0.161 C 
BRANCH  21  22
ATOM     22  N   LIG    1      -31.041  78.249   9.838  0.00  0.00    -0.293 N 
ATOM     23  C   LIG    1      -31.471  79.537  10.051  0.00  0.00    +0.162 A 
ATOM     24  N   LIG    1      -30.780  80.682   9.853  0.00  0.00    -0.235 NA
ATOM     25  C   LIG    1      -31.520  81.781  10.171  0.00  0.00    +0.121 A 
ATOM     26  C   LIG    1      -32.837  81.798  10.648  0.00  0.00    +0.005 A 
ATOM     27  C   LIG    1      -33.479  80.567  10.841  0.00  0.00    +0.041 A 
ATOM     28  C   LIG    1      -32.767  79.405  10.525  0.00  0.00    +0.110 A 
ATOM     29  N   LIG    1      -33.125  78.083  10.600  0.00  0.00    -0.213 NA
ATOM     30  C   LIG    1      -32.093  77.421  10.171  0.00  0.00    +0.195 A 
BRANCH  26  31
ATOM     31  C   LIG    1      -33.515  83.050  10.924  0.00  0.00    +0.021 A 
ATOM     32  C   LIG    1      -32.904  84.288  10.959  0.00  0.00    +0.116 A 
ATOM     33  N   LIG    1      -33.878  85.189  11.281  0.00  0.00    -0.274 N 
ATOM     34  C   LIG    1      -33.705  86.613  11.441  0.00  0.00    +0.172 C 
ATOM     35  N   LIG    1      -35.088  84.630  11.453  0.00  0.00    -0.179 NA
ATOM     36  C   LIG    1      -34.866  83.330  11.239  0.00  0.00    +0.143 A 
ENDBRANCH  26  31
BRANCH  30  37
ATOM     37  N   LIG    1      -32.033  76.073  10.051  0.00  0.00    -0.329 N 
ATOM     38  H   LIG    1      -31.360  75.654  10.690  0.00  0.00    +0.145 HD
ATOM     39  H   LIG    1      -32.892  75.541  10.032  0.00  0.00    +0.145 HD
ENDBRANCH  30  37
ENDBRANCH  21  22
ENDBRANCH   5  21
TORSDOF 9
ENDMDL
MODEL 4
REMARK VINA RESULT:      -6.0     11.719     16.363
REMARK  Name = pdb/CHEMBL3673477.pdb
REMARK                            x       y       z     vdW  Elec       q    Type
REMARK                         _______ _______ _______ _____ _____    ______ ____
ROOT
ATOM      1  C   LIG    1      -39.568  68.527  21.255  0.00  0.00    +0.162 A 
ATOM      2  C   LIG    1      -38.247  68.465  20.758  0.00  0.00    +0.162 A 
ATOM      3  C   LIG    1      -37.205  69.045  21.501  0.00  0.00    +0.050 A 
ATOM      4  C   LIG    1      -37.453  69.641  22.738  0.00  0.00    +0.009 A 
ATOM      5  C   LIG    1      -38.746  69.662  23.259  0.00  0.00    -0.024 A 
ATOM      6  C   LIG    1      -39.791  69.138  22.493  0.00  0.00    +0.054 A 
ENDROOT
BRANCH   1   8
ATOM      7  C   LIG    1      -41.123  66.745  20.881  0.00  0.00    +0.277 C 
ATOM      8  O   LIG    1      -40.616  68.031  20.519  0.00  0.00    -0.491 OA
ENDBRANCH   1   8
BRANCH   2   9
ATOM      9  O   LIG    1      -37.813  67.862  19.595  0.00  0.00    -0.484 OA
BRANCH   9  10
ATOM     10  C   LIG    1      -37.144  66.618  19.787  0.00  0.00    +0.266 C 
BRANCH  10  11
ATOM     11  C   LIG    1      -35.674  66.680  19.471  0.00  0.00    +0.008 A 
ATOM     12  C   LIG    1      -34.755  66.375  20.471  0.00  0.00    +0.118 A 
ATOM     13  N   LIG    1      -33.413  66.443  20.325  0.00  0.00    -0.251 NA
ATOM     14  C   LIG    1      -32.932  66.844  19.113  0.00  0.00    +0.144 A 
ATOM     15  C   LIG    1      -33.788  67.168  18.058  0.00  0.00    +0.033 A 
ATOM     16  C   LIG    1      -35.169  67.098  18.244  0.00  0.00    +0.010 A 
BRANCH  14  17
ATOM     17  C   LIG    1      -31.427  66.963  18.918  0.00  0.00    +0.434 C 
ATOM     18  F   LIG    1      -30.968  68.246  18.997  0.00  0.00    -0.164 F 
ATOM     19  F   LIG    1      -31.002  66.483  17.714  0.00  0.00    -0.164 F 
ATOM     20  F   LIG    1      -30.711  66.268  19.853  0.00  0.00    -0.164 F 
ENDBRANCH  14  17
ENDBRANCH  10  11
ENDBRANCH   9  10
ENDBRANCH   2   9
BRANCH   5  21
ATOM     21  C   LIG    1      -39.052  70.193  24.636  0.00  0.00    +0.161 C 
BRANCH  21  22
ATOM     22  N   LIG    1      -38.967  71.637  24.680  0.00  0.00    -0.293 N 
ATOM     23  C   LIG    1      -39.958  72.498  24.272  0.00  0.00    +0.162 A 
ATOM     24  N   LIG    1      -41.205  72.185  23.856  0.00  0.00    -0.235 NA
ATOM     25  C   LIG    1      -41.922  73.296  23.524  0.00  0.00    +0.121 A 
ATOM     26  C   LIG    1      -41.485  74.625  23.582  0.00  0.00    +0.005 A 
ATOM     27  C   LIG    1      -40.172  74.866  24.010  0.00  0.00    +0.041 A 
ATOM     28  C   LIG    1      -39.392  73.760  24.369  0.00  0.00    +0.110 A 
ATOM     29  N   LIG    1      -38.101  73.681  24.823  0.00  0.00    -0.213 NA
ATOM     30  C   LIG    1      -37.880  72.416  25.017  0.00  0.00    +0.195 A 
BRANCH  26  31
ATOM     31  C   LIG    1      -42.368  75.718  23.220  0.00  0.00    +0.021 A 
ATOM     32  C   LIG    1      -43.433  75.616  22.347  0.00  0.00    +0.116 A 
ATOM     33  N   LIG    1      -43.978  76.864  22.256  0.00  0.00    -0.274 N 
ATOM     34  C   LIG    1      -45.113  77.245  21.450  0.00  0.00    +0.172 C 
ATOM     35  N   LIG    1      -43.350  77.778  23.016  0.00  0.00    -0.179 NA
ATOM     36  C   LIG    1      -42.370  77.082  23.598  0.00  0.00    +0.143 A 
ENDBRANCH  26  31
BRANCH  30  37
ATOM     37  N   LIG    1      -36.725  71.896  25.497  0.00  0.00    -0.329 N 
ATOM     38  H   LIG    1      -36.367  72.414  26.297  0.00  0.00    +0.145 HD
ATOM     39  H   LIG    1      -36.661  70.900  25.655  0.00  0.00    +0.145 HD
ENDBRANCH  30  37
ENDBRANCH  21  22
ENDBRANCH   5  21
TORSDOF 9
ENDMDL
MODEL 5
REMARK VINA RESULT:      -6.0      6.858      8.395
REMARK  Name = pdb/CHEMBL3673477.pdb
REMARK                            x       y       z     vdW  Elec       q    Type
REMARK                         _______ _______ _______ _____ _____    ______ ____
ROOT
ATOM      1  C   LIG    1      -24.860  80.550  14.002  0.00  0.00    +0.162 A 
ATOM      2  C   LIG    1      -24.002  80.971  15.044  0.00  0.00    +0.162 A 
ATOM      3  C   LIG    1      -23.309  80.007  15.795  0.00  0.00    +0.050 A 
ATOM      4  C   LIG    1      -23.425  78.649  15.498  0.00  0.00    +0.009 A 
ATOM      5  C   LIG    1      -24.229  78.229  14.440  0.00  0.00    -0.024 A 
ATOM      6  C   LIG    1      -24.965  79.183  13.731  0.00  0.00    +0.054 A 
ENDROOT
BRANCH   1   8
ATOM      7  C   LIG    1      -24.975  82.103  12.182  0.00  0.00    +0.277 C 
ATOM      8  O   LIG    1      -25.603  81.464  13.297  0.00  0.00    -0.491 OA
ENDBRANCH   1   8
BRANCH   2   9
ATOM      9  O   LIG    1      -23.719  82.265  15.429  0.00  0.00    -0.484 OA
BRANCH   9  10
ATOM     10  C   LIG    1      -22.404  82.707  15.101  0.00  0.00    +0.266 C 
BRANCH  10  11
ATOM     11  C   LIG    1      -22.327  84.183  14.820  0.00  0.00    +0.008 A 
ATOM     12  C   LIG    1      -22.523  85.081  15.866  0.00  0.00    +0.118 A 
ATOM     13  N   LIG    1      -22.529  86.426  15.730  0.00  0.00    -0.251 NA
ATOM     14  C   LIG    1      -22.332  86.932  14.479  0.00  0.00    +0.144 A 
ATOM     15  C   LIG    1      -22.128  86.098  13.377  0.00  0.00    +0.033 A 
ATOM     16  C   LIG    1      -22.140  84.714  13.548  0.00  0.00    +0.010 A 
BRANCH  14  17
ATOM     17  C   LIG    1      -22.363  88.441  14.280  0.00  0.00    +0.434 C 
ATOM     18  F   LIG    1      -21.152  88.970  13.939  0.00  0.00    -0.164 F 
ATOM     19  F   LIG    1      -22.773  89.121  15.389  0.00  0.00    -0.164 F 
ATOM     20  F   LIG    1      -23.217  88.831  13.286  0.00  0.00    -0.164 F 
ENDBRANCH  14  17
ENDBRANCH  10  11
ENDBRANCH   9  10
ENDBRANCH   2   9
BRANCH   5  21
ATOM     21  C   LIG    1      -24.304  76.787  14.007  0.00  0.00    +0.161 C 
BRANCH  21  22
ATOM     22  N   LIG    1      -23.019  76.131  14.114  0.00  0.00    -0.293 N 
ATOM     23  C   LIG    1      -22.613  75.358  15.175  0.00  0.00    +0.162 A 
ATOM     24  N   LIG    1      -23.342  74.982  16.250  0.00  0.00    -0.235 NA
ATOM     25  C   LIG    1      -22.615  74.214  17.110  0.00  0.00    +0.121 A 
ATOM     26  C   LIG    1      -21.277  73.825  16.964  0.00  0.00    +0.005 A 
ATOM     27  C   LIG    1      -20.586  74.270  15.828  0.00  0.00    +0.041 A 
ATOM     28  C   LIG    1      -21.286  75.057  14.907  0.00  0.00    +0.110 A 
ATOM     29  N   LIG    1      -20.889  75.622  13.723  0.00  0.00    -0.213 NA
ATOM     30  C   LIG    1      -21.937  76.237  13.264  0.00  0.00    +0.195 A 
BRANCH  26  31
ATOM     31  C   LIG    1      -20.633  72.981  17.952  0.00  0.00    +0.021 A 
ATOM     32  C   LIG    1      -19.304  73.068  18.319  0.00  0.00    +0.116 A 
ATOM     33  N   LIG    1      -19.095  72.085  19.243  0.00  0.00    -0.274 N 
ATOM     34  C   LIG    1      -17.848  71.788  19.906  0.00  0.00    +0.172 C 
ATOM     35  N   LIG    1      -20.195  71.364  19.516  0.00  0.00    -0.179 NA
ATOM     36  C   LIG    1      -21.128  71.907  18.728  0.00  0.00    +0.143 A 
ENDBRANCH  26  31
BRANCH  30  37
ATOM     37  N   LIG    1      -21.990  76.908  12.089  0.00  0.00    -0.329 N 
ATOM     38  H   LIG    1      -21.079  76.979  11.640  0.00  0.00    +0.145 HD
ATOM     39  H   LIG    1      -22.705  76.670  11.417  0.00  0.00    +0.145 HD
ENDBRANCH  30  37
ENDBRANCH  21  22
ENDBRANCH   5  21
TORSDOF 9
ENDMDL
MODEL 6
REMARK VINA RESULT:      -6.0     10.030     13.960
REMARK  Name = pdb/CHEMBL3673477.pdb
REMARK                            x       y       z     vdW  Elec       q    Type
REMARK                         _______ _______ _______ _____ _____    ______ ____
ROOT
ATOM      1  C   LIG    1      -35.954  68.268  23.654  0.00  0.00    +0.162 A 
ATOM      2  C   LIG    1      -37.034  69.169  23.514  0.00  0.00    +0.162 A 
ATOM      3  C   LIG    1      -37.844  69.098  22.368  0.00  0.00    +0.050 A 
ATOM      4  C   LIG    1      -37.621  68.126  21.392  0.00  0.00    +0.009 A 
ATOM      5  C   LIG    1      -36.588  67.202  21.547  0.00  0.00    -0.024 A 
ATOM      6  C   LIG    1      -35.746  67.310  22.658  0.00  0.00    +0.054 A 
ENDROOT
BRANCH   1   8
ATOM      7  C   LIG    1      -35.392  67.542  25.866  0.00  0.00    +0.277 C 
ATOM      8  O   LIG    1      -35.104  68.359  24.729  0.00  0.00    -0.491 OA
ENDBRANCH   1   8
BRANCH   2   9
ATOM      9  O   LIG    1      -37.439  70.143  24.404  0.00  0.00    -0.484 OA
BRANCH   9  10
ATOM     10  C   LIG    1      -38.809  70.519  24.289  0.00  0.00    +0.266 C 
BRANCH  10  11
ATOM     11  C   LIG    1      -39.019  72.008  24.307  0.00  0.00    +0.008 A 
ATOM     12  C   LIG    1      -38.020  72.825  24.832  0.00  0.00    +0.118 A 
ATOM     13  N   LIG    1      -38.112  74.168  24.949  0.00  0.00    -0.251 NA
ATOM     14  C   LIG    1      -39.267  74.759  24.528  0.00  0.00    +0.144 A 
ATOM     15  C   LIG    1      -40.317  74.010  23.990  0.00  0.00    +0.033 A 
ATOM     16  C   LIG    1      -40.196  72.624  23.893  0.00  0.00    +0.010 A 
BRANCH  14  17
ATOM     17  C   LIG    1      -39.422  76.266  24.673  0.00  0.00    +0.434 C 
ATOM     18  F   LIG    1      -40.386  76.631  25.567  0.00  0.00    -0.164 F 
ATOM     19  F   LIG    1      -39.739  76.888  23.501  0.00  0.00    -0.164 F 
ATOM     20  F   LIG    1      -38.280  76.881  25.105  0.00  0.00    -0.164 F 
ENDBRANCH  14  17
ENDBRANCH  10  11
ENDBRANCH   9  10
ENDBRANCH   2   9
BRANCH   5  21
ATOM     21  C   LIG    1      -36.371  66.065  20.581  0.00  0.00    +0.161 C 
BRANCH  21  22
ATOM     22  N   LIG    1      -35.695  66.508  19.382  0.00  0.00    -0.293 N 
ATOM     23  C   LIG    1      -34.334  66.653  19.252  0.00  0.00    +0.162 A 
ATOM     24  N   LIG    1      -33.378  66.328  20.151  0.00  0.00    -0.235 NA
ATOM     25  C   LIG    1      -32.128  66.612  19.686  0.00  0.00    +0.121 A 
ATOM     26  C   LIG    1      -31.801  67.172  18.445  0.00  0.00    +0.005 A 
ATOM     27  C   LIG    1      -32.851  67.496  17.575  0.00  0.00    +0.041 A 
ATOM     28  C   LIG    1      -34.156  67.220  17.998  0.00  0.00    +0.110 A 
ATOM     29  N   LIG    1      -35.363  67.414  17.377  0.00  0.00    -0.213 NA
ATOM     30  C   LIG    1      -36.256  66.968  18.209  0.00  0.00    +0.195 A 
BRANCH  26  31
ATOM     31  C   LIG    1      -30.419  67.400  18.070  0.00  0.00    +0.021 A 
ATOM     32  C   LIG    1      -29.632  68.432  18.541  0.00  0.00    +0.116 A 
ATOM     33  N   LIG    1      -28.421  68.307  17.924  0.00  0.00    -0.274 N 
ATOM     34  C   LIG    1      -27.279  69.171  18.101  0.00  0.00    +0.172 C 
ATOM     35  N   LIG    1      -28.354  67.259  17.085  0.00  0.00    -0.179 NA
ATOM     36  C   LIG    1      -29.569  66.710  17.171  0.00  0.00    +0.143 A 
ENDBRANCH  26  31
BRANCH  30  37
ATOM     37  N   LIG    1      -37.589  66.943  17.974  0.00  0.00    -0.329 N 
ATOM     38  H   LIG    1      -38.046  66.142  18.405  0.00  0.00    +0.145 HD
ATOM     39  H   LIG    1      -38.130  67.785  18.115  0.00  0.00    +0.145 HD
ENDBRANCH  30  37
ENDBRANCH  21  22
ENDBRANCH   5  21
TORSDOF 9
ENDMDL
MODEL 7
REMARK VINA RESULT:      -5.9     19.697     23.302
REMARK  Name = pdb/CHEMBL3673477.pdb
REMARK                            x       y       z     vdW  Elec       q    Type
REMARK                         _______ _______ _______ _____ _____    ______ ____
ROOT
ATOM      1  C   LIG    1      -22.302  82.347  36.712  0.00  0.00    +0.162 A 
ATOM      2  C   LIG    1      -22.609  81.300  35.813  0.00  0.00    +0.162 A 
ATOM      3  C   LIG    1      -23.909  80.769  35.795  0.00  0.00    +0.050 A 
ATOM      4  C   LIG    1      -24.907  81.288  36.622  0.00  0.00    +0.009 A 
ATOM      5  C   LIG    1      -24.624  82.354  37.476  0.00  0.00    -0.024 A 
ATOM      6  C   LIG    1      -23.316  82.843  37.536  0.00  0.00    +0.054 A 
ENDROOT
BRANCH   1   8
ATOM      7  C   LIG    1      -20.680  83.569  37.981  0.00  0.00    +0.277 C 
ATOM      8  O   LIG    1      -21.023  82.838  36.801  0.00  0.00    -0.491 OA
ENDBRANCH   1   8
BRANCH   2   9
ATOM      9  O   LIG    1      -21.772  80.715  34.885  0.00  0.00    -0.484 OA
BRANCH   9  10
ATOM     10  C   LIG    1      -21.667  79.297  34.993  0.00  0.00    +0.266 C 
BRANCH  10  11
ATOM     11  C   LIG    1      -21.905  78.583  33.691  0.00  0.00    +0.008 A 
ATOM     12  C   LIG    1      -20.817  78.283  32.876  0.00  0.00    +0.118 A 
ATOM     13  N   LIG    1      -20.908  77.691  31.664  0.00  0.00    -0.251 NA
ATOM     14  C   LIG    1      -22.154  77.374  31.211  0.00  0.00    +0.144 A 
ATOM     15  C   LIG    1      -23.297  77.642  31.968  0.00  0.00    +0.033 A 
ATOM     16  C   LIG    1      -23.171  78.264  33.210  0.00  0.00    +0.010 A 
BRANCH  14  17
ATOM     17  C   LIG    1      -22.301  76.735  29.837  0.00  0.00    +0.434 C 
ATOM     18  F   LIG    1      -23.252  77.329  29.059  0.00  0.00    -0.164 F 
ATOM     19  F   LIG    1      -22.629  75.412  29.893  0.00  0.00    -0.164 F 
ATOM     20  F   LIG    1      -21.150  76.787  29.099  0.00  0.00    -0.164 F 
ENDBRANCH  14  17
ENDBRANCH  10  11
ENDBRANCH   9  10
ENDBRANCH   2   9
BRANCH   5  21
ATOM     21  C   LIG    1      -25.688  83.023  38.308  0.00  0.00    +0.161 C 
BRANCH  21  22
ATOM     22  N   LIG    1      -26.960  83.057  37.620  0.00  0.00    -0.293 N 
ATOM     23  C   LIG    1      -27.363  84.046  36.754  0.00  0.00    +0.162 A 
ATOM     24  N   LIG    1      -26.640  85.096  36.305  0.00  0.00    -0.235 NA
ATOM     25  C   LIG    1      -27.362  85.880  35.455  0.00  0.00    +0.121 A 
ATOM     26  C   LIG    1      -28.688  85.683  35.052  0.00  0.00    +0.005 A 
ATOM     27  C   LIG    1      -29.374  84.578  35.575  0.00  0.00    +0.041 A 
ATOM     28  C   LIG    1      -28.679  83.735  36.449  0.00  0.00    +0.110 A 
ATOM     29  N   LIG    1      -29.073  82.595  37.102  0.00  0.00    -0.213 NA
ATOM     30  C   LIG    1      -28.033  82.204  37.774  0.00  0.00    +0.195 A 
BRANCH  26  31
ATOM     31  C   LIG    1      -29.327  86.589  34.117  0.00  0.00    +0.021 A 
ATOM     32  C   LIG    1      -30.592  86.417  33.589  0.00  0.00    +0.116 A 
ATOM     33  N   LIG    1      -30.799  87.463  32.737  0.00  0.00    -0.274 N 
ATOM     34  C   LIG    1      -31.984  87.700  31.948  0.00  0.00    +0.172 C 
ATOM     35  N   LIG    1      -29.762  88.316  32.675  0.00  0.00    -0.179 NA
ATOM     36  C   LIG    1      -28.867  87.782  33.511  0.00  0.00    +0.143 A 
ENDBRANCH  26  31
BRANCH  30  37
ATOM     37  N   LIG    1      -27.980  81.089  38.540  0.00  0.00    -0.329 N 
ATOM     38  H   LIG    1      -28.563  80.337  38.177  0.00  0.00    +0.145 HD
ATOM     39  H   LIG    1      -27.080  80.735  38.835  0.00  0.00    +0.145 HD
ENDBRANCH  30  37
ENDBRANCH  21  22
ENDBRANCH   5  21
TORSDOF 9
ENDMDL
MODEL 8
REMARK VINA RESULT:      -5.9      6.839     10.984
REMARK  Name = pdb/CHEMBL3673477.pdb
REMARK                            x       y       z     vdW  Elec       q    Type
REMARK                         _______ _______ _______ _____ _____    ______ ____
ROOT
ATOM      1  C   LIG    1      -31.679  77.500   9.531  0.00  0.00    +0.162 A 
ATOM      2  C   LIG    1      -32.175  78.613  10.248  0.00  0.00    +0.162 A 
ATOM      3  C   LIG    1      -31.373  79.205  11.238  0.00  0.00    +0.050 A 
ATOM      4  C   LIG    1      -30.084  78.735  11.492  0.00  0.00    +0.009 A 
ATOM      5  C   LIG    1      -29.569  77.670  10.754  0.00  0.00    -0.024 A 
ATOM      6  C   LIG    1      -30.388  77.043   9.810  0.00  0.00    +0.054 A 
ENDROOT
BRANCH   1   8
ATOM      7  C   LIG    1      -32.340  77.263   7.242  0.00  0.00    +0.277 C 
ATOM      8  O   LIG    1      -32.466  76.858   8.607  0.00  0.00    -0.491 OA
ENDBRANCH   1   8
BRANCH   2   9
ATOM      9  O   LIG    1      -33.390  79.245  10.085  0.00  0.00    -0.484 OA
BRANCH   9  10
ATOM     10  C   LIG    1      -33.330  80.465   9.350  0.00  0.00    +0.266 C 
BRANCH  10  11
ATOM     11  C   LIG    1      -33.984  81.619  10.060  0.00  0.00    +0.008 A 
ATOM     12  C   LIG    1      -35.330  81.884   9.821  0.00  0.00    +0.118 A 
ATOM     13  N   LIG    1      -36.014  82.918  10.358  0.00  0.00    -0.251 NA
ATOM     14  C   LIG    1      -35.333  83.760  11.187  0.00  0.00    +0.144 A 
ATOM     15  C   LIG    1      -33.981  83.564  11.478  0.00  0.00    +0.033 A 
ATOM     16  C   LIG    1      -33.300  82.493  10.898  0.00  0.00    +0.010 A 
BRANCH  14  17
ATOM     17  C   LIG    1      -36.061  84.955  11.786  0.00  0.00    +0.434 C 
ATOM     18  F   LIG    1      -36.794  84.647  12.895  0.00  0.00    -0.164 F 
ATOM     19  F   LIG    1      -36.926  85.549  10.914  0.00  0.00    -0.164 F 
ATOM     20  F   LIG    1      -35.213  85.953  12.182  0.00  0.00    -0.164 F 
ENDBRANCH  14  17
ENDBRANCH  10  11
ENDBRANCH   9  10
ENDBRANCH   2   9
BRANCH   5  21
ATOM     21  C   LIG    1      -28.147  77.195  10.910  0.00  0.00    +0.161 C 
BRANCH  21  22
ATOM     22  N   LIG    1      -27.705  77.278  12.285  0.00  0.00    -0.293 N 
ATOM     23  C   LIG    1      -26.812  78.204  12.772  0.00  0.00    +0.162 A 
ATOM     24  N   LIG    1      -26.264  79.249  12.114  0.00  0.00    -0.235 NA
ATOM     25  C   LIG    1      -25.416  79.960  12.911  0.00  0.00    +0.121 A 
ATOM     26  C   LIG    1      -25.105  79.697  14.251  0.00  0.00    +0.005 A 
ATOM     27  C   LIG    1      -25.704  78.584  14.857  0.00  0.00    +0.041 A 
ATOM     28  C   LIG    1      -26.589  77.822  14.087  0.00  0.00    +0.110 A 
ATOM     29  N   LIG    1      -27.319  76.704  14.399  0.00  0.00    -0.213 NA
ATOM     30  C   LIG    1      -27.984  76.413  13.322  0.00  0.00    +0.195 A 
BRANCH  26  31
ATOM     31  C   LIG    1      -24.198  80.556  14.989  0.00  0.00    +0.021 A 
ATOM     32  C   LIG    1      -24.001  81.899  14.735  0.00  0.00    +0.116 A 
ATOM     33  N   LIG    1      -23.055  82.324  15.623  0.00  0.00    -0.274 N 
ATOM     34  C   LIG    1      -22.521  83.660  15.728  0.00  0.00    +0.172 C 
ATOM     35  N   LIG    1      -22.623  81.355  16.449  0.00  0.00    -0.179 NA
ATOM     36  C   LIG    1      -23.316  80.281  16.060  0.00  0.00    +0.143 A 
ENDBRANCH  26  31
BRANCH  30  37
ATOM     37  N   LIG    1      -28.859  75.386  13.206  0.00  0.00    -0.329 N 
ATOM     38  H   LIG    1      -28.434  74.485  13.417  0.00  0.00    +0.145 HD
ATOM     39  H   LIG    1      -29.771  75.464  13.636  0.00  0.00    +0.145 HD
ENDBRANCH  30  37
ENDBRANCH  21  22
ENDBRANCH   5  21
TORSDOF 9
ENDMDL
MODEL 9
REMARK VINA RESULT:      -5.9     14.175     17.819
REMARK  Name = pdb/CHEMBL3673477.pdb
REMARK                            x       y       z     vdW  Elec       q    Type
REMARK                         _______ _______ _______ _____ _____    ______ ____
ROOT
ATOM      1  C   LIG    1      -40.781  74.302  23.833  0.00  0.00    +0.162 A 
ATOM      2  C   LIG    1      -40.095  73.081  24.024  0.00  0.00    +0.162 A 
ATOM      3  C   LIG    1      -38.810  73.096  24.592  0.00  0.00    +0.050 A 
ATOM      4  C   LIG    1      -38.224  74.294  25.005  0.00  0.00    +0.009 A 
ATOM      5  C   LIG    1      -38.914  75.496  24.866  0.00  0.00    -0.024 A 
ATOM      6  C   LIG    1      -40.168  75.488  24.247  0.00  0.00    +0.054 A 
ENDROOT
BRANCH   1   8
ATOM      7  C   LIG    1      -43.165  74.322  24.058  0.00  0.00    +0.277 C 
ATOM      8  O   LIG    1      -42.008  74.324  23.218  0.00  0.00    -0.491 OA
ENDBRANCH   1   8
BRANCH   2   9
ATOM      9  O   LIG    1      -40.546  71.808  23.738  0.00  0.00    -0.484 OA
BRANCH   9  10
ATOM     10  C   LIG    1      -39.690  70.761  24.189  0.00  0.00    +0.266 C 
BRANCH  10  11
ATOM     11  C   LIG    1      -39.068  69.978  23.065  0.00  0.00    +0.008 A 
ATOM     12  C   LIG    1      -39.887  69.474  22.059  0.00  0.00    +0.118 A 
ATOM     13  N   LIG    1      -39.455  68.715  21.027  0.00  0.00    -0.251 NA
ATOM     14  C   LIG    1      -38.124  68.423  20.977  0.00  0.00    +0.144 A 
ATOM     15  C   LIG    1      -37.235  68.891  21.948  0.00  0.00    +0.033 A 
ATOM     16  C   LIG    1      -37.714  69.662  23.007  0.00  0.00    +0.010 A 
BRANCH  14  17
ATOM     17  C   LIG    1      -37.602  67.544  19.848  0.00  0.00    +0.434 C 
ATOM     18  F   LIG    1      -37.505  68.195  18.652  0.00  0.00    -0.164 F 
ATOM     19  F   LIG    1      -38.381  66.447  19.619  0.00  0.00    -0.164 F 
ATOM     20  F   LIG    1      -36.351  67.050  20.091  0.00  0.00    -0.164 F 
ENDBRANCH  14  17
ENDBRANCH  10  11
ENDBRANCH   9  10
ENDBRANCH   2   9
BRANCH   5  21
ATOM     21  C   LIG    1      -38.375  76.801  25.394  0.00  0.00    +0.161 C 
BRANCH  21  22
ATOM     22  N   LIG    1      -37.966  76.688  26.776  0.00  0.00    -0.293 N 
ATOM     23  C   LIG    1      -36.663  76.606  27.209  0.00  0.00    +0.162 A 
ATOM     24  N   LIG    1      -35.538  76.713  26.469  0.00  0.00    -0.235 NA
ATOM     25  C   LIG    1      -34.416  76.579  27.231  0.00  0.00    +0.121 A 
ATOM     26  C   LIG    1      -34.361  76.356  28.612  0.00  0.00    +0.005 A 
ATOM     27  C   LIG    1      -35.573  76.241  29.307  0.00  0.00    +0.041 A 
ATOM     28  C   LIG    1      -36.758  76.377  28.574  0.00  0.00    +0.110 A 
ATOM     29  N   LIG    1      -38.070  76.322  28.968  0.00  0.00    -0.213 NA
ATOM     30  C   LIG    1      -38.764  76.527  27.889  0.00  0.00    +0.195 A 
BRANCH  26  31
ATOM     31  C   LIG    1      -33.089  76.256  29.302  0.00  0.00    +0.021 A 
ATOM     32  C   LIG    1      -32.940  76.072  30.663  0.00  0.00    +0.116 A 
ATOM     33  N   LIG    1      -31.597  76.065  30.907  0.00  0.00    -0.274 N 
ATOM     34  C   LIG    1      -30.964  75.909  32.194  0.00  0.00    +0.172 C 
ATOM     35  N   LIG    1      -30.852  76.225  29.800  0.00  0.00    -0.179 NA
ATOM     36  C   LIG    1      -31.759  76.344  28.826  0.00  0.00    +0.143 A 
ENDBRANCH  26  31
BRANCH  30  37
ATOM     37  N   LIG    1      -40.116  76.585  27.838  0.00  0.00    -0.329 N 
ATOM     38  H   LIG    1      -40.524  75.775  27.373  0.00  0.00    +0.145 HD
ATOM     39  H   LIG    1      -40.632  76.817  28.675  0.00  0.00    +0.145 HD
ENDBRANCH  30  37
ENDBRANCH  21  22
ENDBRANCH   5  21
TORSDOF 9
ENDMDL
