MODEL 1
REMARK VINA RESULT:      -5.8      0.000      0.000
REMARK  Name = pdb/CHEMBL3678287.pdb
REMARK                            x       y       z     vdW  Elec       q    Type
REMARK                         _______ _______ _______ _____ _____    ______ ____
ROOT
ATOM      1  C   LIG    1      -23.148  75.102  31.188  0.00  0.00    +0.162 A 
ATOM      2  C   LIG    1      -24.254  75.848  30.753  0.00  0.00    +0.162 A 
ATOM      3  C   LIG    1      -23.994  77.045  30.055  0.00  0.00    +0.050 A 
ATOM      4  C   LIG    1      -22.690  77.483  29.773  0.00  0.00    +0.009 A 
ATOM      5  C   LIG    1      -21.586  76.745  30.208  0.00  0.00    -0.024 A 
ATOM      6  C   LIG    1      -21.837  75.563  30.919  0.00  0.00    +0.054 A 
ENDROOT
BRANCH   1   8
ATOM      7  C   LIG    1      -23.107  74.015  33.276  0.00  0.00    +0.277 C 
ATOM      8  O   LIG    1      -23.122  73.916  31.871  0.00  0.00    -0.491 OA
ENDBRANCH   1   8
BRANCH   2   9
ATOM      9  O   LIG    1      -25.590  75.677  31.004  0.00  0.00    -0.482 OA
BRANCH   9  10
ATOM     10  C   LIG    1      -26.430  76.631  31.662  0.00  0.00    +0.285 C 
BRANCH  10  11
ATOM     11  C   LIG    1      -25.899  76.942  33.022  0.00  0.00    +0.086 A 
ATOM     12  N   LIG    1      -25.411  78.214  33.230  0.00  0.00    -0.237 NA
ATOM     13  C   LIG    1      -24.961  78.324  34.464  0.00  0.00    +0.182 A 
ATOM     14  S   LIG    1      -25.334  76.995  35.496  0.00  0.00    -0.071 S 
ATOM     15  C   LIG    1      -26.004  76.159  34.161  0.00  0.00    +0.074 A 
BRANCH  13  16
ATOM     16  C   LIG    1      -24.112  79.455  34.942  0.00  0.00    +0.441 C 
ATOM     17  F   LIG    1      -23.550  80.154  33.920  0.00  0.00    -0.164 F 
ATOM     18  F   LIG    1      -23.087  78.999  35.713  0.00  0.00    -0.164 F 
ATOM     19  F   LIG    1      -24.793  80.352  35.703  0.00  0.00    -0.164 F 
ENDBRANCH  13  16
ENDBRANCH  10  11
ENDBRANCH   9  10
ENDBRANCH   2   9
BRANCH   5  20
ATOM     20  C   LIG    1      -20.171  77.168  29.875  0.00  0.00    +0.161 C 
BRANCH  20  21
ATOM     21  N   LIG    1      -19.245  77.108  31.007  0.00  0.00    -0.293 N 
ATOM     22  C   LIG    1      -19.421  77.817  32.176  0.00  0.00    +0.162 A 
ATOM     23  N   LIG    1      -20.390  78.696  32.490  0.00  0.00    -0.235 NA
ATOM     24  C   LIG    1      -20.232  79.207  33.749  0.00  0.00    +0.121 A 
ATOM     25  C   LIG    1      -19.212  78.896  34.659  0.00  0.00    +0.005 A 
ATOM     26  C   LIG    1      -18.248  77.964  34.266  0.00  0.00    +0.041 A 
ATOM     27  C   LIG    1      -18.353  77.417  32.979  0.00  0.00    +0.110 A 
ATOM     28  N   LIG    1      -17.543  76.536  32.343  0.00  0.00    -0.213 NA
ATOM     29  C   LIG    1      -18.074  76.396  31.112  0.00  0.00    +0.195 A 
BRANCH  25  30
ATOM     30  C   LIG    1      -19.132  79.512  35.972  0.00  0.00    +0.021 A 
ATOM     31  C   LIG    1      -19.996  80.471  36.460  0.00  0.00    +0.116 A 
ATOM     32  N   LIG    1      -19.545  80.800  37.706  0.00  0.00    -0.274 N 
ATOM     33  C   LIG    1      -20.125  81.759  38.612  0.00  0.00    +0.172 C 
ATOM     34  N   LIG    1      -18.443  80.122  38.073  0.00  0.00    -0.179 NA
ATOM     35  C   LIG    1      -18.187  79.347  37.014  0.00  0.00    +0.143 A 
ENDBRANCH  25  30
BRANCH  29  36
ATOM     36  N   LIG    1      -17.519  75.663  30.177  0.00  0.00    -0.329 N 
ATOM     37  H   LIG    1      -16.517  75.786  30.053  0.00  0.00    +0.145 HD
ATOM     38  H   LIG    1      -17.990  75.563  29.268  0.00  0.00    +0.145 HD
ENDBRANCH  29  36
ENDBRANCH  20  21
ENDBRANCH   5  20
TORSDOF 9
ENDMDL
MODEL 2
REMARK VINA RESULT:      -5.7     18.842     21.673
REMARK  Name = pdb/CHEMBL3678287.pdb
REMARK                            x       y       z     vdW  Elec       q    Type
REMARK                         _______ _______ _______ _____ _____    ______ ____
ROOT
ATOM      1  C   LIG    1      -19.888  83.772  12.112  0.00  0.00    +0.162 A 
ATOM      2  C   LIG    1      -18.597  84.255  12.379  0.00  0.00    +0.162 A 
ATOM      3  C   LIG    1      -17.829  83.554  13.332  0.00  0.00    +0.050 A 
ATOM      4  C   LIG    1      -18.304  82.404  13.982  0.00  0.00    +0.009 A 
ATOM      5  C   LIG    1      -19.590  81.923  13.721  0.00  0.00    -0.024 A 
ATOM      6  C   LIG    1      -20.366  82.625  12.789  0.00  0.00    +0.054 A 
ENDROOT
BRANCH   1   8
ATOM      7  C   LIG    1      -21.835  85.058  11.801  0.00  0.00    +0.277 C 
ATOM      8  O   LIG    1      -20.824  84.254  11.238  0.00  0.00    -0.491 OA
ENDBRANCH   1   8
BRANCH   2   9
ATOM      9  O   LIG    1      -17.976  85.400  11.955  0.00  0.00    -0.482 OA
BRANCH   9  10
ATOM     10  C   LIG    1      -17.776  86.569  12.757  0.00  0.00    +0.285 C 
BRANCH  10  11
ATOM     11  C   LIG    1      -19.070  87.282  12.969  0.00  0.00    +0.086 A 
ATOM     12  N   LIG    1      -19.703  87.088  14.179  0.00  0.00    -0.237 NA
ATOM     13  C   LIG    1      -20.836  87.762  14.204  0.00  0.00    +0.182 A 
ATOM     14  S   LIG    1      -21.063  88.851  12.887  0.00  0.00    -0.071 S 
ATOM     15  C   LIG    1      -19.626  88.265  12.166  0.00  0.00    +0.074 A 
BRANCH  13  16
ATOM     16  C   LIG    1      -21.902  87.557  15.228  0.00  0.00    +0.441 C 
ATOM     17  F   LIG    1      -22.694  86.487  14.949  0.00  0.00    -0.164 F 
ATOM     18  F   LIG    1      -22.722  88.642  15.296  0.00  0.00    -0.164 F 
ATOM     19  F   LIG    1      -21.413  87.368  16.481  0.00  0.00    -0.164 F 
ENDBRANCH  13  16
ENDBRANCH  10  11
ENDBRANCH   9  10
ENDBRANCH   2   9
BRANCH   5  20
ATOM     20  C   LIG    1      -20.108  80.658  14.371  0.00  0.00    +0.161 C 
BRANCH  20  21
ATOM     21  N   LIG    1      -21.484  80.755  14.861  0.00  0.00    -0.293 N 
ATOM     22  C   LIG    1      -22.536  80.039  14.331  0.00  0.00    +0.162 A 
ATOM     23  N   LIG    1      -22.537  79.190  13.288  0.00  0.00    -0.235 NA
ATOM     24  C   LIG    1      -23.778  78.668  13.050  0.00  0.00    +0.121 A 
ATOM     25  C   LIG    1      -24.952  78.935  13.769  0.00  0.00    +0.005 A 
ATOM     26  C   LIG    1      -24.871  79.817  14.848  0.00  0.00    +0.041 A 
ATOM     27  C   LIG    1      -23.624  80.394  15.129  0.00  0.00    +0.110 A 
ATOM     28  N   LIG    1      -23.280  81.298  16.080  0.00  0.00    -0.213 NA
ATOM     29  C   LIG    1      -21.974  81.550  15.870  0.00  0.00    +0.195 A 
BRANCH  25  30
ATOM     30  C   LIG    1      -26.227  78.332  13.419  0.00  0.00    +0.021 A 
ATOM     31  C   LIG    1      -27.095  78.801  12.455  0.00  0.00    +0.116 A 
ATOM     32  N   LIG    1      -28.179  77.970  12.475  0.00  0.00    -0.274 N 
ATOM     33  C   LIG    1      -29.352  78.056  11.640  0.00  0.00    +0.172 C 
ATOM     34  N   LIG    1      -28.082  76.986  13.385  0.00  0.00    -0.179 NA
ATOM     35  C   LIG    1      -26.900  77.213  13.966  0.00  0.00    +0.143 A 
ENDBRANCH  25  30
BRANCH  29  36
ATOM     36  N   LIG    1      -21.300  82.437  16.562  0.00  0.00    -0.329 N 
ATOM     37  H   LIG    1      -21.652  82.632  17.496  0.00  0.00    +0.145 HD
ATOM     38  H   LIG    1      -20.984  83.302  16.102  0.00  0.00    +0.145 HD
ENDBRANCH  29  36
ENDBRANCH  20  21
ENDBRANCH   5  20
TORSDOF 9
ENDMDL
MODEL 3
REMARK VINA RESULT:      -5.7     19.727     22.669
REMARK  Name = pdb/CHEMBL3678287.pdb
REMARK                            x       y       z     vdW  Elec       q    Type
REMARK                         _______ _______ _______ _____ _____    ______ ____
ROOT
ATOM      1  C   LIG    1      -39.628  68.349  20.996  0.00  0.00    +0.162 A 
ATOM      2  C   LIG    1      -38.364  68.348  20.388  0.00  0.00    +0.162 A 
ATOM      3  C   LIG    1      -37.300  68.937  21.102  0.00  0.00    +0.050 A 
ATOM      4  C   LIG    1      -37.470  69.488  22.383  0.00  0.00    +0.009 A 
ATOM      5  C   LIG    1      -38.728  69.494  22.991  0.00  0.00    -0.024 A 
ATOM      6  C   LIG    1      -39.793  68.926  22.278  0.00  0.00    +0.054 A 
ENDROOT
BRANCH   1   8
ATOM      7  C   LIG    1      -41.939  68.062  21.342  0.00  0.00    +0.277 C 
ATOM      8  O   LIG    1      -40.810  67.842  20.529  0.00  0.00    -0.491 OA
ENDBRANCH   1   8
BRANCH   2   9
ATOM      9  O   LIG    1      -37.991  67.974  19.123  0.00  0.00    -0.482 OA
BRANCH   9  10
ATOM     10  C   LIG    1      -37.613  66.649  18.737  0.00  0.00    +0.285 C 
BRANCH  10  11
ATOM     11  C   LIG    1      -36.156  66.597  18.415  0.00  0.00    +0.086 A 
ATOM     12  N   LIG    1      -35.285  66.420  19.469  0.00  0.00    -0.237 NA
ATOM     13  C   LIG    1      -34.043  66.418  19.027  0.00  0.00    +0.182 A 
ATOM     14  S   LIG    1      -33.881  66.374  17.311  0.00  0.00    -0.071 S 
ATOM     15  C   LIG    1      -35.579  66.522  17.157  0.00  0.00    +0.074 A 
BRANCH  13  16
ATOM     16  C   LIG    1      -32.846  66.537  19.910  0.00  0.00    +0.441 C 
ATOM     17  F   LIG    1      -32.069  65.422  19.889  0.00  0.00    -0.164 F 
ATOM     18  F   LIG    1      -33.218  66.729  21.206  0.00  0.00    -0.164 F 
ATOM     19  F   LIG    1      -32.040  67.582  19.585  0.00  0.00    -0.164 F 
ENDBRANCH  13  16
ENDBRANCH  10  11
ENDBRANCH   9  10
ENDBRANCH   2   9
BRANCH   5  20
ATOM     20  C   LIG    1      -38.928  70.036  24.390  0.00  0.00    +0.161 C 
BRANCH  20  21
ATOM     21  N   LIG    1      -38.798  71.490  24.495  0.00  0.00    -0.293 N 
ATOM     22  C   LIG    1      -39.789  72.374  24.125  0.00  0.00    +0.162 A 
ATOM     23  N   LIG    1      -40.990  72.113  23.578  0.00  0.00    -0.235 NA
ATOM     24  C   LIG    1      -41.706  73.254  23.342  0.00  0.00    +0.121 A 
ATOM     25  C   LIG    1      -41.304  74.569  23.615  0.00  0.00    +0.005 A 
ATOM     26  C   LIG    1      -40.048  74.760  24.195  0.00  0.00    +0.041 A 
ATOM     27  C   LIG    1      -39.264  73.625  24.447  0.00  0.00    +0.110 A 
ATOM     28  N   LIG    1      -38.011  73.533  24.959  0.00  0.00    -0.213 NA
ATOM     29  C   LIG    1      -37.718  72.218  24.933  0.00  0.00    +0.195 A 
BRANCH  25  30
ATOM     30  C   LIG    1      -42.143  75.714  23.308  0.00  0.00    +0.021 A 
ATOM     31  C   LIG    1      -41.985  76.983  23.826  0.00  0.00    +0.116 A 
ATOM     32  N   LIG    1      -42.998  77.740  23.310  0.00  0.00    -0.274 N 
ATOM     33  C   LIG    1      -43.249  79.138  23.560  0.00  0.00    +0.172 C 
ATOM     34  N   LIG    1      -43.811  77.056  22.487  0.00  0.00    -0.179 NA
ATOM     35  C   LIG    1      -43.298  75.822  22.495  0.00  0.00    +0.143 A 
ENDBRANCH  25  30
BRANCH  29  36
ATOM     36  N   LIG    1      -36.550  71.742  25.293  0.00  0.00    -0.329 N 
ATOM     37  H   LIG    1      -36.163  72.120  26.155  0.00  0.00    +0.145 HD
ATOM     38  H   LIG    1      -35.814  71.621  24.585  0.00  0.00    +0.145 HD
ENDBRANCH  29  36
ENDBRANCH  20  21
ENDBRANCH   5  20
TORSDOF 9
ENDMDL
MODEL 4
REMARK VINA RESULT:      -5.6     19.075     21.635
REMARK  Name = pdb/CHEMBL3678287.pdb
REMARK                            x       y       z     vdW  Elec       q    Type
REMARK                         _______ _______ _______ _____ _____    ______ ____
ROOT
ATOM      1  C   LIG    1      -25.155  80.395  13.776  0.00  0.00    +0.162 A 
ATOM      2  C   LIG    1      -25.486  79.370  14.675  0.00  0.00    +0.162 A 
ATOM      3  C   LIG    1      -24.592  79.127  15.738  0.00  0.00    +0.050 A 
ATOM      4  C   LIG    1      -23.423  79.882  15.924  0.00  0.00    +0.009 A 
ATOM      5  C   LIG    1      -23.088  80.901  15.029  0.00  0.00    -0.024 A 
ATOM      6  C   LIG    1      -23.963  81.136  13.959  0.00  0.00    +0.054 A 
ENDROOT
BRANCH   1   8
ATOM      7  C   LIG    1      -25.506  82.122  12.215  0.00  0.00    +0.277 C 
ATOM      8  O   LIG    1      -25.844  80.836  12.678  0.00  0.00    -0.491 OA
ENDBRANCH   1   8
BRANCH   2   9
ATOM      9  O   LIG    1      -26.498  78.447  14.630  0.00  0.00    -0.482 OA
BRANCH   9  10
ATOM     10  C   LIG    1      -26.539  77.317  13.752  0.00  0.00    +0.285 C 
BRANCH  10  11
ATOM     11  C   LIG    1      -27.241  77.669  12.482  0.00  0.00    +0.086 A 
ATOM     12  N   LIG    1      -28.522  78.167  12.590  0.00  0.00    -0.237 NA
ATOM     13  C   LIG    1      -29.011  78.406  11.389  0.00  0.00    +0.182 A 
ATOM     14  S   LIG    1      -27.870  78.286  10.103  0.00  0.00    -0.071 S 
ATOM     15  C   LIG    1      -26.692  77.728  11.211  0.00  0.00    +0.074 A 
BRANCH  13  16
ATOM     16  C   LIG    1      -30.453  78.675  11.117  0.00  0.00    +0.441 C 
ATOM     17  F   LIG    1      -31.101  77.589  10.617  0.00  0.00    -0.164 F 
ATOM     18  F   LIG    1      -30.596  79.671  10.200  0.00  0.00    -0.164 F 
ATOM     19  F   LIG    1      -31.143  79.069  12.219  0.00  0.00    -0.164 F 
ENDBRANCH  13  16
ENDBRANCH  10  11
ENDBRANCH   9  10
ENDBRANCH   2   9
BRANCH   5  20
ATOM     20  C   LIG    1      -21.860  81.763  15.234  0.00  0.00    +0.161 C 
BRANCH  20  21
ATOM     21  N   LIG    1      -22.153  83.175  15.484  0.00  0.00    -0.293 N 
ATOM     22  C   LIG    1      -22.093  84.151  14.511  0.00  0.00    +0.162 A 
ATOM     23  N   LIG    1      -21.729  84.035  13.222  0.00  0.00    -0.235 NA
ATOM     24  C   LIG    1      -21.790  85.230  12.561  0.00  0.00    +0.121 A 
ATOM     25  C   LIG    1      -22.179  86.466  13.095  0.00  0.00    +0.005 A 
ATOM     26  C   LIG    1      -22.556  86.506  14.440  0.00  0.00    +0.041 A 
ATOM     27  C   LIG    1      -22.500  85.311  15.171  0.00  0.00    +0.110 A 
ATOM     28  N   LIG    1      -22.769  85.082  16.480  0.00  0.00    -0.213 NA
ATOM     29  C   LIG    1      -22.501  83.775  16.670  0.00  0.00    +0.195 A 
BRANCH  25  30
ATOM     30  C   LIG    1      -22.194  87.683  12.301  0.00  0.00    +0.021 A 
ATOM     31  C   LIG    1      -21.297  87.994  11.300  0.00  0.00    +0.116 A 
ATOM     32  N   LIG    1      -21.646  89.233  10.842  0.00  0.00    -0.274 N 
ATOM     33  C   LIG    1      -21.001  89.981   9.791  0.00  0.00    +0.172 C 
ATOM     34  N   LIG    1      -22.711  89.757  11.473  0.00  0.00    -0.179 NA
ATOM     35  C   LIG    1      -23.036  88.819  12.367  0.00  0.00    +0.143 A 
ENDBRANCH  25  30
BRANCH  29  36
ATOM     36  N   LIG    1      -22.580  83.196  17.845  0.00  0.00    -0.329 N 
ATOM     37  H   LIG    1      -23.461  83.315  18.339  0.00  0.00    +0.145 HD
ATOM     38  H   LIG    1      -21.785  83.259  18.493  0.00  0.00    +0.145 HD
ENDBRANCH  29  36
ENDBRANCH  20  21
ENDBRANCH   5  20
TORSDOF 9
ENDMDL
MODEL 5
REMARK VINA RESULT:      -5.6      9.061     13.517
REMARK  Name = pdb/CHEMBL3678287.pdb
REMARK                            x       y       z     vdW  Elec       q    Type
REMARK                         _______ _______ _______ _____ _____    ______ ____
ROOT
ATOM      1  C   LIG    1      -27.304  86.973  35.193  0.00  0.00    +0.162 A 
ATOM      2  C   LIG    1      -27.330  85.624  35.577  0.00  0.00    +0.162 A 
ATOM      3  C   LIG    1      -28.505  84.895  35.299  0.00  0.00    +0.050 A 
ATOM      4  C   LIG    1      -29.607  85.467  34.645  0.00  0.00    +0.009 A 
ATOM      5  C   LIG    1      -29.586  86.811  34.264  0.00  0.00    -0.024 A 
ATOM      6  C   LIG    1      -28.429  87.547  34.554  0.00  0.00    +0.054 A 
ENDROOT
BRANCH   1   8
ATOM      7  C   LIG    1      -26.671  89.132  35.888  0.00  0.00    +0.277 C 
ATOM      8  O   LIG    1      -26.298  87.891  35.336  0.00  0.00    -0.491 OA
ENDBRANCH   1   8
BRANCH   2   9
ATOM      9  O   LIG    1      -26.432  84.896  36.312  0.00  0.00    -0.482 OA
BRANCH   9  10
ATOM     10  C   LIG    1      -26.730  83.673  36.993  0.00  0.00    +0.285 C 
BRANCH  10  11
ATOM     11  C   LIG    1      -25.476  82.907  37.261  0.00  0.00    +0.086 A 
ATOM     12  N   LIG    1      -24.669  82.626  36.180  0.00  0.00    -0.237 NA
ATOM     13  C   LIG    1      -23.620  81.931  36.573  0.00  0.00    +0.182 A 
ATOM     14  S   LIG    1      -23.431  81.805  38.282  0.00  0.00    -0.071 S 
ATOM     15  C   LIG    1      -24.931  82.600  38.498  0.00  0.00    +0.074 A 
BRANCH  13  16
ATOM     16  C   LIG    1      -22.698  81.217  35.642  0.00  0.00    +0.441 C 
ATOM     17  F   LIG    1      -23.329  80.775  34.521  0.00  0.00    -0.164 F 
ATOM     18  F   LIG    1      -22.155  80.122  36.242  0.00  0.00    -0.164 F 
ATOM     19  F   LIG    1      -21.655  81.983  35.228  0.00  0.00    -0.164 F 
ENDBRANCH  13  16
ENDBRANCH  10  11
ENDBRANCH   9  10
ENDBRANCH   2   9
BRANCH   5  20
ATOM     20  C   LIG    1      -30.741  87.440  33.513  0.00  0.00    +0.161 C 
BRANCH  20  21
ATOM     21  N   LIG    1      -30.904  86.949  32.144  0.00  0.00    -0.293 N 
ATOM     22  C   LIG    1      -31.913  86.095  31.754  0.00  0.00    +0.162 A 
ATOM     23  N   LIG    1      -32.872  85.525  32.505  0.00  0.00    -0.235 NA
ATOM     24  C   LIG    1      -33.699  84.726  31.765  0.00  0.00    +0.121 A 
ATOM     25  C   LIG    1      -33.621  84.487  30.385  0.00  0.00    +0.005 A 
ATOM     26  C   LIG    1      -32.605  85.125  29.669  0.00  0.00    +0.041 A 
ATOM     27  C   LIG    1      -31.719  85.946  30.381  0.00  0.00    +0.110 A 
ATOM     28  N   LIG    1      -30.638  86.639  29.944  0.00  0.00    -0.213 NA
ATOM     29  C   LIG    1      -30.117  87.209  31.048  0.00  0.00    +0.195 A 
BRANCH  25  30
ATOM     30  C   LIG    1      -34.548  83.605  29.699  0.00  0.00    +0.021 A 
ATOM     31  C   LIG    1      -34.570  82.229  29.805  0.00  0.00    +0.116 A 
ATOM     32  N   LIG    1      -35.564  81.794  28.975  0.00  0.00    -0.274 N 
ATOM     33  C   LIG    1      -35.968  80.428  28.750  0.00  0.00    +0.172 C 
ATOM     34  N   LIG    1      -36.199  82.789  28.333  0.00  0.00    -0.179 NA
ATOM     35  C   LIG    1      -35.574  83.889  28.765  0.00  0.00    +0.143 A 
ENDBRANCH  25  30
BRANCH  29  36
ATOM     36  N   LIG    1      -29.010  87.913  31.030  0.00  0.00    -0.329 N 
ATOM     37  H   LIG    1      -29.000  88.709  30.397  0.00  0.00    +0.145 HD
ATOM     38  H   LIG    1      -28.103  87.427  31.022  0.00  0.00    +0.145 HD
ENDBRANCH  29  36
ENDBRANCH  20  21
ENDBRANCH   5  20
TORSDOF 9
ENDMDL
MODEL 6
REMARK VINA RESULT:      -5.6     18.422     21.084
REMARK  Name = pdb/CHEMBL3678287.pdb
REMARK                            x       y       z     vdW  Elec       q    Type
REMARK                         _______ _______ _______ _____ _____    ______ ____
ROOT
ATOM      1  C   LIG    1      -32.543  93.547  27.792  0.00  0.00    +0.162 A 
ATOM      2  C   LIG    1      -32.590  92.178  27.487  0.00  0.00    +0.162 A 
ATOM      3  C   LIG    1      -32.665  91.820  26.125  0.00  0.00    +0.050 A 
ATOM      4  C   LIG    1      -32.670  92.776  25.096  0.00  0.00    +0.009 A 
ATOM      5  C   LIG    1      -32.627  94.140  25.397  0.00  0.00    -0.024 A 
ATOM      6  C   LIG    1      -32.571  94.503  26.749  0.00  0.00    +0.054 A 
ENDROOT
BRANCH   1   8
ATOM      7  C   LIG    1      -33.593  94.892  29.414  0.00  0.00    +0.277 C 
ATOM      8  O   LIG    1      -32.461  94.155  29.016  0.00  0.00    -0.491 OA
ENDBRANCH   1   8
BRANCH   2   9
ATOM      9  O   LIG    1      -32.707  91.091  28.313  0.00  0.00    -0.482 OA
BRANCH   9  10
ATOM     10  C   LIG    1      -33.808  90.177  28.316  0.00  0.00    +0.285 C 
BRANCH  10  11
ATOM     11  C   LIG    1      -33.370  88.835  28.804  0.00  0.00    +0.086 A 
ATOM     12  N   LIG    1      -32.285  88.800  29.653  0.00  0.00    -0.237 NA
ATOM     13  C   LIG    1      -32.009  87.551  29.974  0.00  0.00    +0.182 A 
ATOM     14  S   LIG    1      -33.189  86.396  29.478  0.00  0.00    -0.071 S 
ATOM     15  C   LIG    1      -34.037  87.630  28.651  0.00  0.00    +0.074 A 
BRANCH  13  16
ATOM     16  C   LIG    1      -30.742  87.122  30.634  0.00  0.00    +0.441 C 
ATOM     17  F   LIG    1      -29.639  87.451  29.910  0.00  0.00    -0.164 F 
ATOM     18  F   LIG    1      -30.713  85.771  30.797  0.00  0.00    -0.164 F 
ATOM     19  F   LIG    1      -30.573  87.659  31.871  0.00  0.00    -0.164 F 
ENDBRANCH  13  16
ENDBRANCH  10  11
ENDBRANCH   9  10
ENDBRANCH   2   9
BRANCH   5  20
ATOM     20  C   LIG    1      -32.581  95.190  24.306  0.00  0.00    +0.161 C 
BRANCH  20  21
ATOM     21  N   LIG    1      -31.667  94.873  23.207  0.00  0.00    -0.293 N 
ATOM     22  C   LIG    1      -32.072  94.317  22.013  0.00  0.00    +0.162 A 
ATOM     23  N   LIG    1      -33.304  93.925  21.641  0.00  0.00    -0.235 NA
ATOM     24  C   LIG    1      -33.319  93.410  20.374  0.00  0.00    +0.121 A 
ATOM     25  C   LIG    1      -32.225  93.282  19.507  0.00  0.00    +0.005 A 
ATOM     26  C   LIG    1      -30.978  93.723  19.959  0.00  0.00    +0.041 A 
ATOM     27  C   LIG    1      -30.902  94.247  21.257  0.00  0.00    +0.110 A 
ATOM     28  N   LIG    1      -29.826  94.703  21.946  0.00  0.00    -0.213 NA
ATOM     29  C   LIG    1      -30.303  95.036  23.162  0.00  0.00    +0.195 A 
BRANCH  25  30
ATOM     30  C   LIG    1      -32.352  92.705  18.180  0.00  0.00    +0.021 A 
ATOM     31  C   LIG    1      -33.188  91.662  17.839  0.00  0.00    +0.116 A 
ATOM     32  N   LIG    1      -32.972  91.412  16.513  0.00  0.00    -0.274 N 
ATOM     33  C   LIG    1      -33.619  90.409  15.704  0.00  0.00    +0.172 C 
ATOM     34  N   LIG    1      -32.053  92.222  15.959  0.00  0.00    -0.179 NA
ATOM     35  C   LIG    1      -31.668  93.000  16.975  0.00  0.00    +0.143 A 
ENDBRANCH  25  30
BRANCH  29  36
ATOM     36  N   LIG    1      -29.533  95.459  24.136  0.00  0.00    -0.329 N 
ATOM     37  H   LIG    1      -29.838  95.222  25.077  0.00  0.00    +0.145 HD
ATOM     38  H   LIG    1      -29.158  96.416  24.103  0.00  0.00    +0.145 HD
ENDBRANCH  29  36
ENDBRANCH  20  21
ENDBRANCH   5  20
TORSDOF 9
ENDMDL
MODEL 7
REMARK VINA RESULT:      -5.5     18.657     21.405
REMARK  Name = pdb/CHEMBL3678287.pdb
REMARK                            x       y       z     vdW  Elec       q    Type
REMARK                         _______ _______ _______ _____ _____    ______ ____
ROOT
ATOM      1  C   LIG    1      -18.769  84.078  11.342  0.00  0.00    +0.162 A 
ATOM      2  C   LIG    1      -17.802  84.975  11.821  0.00  0.00    +0.162 A 
ATOM      3  C   LIG    1      -16.875  84.485  12.765  0.00  0.00    +0.050 A 
ATOM      4  C   LIG    1      -16.884  83.151  13.204  0.00  0.00    +0.009 A 
ATOM      5  C   LIG    1      -17.848  82.256  12.732  0.00  0.00    -0.024 A 
ATOM      6  C   LIG    1      -18.784  82.741  11.808  0.00  0.00    +0.054 A 
ENDROOT
BRANCH   1   8
ATOM      7  C   LIG    1      -20.985  84.769  10.949  0.00  0.00    +0.277 C 
ATOM      8  O   LIG    1      -19.766  84.292  10.429  0.00  0.00    -0.491 OA
ENDBRANCH   1   8
BRANCH   2   9
ATOM      9  O   LIG    1      -17.672  86.324  11.623  0.00  0.00    -0.482 OA
BRANCH   9  10
ATOM     10  C   LIG    1      -17.824  87.322  12.638  0.00  0.00    +0.285 C 
BRANCH  10  11
ATOM     11  C   LIG    1      -19.258  87.714  12.771  0.00  0.00    +0.086 A 
ATOM     12  N   LIG    1      -19.827  87.602  14.022  0.00  0.00    -0.237 NA
ATOM     13  C   LIG    1      -21.094  87.962  13.971  0.00  0.00    +0.182 A 
ATOM     14  S   LIG    1      -21.585  88.687  12.486  0.00  0.00    -0.071 S 
ATOM     15  C   LIG    1      -20.042  88.354  11.824  0.00  0.00    +0.074 A 
BRANCH  13  16
ATOM     16  C   LIG    1      -22.078  87.696  15.061  0.00  0.00    +0.441 C 
ATOM     17  F   LIG    1      -22.934  86.684  14.755  0.00  0.00    -0.164 F 
ATOM     18  F   LIG    1      -22.845  88.796  15.300  0.00  0.00    -0.164 F 
ATOM     19  F   LIG    1      -21.494  87.372  16.244  0.00  0.00    -0.164 F 
ENDBRANCH  13  16
ENDBRANCH  10  11
ENDBRANCH   9  10
ENDBRANCH   2   9
BRANCH   5  20
ATOM     20  C   LIG    1      -17.849  80.801  13.151  0.00  0.00    +0.161 C 
BRANCH  20  21
ATOM     21  N   LIG    1      -18.720  80.506  14.290  0.00  0.00    -0.293 N 
ATOM     22  C   LIG    1      -20.027  80.086  14.163  0.00  0.00    +0.162 A 
ATOM     23  N   LIG    1      -20.753  79.916  13.044  0.00  0.00    -0.235 NA
ATOM     24  C   LIG    1      -22.024  79.490  13.315  0.00  0.00    +0.121 A 
ATOM     25  C   LIG    1      -22.572  79.235  14.580  0.00  0.00    +0.005 A 
ATOM     26  C   LIG    1      -21.752  79.422  15.696  0.00  0.00    +0.041 A 
ATOM     27  C   LIG    1      -20.442  79.872  15.477  0.00  0.00    +0.110 A 
ATOM     28  N   LIG    1      -19.467  80.168  16.372  0.00  0.00    -0.213 NA
ATOM     29  C   LIG    1      -18.431  80.606  15.629  0.00  0.00    +0.195 A 
BRANCH  25  30
ATOM     30  C   LIG    1      -23.946  78.797  14.754  0.00  0.00    +0.021 A 
ATOM     31  C   LIG    1      -24.670  78.055  13.844  0.00  0.00    +0.116 A 
ATOM     32  N   LIG    1      -25.915  77.894  14.381  0.00  0.00    -0.274 N 
ATOM     33  C   LIG    1      -27.025  77.183  13.796  0.00  0.00    +0.172 C 
ATOM     34  N   LIG    1      -26.060  78.479  15.582  0.00  0.00    -0.179 NA
ATOM     35  C   LIG    1      -24.866  79.037  15.804  0.00  0.00    +0.143 A 
ENDBRANCH  25  30
BRANCH  29  36
ATOM     36  N   LIG    1      -17.316  81.052  16.157  0.00  0.00    -0.329 N 
ATOM     37  H   LIG    1      -16.470  80.551  15.897  0.00  0.00    +0.145 HD
ATOM     38  H   LIG    1      -17.297  81.310  17.153  0.00  0.00    +0.145 HD
ENDBRANCH  29  36
ENDBRANCH  20  21
ENDBRANCH   5  20
TORSDOF 9
ENDMDL
MODEL 8
REMARK VINA RESULT:      -5.5     16.227     21.055
REMARK  Name = pdb/CHEMBL3678287.pdb
REMARK                            x       y       z     vdW  Elec       q    Type
REMARK                         _______ _______ _______ _____ _____    ______ ____
ROOT
ATOM      1  C   LIG    1      -39.701  75.016  24.318  0.00  0.00    +0.162 A 
ATOM      2  C   LIG    1      -38.356  74.907  24.701  0.00  0.00    +0.162 A 
ATOM      3  C   LIG    1      -37.874  73.619  25.015  0.00  0.00    +0.050 A 
ATOM      4  C   LIG    1      -38.683  72.474  24.933  0.00  0.00    +0.009 A 
ATOM      5  C   LIG    1      -40.024  72.579  24.555  0.00  0.00    -0.024 A 
ATOM      6  C   LIG    1      -40.514  73.858  24.260  0.00  0.00    +0.054 A 
ENDROOT
BRANCH   1   8
ATOM      7  C   LIG    1      -41.555  75.907  23.173  0.00  0.00    +0.277 C 
ATOM      8  O   LIG    1      -40.407  76.132  23.958  0.00  0.00    -0.491 OA
ENDBRANCH   1   8
BRANCH   2   9
ATOM      9  O   LIG    1      -37.426  75.881  24.953  0.00  0.00    -0.482 OA
BRANCH   9  10
ATOM     10  C   LIG    1      -37.291  76.584  26.193  0.00  0.00    +0.285 C 
BRANCH  10  11
ATOM     11  C   LIG    1      -35.993  76.241  26.847  0.00  0.00    +0.086 A 
ATOM     12  N   LIG    1      -35.012  77.209  26.843  0.00  0.00    -0.237 NA
ATOM     13  C   LIG    1      -33.927  76.749  27.434  0.00  0.00    +0.182 A 
ATOM     14  S   LIG    1      -34.124  75.237  28.239  0.00  0.00    -0.071 S 
ATOM     15  C   LIG    1      -35.717  75.126  27.623  0.00  0.00    +0.074 A 
BRANCH  13  16
ATOM     16  C   LIG    1      -32.593  77.412  27.357  0.00  0.00    +0.441 C 
ATOM     17  F   LIG    1      -32.048  77.344  26.113  0.00  0.00    -0.164 F 
ATOM     18  F   LIG    1      -31.707  76.818  28.204  0.00  0.00    -0.164 F 
ATOM     19  F   LIG    1      -32.626  78.727  27.699  0.00  0.00    -0.164 F 
ENDBRANCH  13  16
ENDBRANCH  10  11
ENDBRANCH   9  10
ENDBRANCH   2   9
BRANCH   5  20
ATOM     20  C   LIG    1      -40.904  71.355  24.410  0.00  0.00    +0.161 C 
BRANCH  20  21
ATOM     21  N   LIG    1      -40.819  70.707  23.101  0.00  0.00    -0.293 N 
ATOM     22  C   LIG    1      -39.863  69.770  22.774  0.00  0.00    +0.162 A 
ATOM     23  N   LIG    1      -38.839  69.315  23.518  0.00  0.00    -0.235 NA
ATOM     24  C   LIG    1      -38.091  68.385  22.851  0.00  0.00    +0.121 A 
ATOM     25  C   LIG    1      -38.308  67.910  21.550  0.00  0.00    +0.005 A 
ATOM     26  C   LIG    1      -39.400  68.420  20.842  0.00  0.00    +0.041 A 
ATOM     27  C   LIG    1      -40.194  69.388  21.473  0.00  0.00    +0.110 A 
ATOM     28  N   LIG    1      -41.272  70.065  21.006  0.00  0.00    -0.213 NA
ATOM     29  C   LIG    1      -41.614  70.910  21.998  0.00  0.00    +0.195 A 
BRANCH  25  30
ATOM     30  C   LIG    1      -37.439  66.925  20.930  0.00  0.00    +0.021 A 
ATOM     31  C   LIG    1      -37.683  65.569  20.868  0.00  0.00    +0.116 A 
ATOM     32  N   LIG    1      -36.607  65.011  20.239  0.00  0.00    -0.274 N 
ATOM     33  C   LIG    1      -36.407  63.615  19.939  0.00  0.00    +0.172 C 
ATOM     34  N   LIG    1      -35.672  65.908  19.881  0.00  0.00    -0.179 NA
ATOM     35  C   LIG    1      -36.173  67.070  20.311  0.00  0.00    +0.143 A 
ENDBRANCH  25  30
BRANCH  29  36
ATOM     36  N   LIG    1      -42.584  71.785  21.885  0.00  0.00    -0.329 N 
ATOM     37  H   LIG    1      -42.940  71.934  20.944  0.00  0.00    +0.145 HD
ATOM     38  H   LIG    1      -42.523  72.675  22.397  0.00  0.00    +0.145 HD
ENDBRANCH  29  36
ENDBRANCH  20  21
ENDBRANCH   5  20
TORSDOF 9
ENDMDL
MODEL 9
REMARK VINA RESULT:      -5.4     14.237     17.188
REMARK  Name = pdb/CHEMBL3678287.pdb
REMARK                            x       y       z     vdW  Elec       q    Type
REMARK                         _______ _______ _______ _____ _____    ______ ____
ROOT
ATOM      1  C   LIG    1      -35.809  70.145  25.859  0.00  0.00    +0.162 A 
ATOM      2  C   LIG    1      -34.891  69.198  25.380  0.00  0.00    +0.162 A 
ATOM      3  C   LIG    1      -33.769  68.917  26.188  0.00  0.00    +0.050 A 
ATOM      4  C   LIG    1      -33.569  69.530  27.435  0.00  0.00    +0.009 A 
ATOM      5  C   LIG    1      -34.479  70.476  27.914  0.00  0.00    -0.024 A 
ATOM      6  C   LIG    1      -35.587  70.773  27.108  0.00  0.00    +0.054 A 
ENDROOT
BRANCH   1   8
ATOM      7  C   LIG    1      -37.355  71.903  25.611  0.00  0.00    +0.277 C 
ATOM      8  O   LIG    1      -36.970  70.588  25.285  0.00  0.00    -0.491 OA
ENDBRANCH   1   8
BRANCH   2   9
ATOM      9  O   LIG    1      -34.824  68.567  24.166  0.00  0.00    -0.482 OA
BRANCH   9  10
ATOM     10  C   LIG    1      -35.615  67.437  23.784  0.00  0.00    +0.285 C 
BRANCH  10  11
ATOM     11  C   LIG    1      -36.530  67.798  22.660  0.00  0.00    +0.086 A 
ATOM     12  N   LIG    1      -37.723  68.402  22.992  0.00  0.00    -0.237 NA
ATOM     13  C   LIG    1      -38.425  68.636  21.900  0.00  0.00    +0.182 A 
ATOM     14  S   LIG    1      -37.578  68.374  20.422  0.00  0.00    -0.071 S 
ATOM     15  C   LIG    1      -36.244  67.764  21.305  0.00  0.00    +0.074 A 
BRANCH  13  16
ATOM     16  C   LIG    1      -39.869  69.011  21.904  0.00  0.00    +0.441 C 
ATOM     17  F   LIG    1      -40.065  70.327  22.186  0.00  0.00    -0.164 F 
ATOM     18  F   LIG    1      -40.551  68.304  22.848  0.00  0.00    -0.164 F 
ATOM     19  F   LIG    1      -40.491  68.767  20.721  0.00  0.00    -0.164 F 
ENDBRANCH  13  16
ENDBRANCH  10  11
ENDBRANCH   9  10
ENDBRANCH   2   9
BRANCH   5  20
ATOM     20  C   LIG    1      -34.314  71.114  29.277  0.00  0.00    +0.161 C 
BRANCH  20  21
ATOM     21  N   LIG    1      -33.341  72.207  29.314  0.00  0.00    -0.293 N 
ATOM     22  C   LIG    1      -33.605  73.480  28.856  0.00  0.00    +0.162 A 
ATOM     23  N   LIG    1      -34.720  73.950  28.269  0.00  0.00    -0.235 NA
ATOM     24  C   LIG    1      -34.611  75.274  27.943  0.00  0.00    +0.121 A 
ATOM     25  C   LIG    1      -33.504  76.105  28.167  0.00  0.00    +0.005 A 
ATOM     26  C   LIG    1      -32.386  75.548  28.793  0.00  0.00    +0.041 A 
ATOM     27  C   LIG    1      -32.437  74.190  29.137  0.00  0.00    +0.110 A 
ATOM     28  N   LIG    1      -31.492  73.403  29.709  0.00  0.00    -0.213 NA
ATOM     29  C   LIG    1      -32.043  72.175  29.763  0.00  0.00    +0.195 A 
BRANCH  25  30
ATOM     30  C   LIG    1      -33.490  77.501  27.766  0.00  0.00    +0.021 A 
ATOM     31  C   LIG    1      -34.343  78.477  28.238  0.00  0.00    +0.116 A 
ATOM     32  N   LIG    1      -34.014  79.628  27.580  0.00  0.00    -0.274 N 
ATOM     33  C   LIG    1      -34.628  80.923  27.741  0.00  0.00    +0.172 C 
ATOM     34  N   LIG    1      -33.002  79.476  26.709  0.00  0.00    -0.179 NA
ATOM     35  C   LIG    1      -32.691  78.180  26.814  0.00  0.00    +0.143 A 
ENDBRANCH  25  30
BRANCH  29  36
ATOM     36  N   LIG    1      -31.392  71.122  30.199  0.00  0.00    -0.329 N 
ATOM     37  H   LIG    1      -30.928  71.228  31.098  0.00  0.00    +0.145 HD
ATOM     38  H   LIG    1      -30.808  70.584  29.546  0.00  0.00    +0.145 HD
ENDBRANCH  29  36
ENDBRANCH  20  21
ENDBRANCH   5  20
TORSDOF 9
ENDMDL
