MODEL 1
REMARK VINA RESULT:      -6.8      0.000      0.000
REMARK  Name = pdb/CHEMBL3900941.pdb
REMARK                            x       y       z     vdW  Elec       q    Type
REMARK                         _______ _______ _______ _____ _____    ______ ____
ROOT
ATOM      1  C   LIG    1      -29.982  75.485  31.175  0.00  0.00    +0.149 A 
ATOM      2  N   LIG    1      -31.071  76.007  30.585  0.00  0.00    -0.160 NA
ATOM      3  N   LIG    1      -31.795  74.945  30.163  0.00  0.00    -0.218 N 
ATOM      4  C   LIG    1      -31.204  73.743  30.545  0.00  0.00    +0.129 A 
ATOM      5  C   LIG    1      -30.070  74.082  31.241  0.00  0.00    +0.078 A 
ENDROOT
BRANCH   3   6
ATOM      6  C   LIG    1      -32.984  75.157  29.409  0.00  0.00    +0.067 A 
ATOM      7  C   LIG    1      -32.906  75.889  28.212  0.00  0.00    +0.028 A 
ATOM      8  C   LIG    1      -34.048  76.091  27.436  0.00  0.00    +0.002 A 
ATOM      9  C   LIG    1      -35.267  75.546  27.833  0.00  0.00    +0.000 A 
ATOM     10  C   LIG    1      -35.350  74.813  29.016  0.00  0.00    +0.002 A 
ATOM     11  C   LIG    1      -34.214  74.619  29.809  0.00  0.00    +0.028 A 
ENDBRANCH   3   6
BRANCH   4  12
ATOM     12  N   LIG    1      -31.692  72.455  30.360  0.00  0.00    -0.266 N 
ATOM     13  H   LIG    1      -32.602  72.242  30.754  0.00  0.00    +0.157 HD
ATOM     14  C   LIG    1      -30.969  71.418  29.687  0.00  0.00    +0.251 C 
ATOM     15  O   LIG    1      -29.880  71.637  29.157  0.00  0.00    -0.270 OA
BRANCH  14  16
ATOM     16  C   LIG    1      -31.626  70.106  29.572  0.00  0.00    +0.056 A 
ATOM     17  C   LIG    1      -31.324  69.024  30.405  0.00  0.00    +0.056 A 
ATOM     18 CL   LIG    1      -30.130  69.069  31.650  0.00  0.00    -0.083 Cl
ATOM     19  C   LIG    1      -32.002  67.826  30.240  0.00  0.00    +0.059 A 
ATOM     20  C   LIG    1      -32.976  67.696  29.252  0.00  0.00    +0.134 A 
ATOM     21  F   LIG    1      -33.572  66.500  29.176  0.00  0.00    -0.205 F 
ATOM     22  C   LIG    1      -33.325  68.751  28.393  0.00  0.00    +0.036 A 
ATOM     23  C   LIG    1      -32.613  69.957  28.576  0.00  0.00    +0.027 A 
BRANCH  22  24
ATOM     24  C   LIG    1      -34.394  68.656  27.369  0.00  0.00    +0.074 A 
ATOM     25  N   LIG    1      -34.011  68.103  26.186  0.00  0.00    -0.255 NA
ATOM     26  C   LIG    1      -34.919  68.023  25.187  0.00  0.00    +0.111 A 
ATOM     27  C   LIG    1      -36.219  68.477  25.294  0.00  0.00    +0.020 A 
ATOM     28  C   LIG    1      -36.613  69.032  26.500  0.00  0.00    +0.004 A 
ATOM     29  C   LIG    1      -35.697  69.119  27.544  0.00  0.00    +0.028 A 
ENDBRANCH  22  24
ENDBRANCH  14  16
ENDBRANCH   4  12
BRANCH   1  30
ATOM     30  C   LIG    1      -28.885  76.302  31.677  0.00  0.00    +0.236 C 
ATOM     31  N   LIG    1      -27.928  75.746  32.332  0.00  0.00    -0.243 NA
BRANCH  30  32
ATOM     32  O   LIG    1      -29.004  77.611  31.391  0.00  0.00    -0.491 OA
ATOM     33  H   LIG    1      -28.145  77.981  31.116  0.00  0.00    +0.294 HD
ENDBRANCH  30  32
BRANCH  31  34
ATOM     34  C   LIG    1      -26.806  76.535  32.857  0.00  0.00    +0.200 C 
BRANCH  34  35
ATOM     35  C   LIG    1      -25.692  76.780  31.859  0.00  0.00    +0.063 A 
ATOM     36  N   LIG    1      -25.739  77.972  31.205  0.00  0.00    -0.254 NA
ATOM     37  C   LIG    1      -24.826  78.195  30.233  0.00  0.00    +0.156 A 
ATOM     38  C   LIG    1      -23.826  77.301  29.912  0.00  0.00    +0.135 A 
ATOM     39  C   LIG    1      -23.745  76.113  30.625  0.00  0.00    +0.049 A 
ATOM     40  C   LIG    1      -24.696  75.841  31.611  0.00  0.00    +0.029 A 
BRANCH  38  41
ATOM     41  O   LIG    1      -22.960  77.612  28.912  0.00  0.00    -0.505 OA
ATOM     42  H   LIG    1      -23.413  78.180  28.268  0.00  0.00    +0.292 HD
ENDBRANCH  38  41
ENDBRANCH  34  35
ENDBRANCH  31  34
ENDBRANCH   1  30
TORSDOF 9
ENDMDL
MODEL 2
REMARK VINA RESULT:      -6.8      7.974     10.142
REMARK  Name = pdb/CHEMBL3900941.pdb
REMARK                            x       y       z     vdW  Elec       q    Type
REMARK                         _______ _______ _______ _____ _____    ______ ____
ROOT
ATOM      1  C   LIG    1      -35.090  82.127  29.503  0.00  0.00    +0.149 A 
ATOM      2  N   LIG    1      -34.153  81.199  29.244  0.00  0.00    -0.160 NA
ATOM      3  N   LIG    1      -34.718  80.360  28.346  0.00  0.00    -0.218 N 
ATOM      4  C   LIG    1      -35.991  80.791  27.978  0.00  0.00    +0.129 A 
ATOM      5  C   LIG    1      -36.214  81.952  28.676  0.00  0.00    +0.078 A 
ENDROOT
BRANCH   3   6
ATOM      6  C   LIG    1      -34.010  79.199  27.923  0.00  0.00    +0.067 A 
ATOM      7  C   LIG    1      -34.440  77.941  28.376  0.00  0.00    +0.028 A 
ATOM      8  C   LIG    1      -33.784  76.781  27.959  0.00  0.00    +0.002 A 
ATOM      9  C   LIG    1      -32.715  76.867  27.070  0.00  0.00    +0.000 A 
ATOM     10  C   LIG    1      -32.288  78.112  26.611  0.00  0.00    +0.002 A 
ATOM     11  C   LIG    1      -32.929  79.280  27.036  0.00  0.00    +0.028 A 
ENDBRANCH   3   6
BRANCH   4  12
ATOM     12  N   LIG    1      -36.840  80.233  27.030  0.00  0.00    -0.266 N 
ATOM     13  H   LIG    1      -36.736  80.549  26.072  0.00  0.00    +0.157 HD
ATOM     14  C   LIG    1      -37.864  79.281  27.339  0.00  0.00    +0.251 C 
ATOM     15  O   LIG    1      -38.003  78.837  28.478  0.00  0.00    -0.270 OA
BRANCH  14  16
ATOM     16  C   LIG    1      -38.680  78.783  26.219  0.00  0.00    +0.056 A 
ATOM     17  C   LIG    1      -39.396  79.625  25.362  0.00  0.00    +0.056 A 
ATOM     18 CL   LIG    1      -39.447  81.343  25.517  0.00  0.00    -0.083 Cl
ATOM     19  C   LIG    1      -40.127  79.076  24.320  0.00  0.00    +0.059 A 
ATOM     20  C   LIG    1      -40.152  77.696  24.126  0.00  0.00    +0.134 A 
ATOM     21  F   LIG    1      -40.886  77.267  23.091  0.00  0.00    -0.205 F 
ATOM     22  C   LIG    1      -39.446  76.805  24.950  0.00  0.00    +0.036 A 
ATOM     23  C   LIG    1      -38.717  77.390  26.010  0.00  0.00    +0.027 A 
BRANCH  22  24
ATOM     24  C   LIG    1      -39.412  75.338  24.734  0.00  0.00    +0.074 A 
ATOM     25  N   LIG    1      -38.272  74.721  25.145  0.00  0.00    -0.255 NA
ATOM     26  C   LIG    1      -38.148  73.389  24.940  0.00  0.00    +0.111 A 
ATOM     27  C   LIG    1      -39.115  72.614  24.331  0.00  0.00    +0.020 A 
ATOM     28  C   LIG    1      -40.281  73.239  23.921  0.00  0.00    +0.004 A 
ATOM     29  C   LIG    1      -40.432  74.608  24.126  0.00  0.00    +0.028 A 
ENDBRANCH  22  24
ENDBRANCH  14  16
ENDBRANCH   4  12
BRANCH   1  30
ATOM     30  C   LIG    1      -34.917  83.167  30.510  0.00  0.00    +0.236 C 
ATOM     31  N   LIG    1      -33.732  83.554  30.824  0.00  0.00    -0.243 NA
BRANCH  30  32
ATOM     32  O   LIG    1      -36.071  83.622  31.028  0.00  0.00    -0.491 OA
ATOM     33  H   LIG    1      -36.124  84.593  30.947  0.00  0.00    +0.294 HD
ENDBRANCH  30  32
BRANCH  31  34
ATOM     34  C   LIG    1      -33.515  84.597  31.835  0.00  0.00    +0.200 C 
BRANCH  34  35
ATOM     35  C   LIG    1      -32.779  85.820  31.325  0.00  0.00    +0.063 A 
ATOM     36  N   LIG    1      -33.565  86.859  30.932  0.00  0.00    -0.254 NA
ATOM     37  C   LIG    1      -32.961  87.933  30.376  0.00  0.00    +0.156 A 
ATOM     38  C   LIG    1      -31.593  88.046  30.237  0.00  0.00    +0.135 A 
ATOM     39  C   LIG    1      -30.792  87.010  30.696  0.00  0.00    +0.049 A 
ATOM     40  C   LIG    1      -31.391  85.873  31.243  0.00  0.00    +0.029 A 
BRANCH  38  41
ATOM     41  O   LIG    1      -31.080  89.162  29.656  0.00  0.00    -0.505 OA
ATOM     42  H   LIG    1      -30.117  89.062  29.576  0.00  0.00    +0.292 HD
ENDBRANCH  38  41
ENDBRANCH  34  35
ENDBRANCH  31  34
ENDBRANCH   1  30
TORSDOF 9
ENDMDL
MODEL 3
REMARK VINA RESULT:      -6.7     17.253     21.001
REMARK  Name = pdb/CHEMBL3900941.pdb
REMARK                            x       y       z     vdW  Elec       q    Type
REMARK                         _______ _______ _______ _____ _____    ______ ____
ROOT
ATOM      1  C   LIG    1      -26.271  77.760  14.165  0.00  0.00    +0.149 A 
ATOM      2  N   LIG    1      -25.134  77.822  14.879  0.00  0.00    -0.160 NA
ATOM      3  N   LIG    1      -24.624  79.050  14.635  0.00  0.00    -0.218 N 
ATOM      4  C   LIG    1      -25.468  79.799  13.819  0.00  0.00    +0.129 A 
ATOM      5  C   LIG    1      -26.552  78.998  13.559  0.00  0.00    +0.078 A 
ENDROOT
BRANCH   3   6
ATOM      6  C   LIG    1      -23.357  79.408  15.180  0.00  0.00    +0.067 A 
ATOM      7  C   LIG    1      -23.285  80.491  16.071  0.00  0.00    +0.028 A 
ATOM      8  C   LIG    1      -22.063  80.851  16.643  0.00  0.00    +0.002 A 
ATOM      9  C   LIG    1      -20.915  80.119  16.352  0.00  0.00    +0.000 A 
ATOM     10  C   LIG    1      -20.981  79.038  15.474  0.00  0.00    +0.002 A 
ATOM     11  C   LIG    1      -22.197  78.680  14.884  0.00  0.00    +0.028 A 
ENDBRANCH   3   6
BRANCH   4  12
ATOM     12  N   LIG    1      -25.317  81.122  13.420  0.00  0.00    -0.266 N 
ATOM     13  H   LIG    1      -25.873  81.818  13.902  0.00  0.00    +0.157 HD
ATOM     14  C   LIG    1      -24.459  81.538  12.351  0.00  0.00    +0.251 C 
ATOM     15  O   LIG    1      -23.733  80.736  11.763  0.00  0.00    -0.270 OA
BRANCH  14  16
ATOM     16  C   LIG    1      -24.408  82.978  12.051  0.00  0.00    +0.056 A 
ATOM     17  C   LIG    1      -25.292  83.606  11.168  0.00  0.00    +0.056 A 
ATOM     18 CL   LIG    1      -26.531  82.782  10.293  0.00  0.00    -0.083 Cl
ATOM     19  C   LIG    1      -25.186  84.971  10.953  0.00  0.00    +0.059 A 
ATOM     20  C   LIG    1      -24.208  85.715  11.609  0.00  0.00    +0.134 A 
ATOM     21  F   LIG    1      -24.191  87.026  11.334  0.00  0.00    -0.205 F 
ATOM     22  C   LIG    1      -23.300  85.139  12.512  0.00  0.00    +0.036 A 
ATOM     23  C   LIG    1      -23.423  83.745  12.705  0.00  0.00    +0.027 A 
BRANCH  22  24
ATOM     24  C   LIG    1      -22.284  85.916  13.263  0.00  0.00    +0.074 A 
ATOM     25  N   LIG    1      -21.017  85.828  12.777  0.00  0.00    -0.255 NA
ATOM     26  C   LIG    1      -20.027  86.474  13.435  0.00  0.00    +0.111 A 
ATOM     27  C   LIG    1      -20.226  87.217  14.582  0.00  0.00    +0.020 A 
ATOM     28  C   LIG    1      -21.517  87.314  15.073  0.00  0.00    +0.004 A 
ATOM     29  C   LIG    1      -22.552  86.663  14.409  0.00  0.00    +0.028 A 
ENDBRANCH  22  24
ENDBRANCH  14  16
ENDBRANCH   4  12
BRANCH   1  30
ATOM     30  C   LIG    1      -27.081  76.552  14.069  0.00  0.00    +0.236 C 
ATOM     31  N   LIG    1      -26.514  75.400  14.147  0.00  0.00    -0.243 NA
BRANCH  30  32
ATOM     32  O   LIG    1      -28.393  76.788  13.893  0.00  0.00    -0.491 OA
ATOM     33  H   LIG    1      -28.563  77.745  13.824  0.00  0.00    +0.294 HD
ENDBRANCH  30  32
BRANCH  31  34
ATOM     34  C   LIG    1      -27.294  74.160  14.052  0.00  0.00    +0.200 C 
BRANCH  34  35
ATOM     35  C   LIG    1      -26.888  73.087  15.042  0.00  0.00    +0.063 A 
ATOM     36  N   LIG    1      -25.639  73.214  15.568  0.00  0.00    -0.254 NA
ATOM     37  C   LIG    1      -25.193  72.228  16.378  0.00  0.00    +0.156 A 
ATOM     38  C   LIG    1      -25.955  71.134  16.734  0.00  0.00    +0.135 A 
ATOM     39  C   LIG    1      -27.250  71.041  16.244  0.00  0.00    +0.049 A 
ATOM     40  C   LIG    1      -27.726  72.028  15.377  0.00  0.00    +0.029 A 
BRANCH  38  41
ATOM     41  O   LIG    1      -25.414  70.190  17.548  0.00  0.00    -0.505 OA
ATOM     42  H   LIG    1      -24.520  70.471  17.806  0.00  0.00    +0.292 HD
ENDBRANCH  38  41
ENDBRANCH  34  35
ENDBRANCH  31  34
ENDBRANCH   1  30
TORSDOF 9
ENDMDL
MODEL 4
REMARK VINA RESULT:      -6.7      7.195     10.026
REMARK  Name = pdb/CHEMBL3900941.pdb
REMARK                            x       y       z     vdW  Elec       q    Type
REMARK                         _______ _______ _______ _____ _____    ______ ____
ROOT
ATOM      1  C   LIG    1      -37.368  79.946  27.837  0.00  0.00    +0.149 A 
ATOM      2  N   LIG    1      -36.240  79.253  28.067  0.00  0.00    -0.160 NA
ATOM      3  N   LIG    1      -36.511  77.987  27.678  0.00  0.00    -0.218 N 
ATOM      4  C   LIG    1      -37.789  77.884  27.134  0.00  0.00    +0.129 A 
ATOM      5  C   LIG    1      -38.325  79.148  27.183  0.00  0.00    +0.078 A 
ENDROOT
BRANCH   3   6
ATOM      6  C   LIG    1      -35.538  76.966  27.875  0.00  0.00    +0.067 A 
ATOM      7  C   LIG    1      -35.865  75.866  28.685  0.00  0.00    +0.028 A 
ATOM      8  C   LIG    1      -34.943  74.835  28.877  0.00  0.00    +0.002 A 
ATOM      9  C   LIG    1      -33.704  74.881  28.242  0.00  0.00    +0.000 A 
ATOM     10  C   LIG    1      -33.376  75.966  27.430  0.00  0.00    +0.002 A 
ATOM     11  C   LIG    1      -34.287  77.011  27.246  0.00  0.00    +0.028 A 
ENDBRANCH   3   6
BRANCH   4  12
ATOM     12  N   LIG    1      -38.386  76.768  26.561  0.00  0.00    -0.266 N 
ATOM     13  H   LIG    1      -39.098  76.293  27.104  0.00  0.00    +0.157 HD
ATOM     14  C   LIG    1      -38.023  76.239  25.281  0.00  0.00    +0.251 C 
ATOM     15  O   LIG    1      -37.195  76.803  24.566  0.00  0.00    -0.270 OA
BRANCH  14  16
ATOM     16  C   LIG    1      -38.753  75.050  24.813  0.00  0.00    +0.056 A 
ATOM     17  C   LIG    1      -40.002  75.117  24.185  0.00  0.00    +0.056 A 
ATOM     18 CL   LIG    1      -40.862  76.586  23.905  0.00  0.00    -0.083 Cl
ATOM     19  C   LIG    1      -40.615  73.949  23.760  0.00  0.00    +0.059 A 
ATOM     20  C   LIG    1      -39.997  72.716  23.955  0.00  0.00    +0.134 A 
ATOM     21  F   LIG    1      -40.671  71.650  23.505  0.00  0.00    -0.205 F 
ATOM     22  C   LIG    1      -38.741  72.590  24.571  0.00  0.00    +0.036 A 
ATOM     23  C   LIG    1      -38.143  73.794  25.004  0.00  0.00    +0.027 A 
BRANCH  22  24
ATOM     24  C   LIG    1      -38.037  71.295  24.743  0.00  0.00    +0.074 A 
ATOM     25  N   LIG    1      -37.567  71.058  25.997  0.00  0.00    -0.255 NA
ATOM     26  C   LIG    1      -36.875  69.917  26.222  0.00  0.00    +0.111 A 
ATOM     27  C   LIG    1      -36.611  68.976  25.247  0.00  0.00    +0.020 A 
ATOM     28  C   LIG    1      -37.097  69.212  23.972  0.00  0.00    +0.004 A 
ATOM     29  C   LIG    1      -37.816  70.376  23.718  0.00  0.00    +0.028 A 
ENDBRANCH  22  24
ENDBRANCH  14  16
ENDBRANCH   4  12
BRANCH   1  30
ATOM     30  C   LIG    1      -37.532  81.343  28.220  0.00  0.00    +0.236 C 
ATOM     31  N   LIG    1      -36.507  82.120  28.238  0.00  0.00    -0.243 NA
BRANCH  30  32
ATOM     32  O   LIG    1      -38.796  81.678  28.535  0.00  0.00    -0.491 OA
ATOM     33  H   LIG    1      -38.891  82.648  28.583  0.00  0.00    +0.294 HD
ENDBRANCH  30  32
BRANCH  31  34
ATOM     34  C   LIG    1      -36.629  83.532  28.621  0.00  0.00    +0.200 C 
BRANCH  34  35
ATOM     35  C   LIG    1      -36.617  84.501  27.455  0.00  0.00    +0.063 A 
ATOM     36  N   LIG    1      -35.915  84.097  26.362  0.00  0.00    -0.254 NA
ATOM     37  C   LIG    1      -35.791  84.968  25.335  0.00  0.00    +0.156 A 
ATOM     38  C   LIG    1      -36.380  86.215  25.322  0.00  0.00    +0.135 A 
ATOM     39  C   LIG    1      -37.146  86.597  26.414  0.00  0.00    +0.049 A 
ATOM     40  C   LIG    1      -37.264  85.732  27.504  0.00  0.00    +0.029 A 
BRANCH  38  41
ATOM     41  O   LIG    1      -36.189  87.023  24.247  0.00  0.00    -0.505 OA
ATOM     42  H   LIG    1      -35.276  87.356  24.260  0.00  0.00    +0.292 HD
ENDBRANCH  38  41
ENDBRANCH  34  35
ENDBRANCH  31  34
ENDBRANCH   1  30
TORSDOF 9
ENDMDL
MODEL 5
REMARK VINA RESULT:      -6.6     11.527     15.247
REMARK  Name = pdb/CHEMBL3900941.pdb
REMARK                            x       y       z     vdW  Elec       q    Type
REMARK                         _______ _______ _______ _____ _____    ______ ____
ROOT
ATOM      1  C   LIG    1      -24.017  82.882  37.211  0.00  0.00    +0.149 A 
ATOM      2  N   LIG    1      -22.998  83.254  38.004  0.00  0.00    -0.160 NA
ATOM      3  N   LIG    1      -21.915  82.598  37.528  0.00  0.00    -0.218 N 
ATOM      4  C   LIG    1      -22.227  81.861  36.388  0.00  0.00    +0.129 A 
ATOM      5  C   LIG    1      -23.561  82.082  36.147  0.00  0.00    +0.078 A 
ENDROOT
BRANCH   3   6
ATOM      6  C   LIG    1      -20.669  82.707  38.210  0.00  0.00    +0.067 A 
ATOM      7  C   LIG    1      -20.018  83.951  38.238  0.00  0.00    +0.028 A 
ATOM      8  C   LIG    1      -18.809  84.097  38.920  0.00  0.00    +0.002 A 
ATOM      9  C   LIG    1      -18.256  83.014  39.599  0.00  0.00    +0.000 A 
ATOM     10  C   LIG    1      -18.901  81.778  39.581  0.00  0.00    +0.002 A 
ATOM     11  C   LIG    1      -20.104  81.618  38.886  0.00  0.00    +0.028 A 
ENDBRANCH   3   6
BRANCH   4  12
ATOM     12  N   LIG    1      -21.364  81.126  35.584  0.00  0.00    -0.266 N 
ATOM     13  H   LIG    1      -20.962  81.598  34.782  0.00  0.00    +0.157 HD
ATOM     14  C   LIG    1      -21.052  79.746  35.805  0.00  0.00    +0.251 C 
ATOM     15  O   LIG    1      -21.482  79.141  36.787  0.00  0.00    -0.270 OA
BRANCH  14  16
ATOM     16  C   LIG    1      -20.117  79.109  34.863  0.00  0.00    +0.056 A 
ATOM     17  C   LIG    1      -18.758  78.925  35.142  0.00  0.00    +0.056 A 
ATOM     18 CL   LIG    1      -17.994  79.442  36.601  0.00  0.00    -0.083 Cl
ATOM     19  C   LIG    1      -17.948  78.302  34.206  0.00  0.00    +0.059 A 
ATOM     20  C   LIG    1      -18.478  77.861  32.996  0.00  0.00    +0.134 A 
ATOM     21  F   LIG    1      -17.613  77.269  32.162  0.00  0.00    -0.205 F 
ATOM     22  C   LIG    1      -19.835  78.012  32.666  0.00  0.00    +0.036 A 
ATOM     23  C   LIG    1      -20.636  78.659  33.633  0.00  0.00    +0.027 A 
BRANCH  22  24
ATOM     24  C   LIG    1      -20.436  77.505  31.408  0.00  0.00    +0.074 A 
ATOM     25  N   LIG    1      -21.744  77.143  31.499  0.00  0.00    -0.255 NA
ATOM     26  C   LIG    1      -22.350  76.630  30.404  0.00  0.00    +0.111 A 
ATOM     27  C   LIG    1      -21.714  76.444  29.192  0.00  0.00    +0.020 A 
ATOM     28  C   LIG    1      -20.385  76.820  29.095  0.00  0.00    +0.004 A 
ATOM     29  C   LIG    1      -19.743  77.356  30.208  0.00  0.00    +0.028 A 
ENDBRANCH  22  24
ENDBRANCH  14  16
ENDBRANCH   4  12
BRANCH   1  30
ATOM     30  C   LIG    1      -25.396  83.289  37.451  0.00  0.00    +0.236 C 
ATOM     31  N   LIG    1      -25.978  84.079  36.620  0.00  0.00    -0.243 NA
BRANCH  30  32
ATOM     32  O   LIG    1      -25.930  82.772  38.572  0.00  0.00    -0.491 OA
ATOM     33  H   LIG    1      -25.452  83.095  39.359  0.00  0.00    +0.294 HD
ENDBRANCH  30  32
BRANCH  31  34
ATOM     34  C   LIG    1      -27.365  84.515  36.828  0.00  0.00    +0.200 C 
BRANCH  34  35
ATOM     35  C   LIG    1      -27.889  85.462  35.767  0.00  0.00    +0.063 A 
ATOM     36  N   LIG    1      -27.001  86.389  35.315  0.00  0.00    -0.254 NA
ATOM     37  C   LIG    1      -27.450  87.320  34.443  0.00  0.00    +0.156 A 
ATOM     38  C   LIG    1      -28.740  87.344  33.956  0.00  0.00    +0.135 A 
ATOM     39  C   LIG    1      -29.625  86.359  34.373  0.00  0.00    +0.049 A 
ATOM     40  C   LIG    1      -29.198  85.404  35.300  0.00  0.00    +0.029 A 
BRANCH  38  41
ATOM     41  O   LIG    1      -29.099  88.326  33.089  0.00  0.00    -0.505 OA
ATOM     42  H   LIG    1      -29.660  88.969  33.554  0.00  0.00    +0.292 HD
ENDBRANCH  38  41
ENDBRANCH  34  35
ENDBRANCH  31  34
ENDBRANCH   1  30
TORSDOF 9
ENDMDL
MODEL 6
REMARK VINA RESULT:      -6.6     17.474     19.238
REMARK  Name = pdb/CHEMBL3900941.pdb
REMARK                            x       y       z     vdW  Elec       q    Type
REMARK                         _______ _______ _______ _____ _____    ______ ____
ROOT
ATOM      1  C   LIG    1      -22.955  81.663  15.319  0.00  0.00    +0.149 A 
ATOM      2  N   LIG    1      -22.118  80.613  15.373  0.00  0.00    -0.160 NA
ATOM      3  N   LIG    1      -22.789  79.589  14.801  0.00  0.00    -0.218 N 
ATOM      4  C   LIG    1      -24.029  80.000  14.317  0.00  0.00    +0.129 A 
ATOM      5  C   LIG    1      -24.119  81.341  14.598  0.00  0.00    +0.078 A 
ENDROOT
BRANCH   3   6
ATOM      6  C   LIG    1      -22.206  78.289  14.777  0.00  0.00    +0.067 A 
ATOM      7  C   LIG    1      -20.936  78.127  14.199  0.00  0.00    +0.028 A 
ATOM      8  C   LIG    1      -20.326  76.871  14.184  0.00  0.00    +0.002 A 
ATOM      9  C   LIG    1      -20.964  75.779  14.767  0.00  0.00    +0.000 A 
ATOM     10  C   LIG    1      -22.221  75.935  15.349  0.00  0.00    +0.002 A 
ATOM     11  C   LIG    1      -22.847  77.186  15.355  0.00  0.00    +0.028 A 
ENDBRANCH   3   6
BRANCH   4  12
ATOM     12  N   LIG    1      -24.958  79.252  13.605  0.00  0.00    -0.266 N 
ATOM     13  H   LIG    1      -24.890  79.267  12.594  0.00  0.00    +0.157 HD
ATOM     14  C   LIG    1      -26.016  78.504  14.217  0.00  0.00    +0.251 C 
ATOM     15  O   LIG    1      -26.116  78.420  15.441  0.00  0.00    -0.270 OA
BRANCH  14  16
ATOM     16  C   LIG    1      -26.918  77.760  13.323  0.00  0.00    +0.056 A 
ATOM     17  C   LIG    1      -26.854  76.373  13.155  0.00  0.00    +0.056 A 
ATOM     18 CL   LIG    1      -25.701  75.358  13.940  0.00  0.00    -0.083 Cl
ATOM     19  C   LIG    1      -27.753  75.747  12.305  0.00  0.00    +0.059 A 
ATOM     20  C   LIG    1      -28.712  76.490  11.621  0.00  0.00    +0.134 A 
ATOM     21  F   LIG    1      -29.534  75.791  10.827  0.00  0.00    -0.205 F 
ATOM     22  C   LIG    1      -28.827  77.883  11.758  0.00  0.00    +0.036 A 
ATOM     23  C   LIG    1      -27.894  78.497  12.622  0.00  0.00    +0.027 A 
BRANCH  22  24
ATOM     24  C   LIG    1      -29.872  78.691  11.083  0.00  0.00    +0.074 A 
ATOM     25  N   LIG    1      -30.912  79.067  11.876  0.00  0.00    -0.255 NA
ATOM     26  C   LIG    1      -31.926  79.769  11.321  0.00  0.00    +0.111 A 
ATOM     27  C   LIG    1      -31.973  80.125   9.987  0.00  0.00    +0.020 A 
ATOM     28  C   LIG    1      -30.912  79.751   9.181  0.00  0.00    +0.004 A 
ATOM     29  C   LIG    1      -29.854  79.033   9.732  0.00  0.00    +0.028 A 
ENDBRANCH  22  24
ENDBRANCH  14  16
ENDBRANCH   4  12
BRANCH   1  30
ATOM     30  C   LIG    1      -22.651  82.951  15.930  0.00  0.00    +0.236 C 
ATOM     31  N   LIG    1      -22.780  84.027  15.239  0.00  0.00    -0.243 NA
BRANCH  30  32
ATOM     32  O   LIG    1      -22.243  82.865  17.209  0.00  0.00    -0.491 OA
ATOM     33  H   LIG    1      -21.774  83.678  17.474  0.00  0.00    +0.294 HD
ENDBRANCH  30  32
BRANCH  31  34
ATOM     34  C   LIG    1      -22.481  85.344  15.817  0.00  0.00    +0.200 C 
BRANCH  34  35
ATOM     35  C   LIG    1      -21.890  86.338  14.838  0.00  0.00    +0.063 A 
ATOM     36  N   LIG    1      -20.910  85.855  14.027  0.00  0.00    -0.254 NA
ATOM     37  C   LIG    1      -20.283  86.727  13.207  0.00  0.00    +0.156 A 
ATOM     38  C   LIG    1      -20.621  88.062  13.116  0.00  0.00    +0.135 A 
ATOM     39  C   LIG    1      -21.664  88.536  13.900  0.00  0.00    +0.049 A 
ATOM     40  C   LIG    1      -22.307  87.664  14.783  0.00  0.00    +0.029 A 
BRANCH  38  41
ATOM     41  O   LIG    1      -19.925  88.862  12.267  0.00  0.00    -0.505 OA
ATOM     42  H   LIG    1      -19.592  88.326  11.529  0.00  0.00    +0.292 HD
ENDBRANCH  38  41
ENDBRANCH  34  35
ENDBRANCH  31  34
ENDBRANCH   1  30
TORSDOF 9
ENDMDL
MODEL 7
REMARK VINA RESULT:      -6.6      6.012     13.084
REMARK  Name = pdb/CHEMBL3900941.pdb
REMARK                            x       y       z     vdW  Elec       q    Type
REMARK                         _______ _______ _______ _____ _____    ______ ____
ROOT
ATOM      1  C   LIG    1      -27.471  75.843  32.226  0.00  0.00    +0.149 A 
ATOM      2  N   LIG    1      -26.406  75.493  31.484  0.00  0.00    -0.160 NA
ATOM      3  N   LIG    1      -25.451  76.403  31.776  0.00  0.00    -0.218 N 
ATOM      4  C   LIG    1      -25.879  77.296  32.756  0.00  0.00    +0.129 A 
ATOM      5  C   LIG    1      -27.155  76.909  33.088  0.00  0.00    +0.078 A 
ENDROOT
BRANCH   3   6
ATOM      6  C   LIG    1      -24.208  76.368  31.081  0.00  0.00    +0.067 A 
ATOM      7  C   LIG    1      -23.934  77.365  30.131  0.00  0.00    +0.028 A 
ATOM      8  C   LIG    1      -22.713  77.374  29.452  0.00  0.00    +0.002 A 
ATOM      9  C   LIG    1      -21.752  76.406  29.735  0.00  0.00    +0.000 A 
ATOM     10  C   LIG    1      -22.015  75.418  30.682  0.00  0.00    +0.002 A 
ATOM     11  C   LIG    1      -23.240  75.392  31.355  0.00  0.00    +0.028 A 
ENDBRANCH   3   6
BRANCH   4  12
ATOM     12  N   LIG    1      -25.152  78.313  33.361  0.00  0.00    -0.266 N 
ATOM     13  H   LIG    1      -25.361  79.264  33.079  0.00  0.00    +0.157 HD
ATOM     14  C   LIG    1      -24.111  78.087  34.319  0.00  0.00    +0.251 C 
ATOM     15  O   LIG    1      -23.848  76.955  34.724  0.00  0.00    -0.270 OA
BRANCH  14  16
ATOM     16  C   LIG    1      -23.436  79.273  34.870  0.00  0.00    +0.056 A 
ATOM     17  C   LIG    1      -22.098  79.583  34.605  0.00  0.00    +0.056 A 
ATOM     18 CL   LIG    1      -21.058  78.611  33.629  0.00  0.00    -0.083 Cl
ATOM     19  C   LIG    1      -21.542  80.729  35.152  0.00  0.00    +0.059 A 
ATOM     20  C   LIG    1      -22.306  81.567  35.961  0.00  0.00    +0.134 A 
ATOM     21  F   LIG    1      -21.676  82.649  36.437  0.00  0.00    -0.205 F 
ATOM     22  C   LIG    1      -23.655  81.310  36.254  0.00  0.00    +0.036 A 
ATOM     23  C   LIG    1      -24.194  80.131  35.692  0.00  0.00    +0.027 A 
BRANCH  22  24
ATOM     24  C   LIG    1      -24.505  82.212  37.068  0.00  0.00    +0.074 A 
ATOM     25  N   LIG    1      -25.735  82.469  36.548  0.00  0.00    -0.255 NA
ATOM     26  C   LIG    1      -26.552  83.320  37.212  0.00  0.00    +0.111 A 
ATOM     27  C   LIG    1      -26.207  83.951  38.391  0.00  0.00    +0.020 A 
ATOM     28  C   LIG    1      -24.959  83.683  38.926  0.00  0.00    +0.004 A 
ATOM     29  C   LIG    1      -24.104  82.807  38.263  0.00  0.00    +0.028 A 
ENDBRANCH  22  24
ENDBRANCH  14  16
ENDBRANCH   4  12
BRANCH   1  30
ATOM     30  C   LIG    1      -28.761  75.172  32.127  0.00  0.00    +0.236 C 
ATOM     31  N   LIG    1      -29.596  75.534  31.219  0.00  0.00    -0.243 NA
BRANCH  30  32
ATOM     32  O   LIG    1      -28.946  74.207  33.046  0.00  0.00    -0.491 OA
ATOM     33  H   LIG    1      -28.448  73.404  32.804  0.00  0.00    +0.294 HD
ENDBRANCH  30  32
BRANCH  31  34
ATOM     34  C   LIG    1      -30.907  74.884  31.088  0.00  0.00    +0.200 C 
BRANCH  34  35
ATOM     35  C   LIG    1      -31.748  75.399  29.937  0.00  0.00    +0.063 A 
ATOM     36  N   LIG    1      -31.234  76.462  29.261  0.00  0.00    -0.254 NA
ATOM     37  C   LIG    1      -31.993  77.020  28.292  0.00  0.00    +0.156 A 
ATOM     38  C   LIG    1      -33.231  76.535  27.923  0.00  0.00    +0.135 A 
ATOM     39  C   LIG    1      -33.723  75.412  28.574  0.00  0.00    +0.049 A 
ATOM     40  C   LIG    1      -32.976  74.835  29.603  0.00  0.00    +0.029 A 
BRANCH  38  41
ATOM     41  O   LIG    1      -33.923  77.170  26.941  0.00  0.00    -0.505 OA
ATOM     42  H   LIG    1      -33.355  77.851  26.545  0.00  0.00    +0.292 HD
ENDBRANCH  38  41
ENDBRANCH  34  35
ENDBRANCH  31  34
ENDBRANCH   1  30
TORSDOF 9
ENDMDL
MODEL 8
REMARK VINA RESULT:      -6.5      4.259      6.041
REMARK  Name = pdb/CHEMBL3900941.pdb
REMARK                            x       y       z     vdW  Elec       q    Type
REMARK                         _______ _______ _______ _____ _____    ______ ____
ROOT
ATOM      1  C   LIG    1      -32.167  74.821  29.562  0.00  0.00    +0.149 A 
ATOM      2  N   LIG    1      -32.341  76.148  29.690  0.00  0.00    -0.160 NA
ATOM      3  N   LIG    1      -33.330  76.466  28.825  0.00  0.00    -0.218 N 
ATOM      4  C   LIG    1      -33.838  75.333  28.194  0.00  0.00    +0.129 A 
ATOM      5  C   LIG    1      -33.134  74.269  28.701  0.00  0.00    +0.078 A 
ENDROOT
BRANCH   3   6
ATOM      6  C   LIG    1      -33.702  77.830  28.650  0.00  0.00    +0.067 A 
ATOM      7  C   LIG    1      -33.143  78.552  27.583  0.00  0.00    +0.028 A 
ATOM      8  C   LIG    1      -33.507  79.883  27.367  0.00  0.00    +0.002 A 
ATOM      9  C   LIG    1      -34.446  80.491  28.196  0.00  0.00    +0.000 A 
ATOM     10  C   LIG    1      -35.010  79.778  29.253  0.00  0.00    +0.002 A 
ATOM     11  C   LIG    1      -34.639  78.450  29.486  0.00  0.00    +0.028 A 
ENDBRANCH   3   6
BRANCH   4  12
ATOM     12  N   LIG    1      -34.903  75.256  27.305  0.00  0.00    -0.266 N 
ATOM     13  H   LIG    1      -34.688  75.310  26.316  0.00  0.00    +0.157 HD
ATOM     14  C   LIG    1      -36.273  75.147  27.711  0.00  0.00    +0.251 C 
ATOM     15  O   LIG    1      -36.583  75.037  28.897  0.00  0.00    -0.270 OA
BRANCH  14  16
ATOM     16  C   LIG    1      -37.286  75.074  26.645  0.00  0.00    +0.056 A 
ATOM     17  C   LIG    1      -37.953  76.198  26.147  0.00  0.00    +0.056 A 
ATOM     18 CL   LIG    1      -37.706  77.803  26.728  0.00  0.00    -0.083 Cl
ATOM     19  C   LIG    1      -38.883  76.044  25.130  0.00  0.00    +0.059 A 
ATOM     20  C   LIG    1      -39.155  74.781  24.607  0.00  0.00    +0.134 A 
ATOM     21  F   LIG    1      -40.066  74.740  23.628  0.00  0.00    -0.205 F 
ATOM     22  C   LIG    1      -38.509  73.621  25.064  0.00  0.00    +0.036 A 
ATOM     23  C   LIG    1      -37.574  73.804  26.106  0.00  0.00    +0.027 A 
BRANCH  22  24
ATOM     24  C   LIG    1      -38.740  72.273  24.489  0.00  0.00    +0.074 A 
ATOM     25  N   LIG    1      -37.625  71.505  24.354  0.00  0.00    -0.255 NA
ATOM     26  C   LIG    1      -37.749  70.279  23.796  0.00  0.00    +0.111 A 
ATOM     27  C   LIG    1      -38.946  69.758  23.347  0.00  0.00    +0.020 A 
ATOM     28  C   LIG    1      -40.084  70.535  23.491  0.00  0.00    +0.004 A 
ATOM     29  C   LIG    1      -39.981  71.797  24.068  0.00  0.00    +0.028 A 
ENDBRANCH  22  24
ENDBRANCH  14  16
ENDBRANCH   4  12
BRANCH   1  30
ATOM     30  C   LIG    1      -31.112  74.090  30.251  0.00  0.00    +0.236 C 
ATOM     31  N   LIG    1      -30.521  74.628  31.258  0.00  0.00    -0.243 NA
BRANCH  30  32
ATOM     32  O   LIG    1      -30.856  72.878  29.727  0.00  0.00    -0.491 OA
ATOM     33  H   LIG    1      -30.306  72.960  28.926  0.00  0.00    +0.294 HD
ENDBRANCH  30  32
BRANCH  31  34
ATOM     34  C   LIG    1      -29.451  73.926  31.978  0.00  0.00    +0.200 C 
BRANCH  34  35
ATOM     35  C   LIG    1      -28.098  74.604  31.905  0.00  0.00    +0.063 A 
ATOM     36  N   LIG    1      -27.021  73.772  31.925  0.00  0.00    -0.254 NA
ATOM     37  C   LIG    1      -25.791  74.333  31.964  0.00  0.00    +0.156 A 
ATOM     38  C   LIG    1      -25.577  75.696  31.933  0.00  0.00    +0.135 A 
ATOM     39  C   LIG    1      -26.678  76.538  31.851  0.00  0.00    +0.049 A 
ATOM     40  C   LIG    1      -27.962  75.987  31.844  0.00  0.00    +0.029 A 
BRANCH  38  41
ATOM     41  O   LIG    1      -24.303  76.165  31.986  0.00  0.00    -0.505 OA
ATOM     42  H   LIG    1      -24.161  76.598  32.843  0.00  0.00    +0.292 HD
ENDBRANCH  38  41
ENDBRANCH  34  35
ENDBRANCH  31  34
ENDBRANCH   1  30
TORSDOF 9
ENDMDL
MODEL 9
REMARK VINA RESULT:      -6.5      6.440      8.531
REMARK  Name = pdb/CHEMBL3900941.pdb
REMARK                            x       y       z     vdW  Elec       q    Type
REMARK                         _______ _______ _______ _____ _____    ______ ____
ROOT
ATOM      1  C   LIG    1      -35.475  80.472  28.908  0.00  0.00    +0.149 A 
ATOM      2  N   LIG    1      -34.562  79.530  29.198  0.00  0.00    -0.160 NA
ATOM      3  N   LIG    1      -34.977  78.417  28.553  0.00  0.00    -0.218 N 
ATOM      4  C   LIG    1      -36.117  78.665  27.792  0.00  0.00    +0.129 A 
ATOM      5  C   LIG    1      -36.411  79.994  27.972  0.00  0.00    +0.078 A 
ENDROOT
BRANCH   3   6
ATOM      6  C   LIG    1      -34.266  77.195  28.727  0.00  0.00    +0.067 A 
ATOM      7  C   LIG    1      -33.599  76.967  29.942  0.00  0.00    +0.028 A 
ATOM      8  C   LIG    1      -32.916  75.768  30.155  0.00  0.00    +0.002 A 
ATOM      9  C   LIG    1      -32.916  74.782  29.171  0.00  0.00    +0.000 A 
ATOM     10  C   LIG    1      -33.583  74.999  27.966  0.00  0.00    +0.002 A 
ATOM     11  C   LIG    1      -34.256  76.203  27.738  0.00  0.00    +0.028 A 
ENDBRANCH   3   6
BRANCH   4  12
ATOM     12  N   LIG    1      -36.782  77.791  26.940  0.00  0.00    -0.266 N 
ATOM     13  H   LIG    1      -36.548  77.837  25.955  0.00  0.00    +0.157 HD
ATOM     14  C   LIG    1      -37.793  76.873  27.371  0.00  0.00    +0.251 C 
ATOM     15  O   LIG    1      -38.083  76.752  28.561  0.00  0.00    -0.270 OA
BRANCH  14  16
ATOM     16  C   LIG    1      -38.402  76.012  26.344  0.00  0.00    +0.056 A 
ATOM     17  C   LIG    1      -39.375  76.464  25.447  0.00  0.00    +0.056 A 
ATOM     18 CL   LIG    1      -40.011  78.068  25.441  0.00  0.00    -0.083 Cl
ATOM     19  C   LIG    1      -39.886  75.591  24.498  0.00  0.00    +0.059 A 
ATOM     20  C   LIG    1      -39.437  74.274  24.437  0.00  0.00    +0.134 A 
ATOM     21  F   LIG    1      -39.991  73.514  23.484  0.00  0.00    -0.205 F 
ATOM     22  C   LIG    1      -38.456  73.769  25.307  0.00  0.00    +0.036 A 
ATOM     23  C   LIG    1      -37.960  74.676  26.270  0.00  0.00    +0.027 A 
BRANCH  22  24
ATOM     24  C   LIG    1      -37.923  72.387  25.230  0.00  0.00    +0.074 A 
ATOM     25  N   LIG    1      -36.958  72.090  26.141  0.00  0.00    -0.255 NA
ATOM     26  C   LIG    1      -36.391  70.863  26.104  0.00  0.00    +0.111 A 
ATOM     27  C   LIG    1      -36.731  69.888  25.188  0.00  0.00    +0.020 A 
ATOM     28  C   LIG    1      -37.720  70.185  24.265  0.00  0.00    +0.004 A 
ATOM     29  C   LIG    1      -38.322  71.440  24.288  0.00  0.00    +0.028 A 
ENDBRANCH  22  24
ENDBRANCH  14  16
ENDBRANCH   4  12
BRANCH   1  30
ATOM     30  C   LIG    1      -35.453  81.805  29.498  0.00  0.00    +0.236 C 
ATOM     31  N   LIG    1      -34.827  81.999  30.603  0.00  0.00    -0.243 NA
BRANCH  30  32
ATOM     32  O   LIG    1      -36.130  82.726  28.789  0.00  0.00    -0.491 OA
ATOM     33  H   LIG    1      -35.515  83.351  28.363  0.00  0.00    +0.294 HD
ENDBRANCH  30  32
BRANCH  31  34
ATOM     34  C   LIG    1      -34.784  83.326  31.232  0.00  0.00    +0.200 C 
BRANCH  34  35
ATOM     35  C   LIG    1      -33.563  84.150  30.872  0.00  0.00    +0.063 A 
ATOM     36  N   LIG    1      -32.560  84.148  31.792  0.00  0.00    -0.254 NA
ATOM     37  C   LIG    1      -31.494  84.947  31.564  0.00  0.00    +0.156 A 
ATOM     38  C   LIG    1      -31.353  85.718  30.428  0.00  0.00    +0.135 A 
ATOM     39  C   LIG    1      -32.350  85.668  29.465  0.00  0.00    +0.049 A 
ATOM     40  C   LIG    1      -33.480  84.878  29.690  0.00  0.00    +0.029 A 
BRANCH  38  41
ATOM     41  O   LIG    1      -30.247  86.497  30.294  0.00  0.00    -0.505 OA
ATOM     42  H   LIG    1      -30.503  87.428  30.394  0.00  0.00    +0.292 HD
ENDBRANCH  38  41
ENDBRANCH  34  35
ENDBRANCH  31  34
ENDBRANCH   1  30
TORSDOF 9
ENDMDL
