MODEL 1
REMARK VINA RESULT:      -5.8      0.000      0.000
REMARK  Name = pdb/CHEMBL3673487.pdb
REMARK                            x       y       z     vdW  Elec       q    Type
REMARK                         _______ _______ _______ _____ _____    ______ ____
ROOT
ATOM      1  C   LIG    1      -19.647  75.928  31.204  0.00  0.00    +0.161 C 
ENDROOT
BRANCH   1   2
ATOM      2  N   LIG    1      -19.398  76.109  32.635  0.00  0.00    -0.293 N 
ATOM      3  C   LIG    1      -19.533  77.296  33.315  0.00  0.00    +0.162 A 
ATOM      4  N   LIG    1      -19.718  78.527  32.803  0.00  0.00    -0.235 NA
ATOM      5  C   LIG    1      -19.863  79.475  33.774  0.00  0.00    +0.121 A 
ATOM      6  C   LIG    1      -19.840  79.287  35.169  0.00  0.00    +0.004 A 
ATOM      7  C   LIG    1      -19.622  77.968  35.608  0.00  0.00    +0.041 A 
ATOM      8  C   LIG    1      -19.464  76.951  34.656  0.00  0.00    +0.110 A 
ATOM      9  N   LIG    1      -19.260  75.605  34.805  0.00  0.00    -0.213 NA
ATOM     10  C   LIG    1      -19.210  75.127  33.584  0.00  0.00    +0.195 A 
BRANCH   6  11
ATOM     11  C   LIG    1      -20.045  80.403  36.123  0.00  0.00    +0.002 A 
ATOM     12  C   LIG    1      -19.416  80.451  37.372  0.00  0.00    +0.119 A 
ATOM     13  N   LIG    1      -19.552  81.448  38.285  0.00  0.00    -0.263 NA
ATOM     14  C   LIG    1      -20.368  82.466  37.955  0.00  0.00    +0.111 A 
ATOM     15  C   LIG    1      -21.051  82.532  36.756  0.00  0.00    +0.020 A 
ATOM     16  C   LIG    1      -20.883  81.493  35.838  0.00  0.00    +0.011 A 
ENDBRANCH   6  11
BRANCH  10  17
ATOM     17  N   LIG    1      -19.026  73.831  33.276  0.00  0.00    -0.329 N 
ATOM     18  H   LIG    1      -19.899  73.303  33.289  0.00  0.00    +0.145 HD
ATOM     19  H   LIG    1      -18.317  73.328  33.803  0.00  0.00    +0.145 HD
ENDBRANCH  10  17
ENDBRANCH   1   2
BRANCH   1  23
ATOM     20  C   LIG    1      -23.899  76.361  30.266  0.00  0.00    +0.162 A 
ATOM     21  C   LIG    1      -23.444  75.194  30.807  0.00  0.00    +0.162 A 
ATOM     22  C   LIG    1      -22.095  75.132  31.278  0.00  0.00    +0.054 A 
ATOM     23  C   LIG    1      -21.115  76.033  30.800  0.00  0.00    -0.024 A 
ATOM     24  C   LIG    1      -21.561  77.001  29.895  0.00  0.00    +0.009 A 
ATOM     25  C   LIG    1      -22.937  77.155  29.628  0.00  0.00    +0.050 A 
BRANCH  21  26
ATOM     26  O   LIG    1      -24.122  73.998  30.577  0.00  0.00    -0.491 OA
ATOM     27  C   LIG    1      -25.269  73.392  31.309  0.00  0.00    +0.277 C 
ENDBRANCH  21  26
BRANCH  20  28
ATOM     28  O   LIG    1      -25.201  76.725  30.258  0.00  0.00    -0.484 OA
BRANCH  28  29
ATOM     29  C   LIG    1      -25.846  77.296  31.457  0.00  0.00    +0.266 C 
BRANCH  29  33
ATOM     30  C   LIG    1      -24.255  79.021  35.108  0.00  0.00    +0.214 A 
ATOM     31  N   LIG    1      -25.246  78.068  35.144  0.00  0.00    -0.221 NA
ATOM     32  C   LIG    1      -25.684  77.509  34.018  0.00  0.00    +0.121 A 
ATOM     33  C   LIG    1      -25.121  77.834  32.800  0.00  0.00    +0.008 A 
ATOM     34  C   LIG    1      -23.855  78.485  33.085  0.00  0.00    +0.013 A 
ATOM     35  C   LIG    1      -23.450  79.295  34.005  0.00  0.00    +0.067 A 
BRANCH  30  37
ATOM     36  C   LIG    1      -23.314  79.002  37.118  0.00  0.00    +0.279 C 
ATOM     37  O   LIG    1      -23.939  79.837  36.136  0.00  0.00    -0.480 OA
ENDBRANCH  30  37
ENDBRANCH  29  33
ENDBRANCH  28  29
ENDBRANCH  20  28
ENDBRANCH   1  23
TORSDOF 9
ENDMDL
MODEL 2
REMARK VINA RESULT:      -5.0     18.217     21.025
REMARK  Name = pdb/CHEMBL3673487.pdb
REMARK                            x       y       z     vdW  Elec       q    Type
REMARK                         _______ _______ _______ _____ _____    ______ ____
ROOT
ATOM      1  C   LIG    1      -32.957  94.761  24.835  0.00  0.00    +0.161 C 
ENDROOT
BRANCH   1   2
ATOM      2  N   LIG    1      -32.001  94.451  23.772  0.00  0.00    -0.293 N 
ATOM      3  C   LIG    1      -32.327  93.898  22.555  0.00  0.00    +0.162 A 
ATOM      4  N   LIG    1      -33.503  93.365  22.177  0.00  0.00    -0.235 NA
ATOM      5  C   LIG    1      -33.490  92.954  20.876  0.00  0.00    +0.121 A 
ATOM      6  C   LIG    1      -32.425  93.037  19.959  0.00  0.00    +0.004 A 
ATOM      7  C   LIG    1      -31.231  93.593  20.452  0.00  0.00    +0.041 A 
ATOM      8  C   LIG    1      -31.183  94.032  21.783  0.00  0.00    +0.110 A 
ATOM      9  N   LIG    1      -30.173  94.614  22.501  0.00  0.00    -0.213 NA
ATOM     10  C   LIG    1      -30.682  94.842  23.689  0.00  0.00    +0.195 A 
BRANCH   6  11
ATOM     11  C   LIG    1      -32.552  92.582  18.553  0.00  0.00    +0.002 A 
ATOM     12  C   LIG    1      -33.415  91.549  18.171  0.00  0.00    +0.119 A 
ATOM     13  N   LIG    1      -33.586  91.093  16.903  0.00  0.00    -0.263 NA
ATOM     14  C   LIG    1      -32.854  91.686  15.942  0.00  0.00    +0.111 A 
ATOM     15  C   LIG    1      -31.962  92.711  16.191  0.00  0.00    +0.020 A 
ATOM     16  C   LIG    1      -31.816  93.159  17.506  0.00  0.00    +0.011 A 
ENDBRANCH   6  11
BRANCH  10  17
ATOM     17  N   LIG    1      -30.019  95.415  24.709  0.00  0.00    -0.329 N 
ATOM     18  H   LIG    1      -29.050  95.099  24.766  0.00  0.00    +0.145 HD
ATOM     19  H   LIG    1      -30.450  95.359  25.628  0.00  0.00    +0.145 HD
ENDBRANCH  10  17
ENDBRANCH   1   2
BRANCH   1  23
ATOM     20  C   LIG    1      -33.018  92.067  28.283  0.00  0.00    +0.162 A 
ATOM     21  C   LIG    1      -32.892  93.411  28.481  0.00  0.00    +0.162 A 
ATOM     22  C   LIG    1      -33.058  94.291  27.365  0.00  0.00    +0.054 A 
ATOM     23  C   LIG    1      -32.888  93.827  26.040  0.00  0.00    -0.024 A 
ATOM     24  C   LIG    1      -32.605  92.465  25.898  0.00  0.00    +0.009 A 
ATOM     25  C   LIG    1      -32.663  91.600  27.010  0.00  0.00    +0.050 A 
BRANCH  21  26
ATOM     26  O   LIG    1      -32.258  93.899  29.622  0.00  0.00    -0.491 OA
ATOM     27  C   LIG    1      -30.807  93.990  29.947  0.00  0.00    +0.277 C 
ENDBRANCH  21  26
BRANCH  20  28
ATOM     28  O   LIG    1      -33.387  91.199  29.252  0.00  0.00    -0.484 OA
BRANCH  28  29
ATOM     29  C   LIG    1      -32.384  90.491  30.071  0.00  0.00    +0.266 C 
BRANCH  29  33
ATOM     30  C   LIG    1      -31.618  86.220  30.194  0.00  0.00    +0.214 A 
ATOM     31  N   LIG    1      -32.708  86.729  29.526  0.00  0.00    -0.221 NA
ATOM     32  C   LIG    1      -32.898  88.045  29.452  0.00  0.00    +0.121 A 
ATOM     33  C   LIG    1      -31.983  88.925  29.996  0.00  0.00    +0.008 A 
ATOM     34  C   LIG    1      -30.763  88.171  30.223  0.00  0.00    +0.013 A 
ATOM     35  C   LIG    1      -30.512  86.963  30.600  0.00  0.00    +0.067 A 
BRANCH  30  37
ATOM     36  C   LIG    1      -31.459  84.936  31.996  0.00  0.00    +0.279 C 
ATOM     37  O   LIG    1      -31.482  84.930  30.564  0.00  0.00    -0.480 OA
ENDBRANCH  30  37
ENDBRANCH  29  33
ENDBRANCH  28  29
ENDBRANCH  20  28
ENDBRANCH   1  23
TORSDOF 9
ENDMDL
MODEL 3
REMARK VINA RESULT:      -5.0     20.349     23.263
REMARK  Name = pdb/CHEMBL3673487.pdb
REMARK                            x       y       z     vdW  Elec       q    Type
REMARK                         _______ _______ _______ _____ _____    ______ ____
ROOT
ATOM      1  C   LIG    1      -28.123  77.878  10.585  0.00  0.00    +0.161 C 
ENDROOT
BRANCH   1   2
ATOM      2  N   LIG    1      -27.530  77.685  11.910  0.00  0.00    -0.293 N 
ATOM      3  C   LIG    1      -26.578  78.501  12.473  0.00  0.00    +0.162 A 
ATOM      4  N   LIG    1      -25.875  79.485  11.881  0.00  0.00    -0.235 NA
ATOM      5  C   LIG    1      -25.049  80.129  12.755  0.00  0.00    +0.121 A 
ATOM      6  C   LIG    1      -24.881  79.870  14.128  0.00  0.00    +0.004 A 
ATOM      7  C   LIG    1      -25.645  78.811  14.653  0.00  0.00    +0.041 A 
ATOM      8  C   LIG    1      -26.512  78.111  13.802  0.00  0.00    +0.110 A 
ATOM      9  N   LIG    1      -27.365  77.069  14.049  0.00  0.00    -0.213 NA
ATOM     10  C   LIG    1      -27.951  76.824  12.900  0.00  0.00    +0.195 A 
BRANCH   6  11
ATOM     11  C   LIG    1      -23.968  80.670  14.981  0.00  0.00    +0.002 A 
ATOM     12  C   LIG    1      -23.770  82.041  14.791  0.00  0.00    +0.119 A 
ATOM     13  N   LIG    1      -22.959  82.832  15.541  0.00  0.00    -0.263 NA
ATOM     14  C   LIG    1      -22.289  82.235  16.544  0.00  0.00    +0.111 A 
ATOM     15  C   LIG    1      -22.394  80.888  16.830  0.00  0.00    +0.020 A 
ATOM     16  C   LIG    1      -23.242  80.106  16.042  0.00  0.00    +0.011 A 
ENDBRANCH   6  11
BRANCH  10  17
ATOM     17  N   LIG    1      -28.877  75.869  12.701  0.00  0.00    -0.329 N 
ATOM     18  H   LIG    1      -29.797  76.146  13.042  0.00  0.00    +0.145 HD
ATOM     19  H   LIG    1      -28.655  74.936  13.037  0.00  0.00    +0.145 HD
ENDBRANCH  10  17
ENDBRANCH   1   2
BRANCH   1  23
ATOM     20  C   LIG    1      -31.342  80.840  10.689  0.00  0.00    +0.162 A 
ATOM     21  C   LIG    1      -31.537  79.614  11.253  0.00  0.00    +0.162 A 
ATOM     22  C   LIG    1      -30.423  78.726  11.376  0.00  0.00    +0.054 A 
ATOM     23  C   LIG    1      -29.283  78.869  10.550  0.00  0.00    -0.024 A 
ATOM     24  C   LIG    1      -29.301  79.949   9.663  0.00  0.00    +0.009 A 
ATOM     25  C   LIG    1      -30.324  80.917   9.730  0.00  0.00    +0.050 A 
BRANCH  21  26
ATOM     26  O   LIG    1      -32.823  79.085  11.365  0.00  0.00    -0.491 OA
ATOM     27  C   LIG    1      -33.302  77.688  11.176  0.00  0.00    +0.277 C 
ENDBRANCH  21  26
BRANCH  20  28
ATOM     28  O   LIG    1      -32.111  81.919  10.957  0.00  0.00    -0.484 OA
BRANCH  28  29
ATOM     29  C   LIG    1      -33.215  82.318  10.060  0.00  0.00    +0.266 C 
BRANCH  29  33
ATOM     30  C   LIG    1      -37.164  83.947  10.826  0.00  0.00    +0.214 A 
ATOM     31  N   LIG    1      -36.976  82.934   9.915  0.00  0.00    -0.221 NA
ATOM     32  C   LIG    1      -35.767  82.408   9.732  0.00  0.00    +0.121 A 
ATOM     33  C   LIG    1      -34.690  82.831  10.486  0.00  0.00    +0.008 A 
ATOM     34  C   LIG    1      -35.232  83.543  11.628  0.00  0.00    +0.013 A 
ATOM     35  C   LIG    1      -36.242  84.328  11.799  0.00  0.00    +0.067 A 
BRANCH  30  37
ATOM     36  C   LIG    1      -39.123  84.113  11.855  0.00  0.00    +0.279 C 
ATOM     37  O   LIG    1      -38.264  84.727  10.888  0.00  0.00    -0.480 OA
ENDBRANCH  30  37
ENDBRANCH  29  33
ENDBRANCH  28  29
ENDBRANCH  20  28
ENDBRANCH   1  23
TORSDOF 9
ENDMDL
MODEL 4
REMARK VINA RESULT:      -5.0      6.315      9.244
REMARK  Name = pdb/CHEMBL3673487.pdb
REMARK                            x       y       z     vdW  Elec       q    Type
REMARK                         _______ _______ _______ _____ _____    ______ ____
ROOT
ATOM      1  C   LIG    1      -28.440  73.263  32.627  0.00  0.00    +0.161 C 
ENDROOT
BRANCH   1   2
ATOM      2  N   LIG    1      -27.202  73.038  31.879  0.00  0.00    -0.293 N 
ATOM      3  C   LIG    1      -26.230  73.987  31.660  0.00  0.00    +0.162 A 
ATOM      4  N   LIG    1      -26.296  75.310  31.899  0.00  0.00    -0.235 NA
ATOM      5  C   LIG    1      -25.123  75.946  31.610  0.00  0.00    +0.121 A 
ATOM      6  C   LIG    1      -23.934  75.375  31.119  0.00  0.00    +0.004 A 
ATOM      7  C   LIG    1      -23.969  73.988  30.883  0.00  0.00    +0.041 A 
ATOM      8  C   LIG    1      -25.147  73.280  31.160  0.00  0.00    +0.110 A 
ATOM      9  N   LIG    1      -25.443  71.949  31.040  0.00  0.00    -0.213 NA
ATOM     10  C   LIG    1      -26.680  71.832  31.463  0.00  0.00    +0.195 A 
BRANCH   6  11
ATOM     11  C   LIG    1      -22.711  76.177  30.876  0.00  0.00    +0.002 A 
ATOM     12  C   LIG    1      -22.135  76.988  31.859  0.00  0.00    +0.119 A 
ATOM     13  N   LIG    1      -21.011  77.738  31.706  0.00  0.00    -0.263 NA
ATOM     14  C   LIG    1      -20.414  77.694  30.500  0.00  0.00    +0.111 A 
ATOM     15  C   LIG    1      -20.888  76.938  29.446  0.00  0.00    +0.020 A 
ATOM     16  C   LIG    1      -22.042  76.175  29.641  0.00  0.00    +0.011 A 
ENDBRANCH   6  11
BRANCH  10  17
ATOM     17  N   LIG    1      -27.365  70.676  31.517  0.00  0.00    -0.329 N 
ATOM     18  H   LIG    1      -26.905  69.929  30.997  0.00  0.00    +0.145 HD
ATOM     19  H   LIG    1      -28.349  70.712  31.263  0.00  0.00    +0.145 HD
ENDBRANCH  10  17
ENDBRANCH   1   2
BRANCH   1  23
ATOM     20  C   LIG    1      -31.609  74.819  30.042  0.00  0.00    +0.162 A 
ATOM     21  C   LIG    1      -31.281  75.490  31.184  0.00  0.00    +0.162 A 
ATOM     22  C   LIG    1      -30.126  75.076  31.920  0.00  0.00    +0.054 A 
ATOM     23  C   LIG    1      -29.606  73.768  31.782  0.00  0.00    -0.024 A 
ATOM     24  C   LIG    1      -30.252  72.945  30.855  0.00  0.00    +0.009 A 
ATOM     25  C   LIG    1      -31.247  73.467  30.002  0.00  0.00    +0.050 A 
BRANCH  21  26
ATOM     26  O   LIG    1      -32.222  76.296  31.824  0.00  0.00    -0.491 OA
ATOM     27  C   LIG    1      -32.517  76.455  33.275  0.00  0.00    +0.277 C 
ENDBRANCH  21  26
BRANCH  20  28
ATOM     28  O   LIG    1      -32.306  75.371  29.023  0.00  0.00    -0.484 OA
BRANCH  28  29
ATOM     29  C   LIG    1      -31.972  76.711  28.501  0.00  0.00    +0.266 C 
BRANCH  29  33
ATOM     30  C   LIG    1      -34.376  80.256  27.800  0.00  0.00    +0.214 A 
ATOM     31  N   LIG    1      -33.448  79.832  26.878  0.00  0.00    -0.221 NA
ATOM     32  C   LIG    1      -32.758  78.712  27.083  0.00  0.00    +0.121 A 
ATOM     33  C   LIG    1      -32.994  77.928  28.195  0.00  0.00    +0.008 A 
ATOM     34  C   LIG    1      -34.275  78.345  28.736  0.00  0.00    +0.013 A 
ATOM     35  C   LIG    1      -34.876  79.482  28.845  0.00  0.00    +0.067 A 
BRANCH  30  37
ATOM     36  C   LIG    1      -36.330  81.303  27.703  0.00  0.00    +0.279 C 
ATOM     37  O   LIG    1      -34.916  81.493  27.829  0.00  0.00    -0.480 OA
ENDBRANCH  30  37
ENDBRANCH  29  33
ENDBRANCH  28  29
ENDBRANCH  20  28
ENDBRANCH   1  23
TORSDOF 9
ENDMDL
MODEL 5
REMARK VINA RESULT:      -4.9      3.195      7.016
REMARK  Name = pdb/CHEMBL3673487.pdb
REMARK                            x       y       z     vdW  Elec       q    Type
REMARK                         _______ _______ _______ _____ _____    ______ ____
ROOT
ATOM      1  C   LIG    1      -22.186  76.015  31.170  0.00  0.00    +0.161 C 
ENDROOT
BRANCH   1   2
ATOM      2  N   LIG    1      -23.575  76.416  30.942  0.00  0.00    -0.293 N 
ATOM      3  C   LIG    1      -24.642  76.046  31.727  0.00  0.00    +0.162 A 
ATOM      4  N   LIG    1      -24.668  75.123  32.706  0.00  0.00    -0.235 NA
ATOM      5  C   LIG    1      -25.887  75.051  33.316  0.00  0.00    +0.121 A 
ATOM      6  C   LIG    1      -27.037  75.810  33.029  0.00  0.00    +0.004 A 
ATOM      7  C   LIG    1      -26.917  76.737  31.978  0.00  0.00    +0.041 A 
ATOM      8  C   LIG    1      -25.689  76.855  31.312  0.00  0.00    +0.110 A 
ATOM      9  N   LIG    1      -25.299  77.672  30.284  0.00  0.00    -0.213 NA
ATOM     10  C   LIG    1      -24.037  77.381  30.073  0.00  0.00    +0.195 A 
BRANCH   6  11
ATOM     11  C   LIG    1      -28.299  75.657  33.794  0.00  0.00    +0.002 A 
ATOM     12  C   LIG    1      -28.329  75.590  35.191  0.00  0.00    +0.119 A 
ATOM     13  N   LIG    1      -29.449  75.462  35.950  0.00  0.00    -0.263 NA
ATOM     14  C   LIG    1      -30.621  75.388  35.294  0.00  0.00    +0.111 A 
ATOM     15  C   LIG    1      -30.724  75.436  33.917  0.00  0.00    +0.020 A 
ATOM     16  C   LIG    1      -29.553  75.574  33.168  0.00  0.00    +0.011 A 
ENDBRANCH   6  11
BRANCH  10  17
ATOM     17  N   LIG    1      -23.262  77.965  29.141  0.00  0.00    -0.329 N 
ATOM     18  H   LIG    1      -23.740  78.731  28.667  0.00  0.00    +0.145 HD
ATOM     19  H   LIG    1      -22.830  77.354  28.453  0.00  0.00    +0.145 HD
ENDBRANCH  10  17
ENDBRANCH   1   2
BRANCH   1  23
ATOM     20  C   LIG    1      -20.251  78.622  34.104  0.00  0.00    +0.162 A 
ATOM     21  C   LIG    1      -19.826  78.636  32.807  0.00  0.00    +0.162 A 
ATOM     22  C   LIG    1      -20.584  77.921  31.826  0.00  0.00    +0.054 A 
ATOM     23  C   LIG    1      -21.444  76.862  32.200  0.00  0.00    -0.024 A 
ATOM     24  C   LIG    1      -21.542  76.606  33.571  0.00  0.00    +0.009 A 
ATOM     25  C   LIG    1      -20.944  77.474  34.508  0.00  0.00    +0.050 A 
BRANCH  21  26
ATOM     26  O   LIG    1      -18.518  79.004  32.496  0.00  0.00    -0.491 OA
ATOM     27  C   LIG    1      -17.363  78.165  32.070  0.00  0.00    +0.277 C 
ENDBRANCH  21  26
BRANCH  20  28
ATOM     28  O   LIG    1      -19.973  79.602  34.993  0.00  0.00    -0.484 OA
BRANCH  28  29
ATOM     29  C   LIG    1      -20.910  80.719  35.223  0.00  0.00    +0.266 C 
BRANCH  29  33
ATOM     30  C   LIG    1      -25.152  80.327  36.053  0.00  0.00    +0.214 A 
ATOM     31  N   LIG    1      -24.425  81.384  36.548  0.00  0.00    -0.221 NA
ATOM     32  C   LIG    1      -23.137  81.519  36.239  0.00  0.00    +0.121 A 
ATOM     33  C   LIG    1      -22.519  80.635  35.377  0.00  0.00    +0.008 A 
ATOM     34  C   LIG    1      -23.575  79.925  34.678  0.00  0.00    +0.013 A 
ATOM     35  C   LIG    1      -24.741  79.488  35.019  0.00  0.00    +0.067 A 
BRANCH  30  37
ATOM     36  C   LIG    1      -26.119  78.794  37.334  0.00  0.00    +0.279 C 
ATOM     37  O   LIG    1      -26.361  79.945  36.516  0.00  0.00    -0.480 OA
ENDBRANCH  30  37
ENDBRANCH  29  33
ENDBRANCH  28  29
ENDBRANCH  20  28
ENDBRANCH   1  23
TORSDOF 9
ENDMDL
MODEL 6
REMARK VINA RESULT:      -4.9     12.657     17.549
REMARK  Name = pdb/CHEMBL3673487.pdb
REMARK                            x       y       z     vdW  Elec       q    Type
REMARK                         _______ _______ _______ _____ _____    ______ ____
ROOT
ATOM      1  C   LIG    1      -35.420  68.259  27.768  0.00  0.00    +0.161 C 
ENDROOT
BRANCH   1   2
ATOM      2  N   LIG    1      -35.851  68.630  26.420  0.00  0.00    -0.293 N 
ATOM      3  C   LIG    1      -36.842  69.540  26.131  0.00  0.00    +0.162 A 
ATOM      4  N   LIG    1      -37.720  70.105  26.980  0.00  0.00    -0.235 NA
ATOM      5  C   LIG    1      -38.533  71.007  26.358  0.00  0.00    +0.121 A 
ATOM      6  C   LIG    1      -38.530  71.372  24.998  0.00  0.00    +0.004 A 
ATOM      7  C   LIG    1      -37.589  70.713  24.186  0.00  0.00    +0.041 A 
ATOM      8  C   LIG    1      -36.726  69.775  24.769  0.00  0.00    +0.110 A 
ATOM      9  N   LIG    1      -35.725  69.015  24.225  0.00  0.00    -0.213 NA
ATOM     10  C   LIG    1      -35.227  68.331  25.227  0.00  0.00    +0.195 A 
BRANCH   6  11
ATOM     11  C   LIG    1      -39.451  72.397  24.451  0.00  0.00    +0.002 A 
ATOM     12  C   LIG    1      -40.598  72.066  23.721  0.00  0.00    +0.119 A 
ATOM     13  N   LIG    1      -41.487  72.954  23.203  0.00  0.00    -0.263 NA
ATOM     14  C   LIG    1      -41.229  74.259  23.409  0.00  0.00    +0.111 A 
ATOM     15  C   LIG    1      -40.128  74.714  24.106  0.00  0.00    +0.020 A 
ATOM     16  C   LIG    1      -39.238  73.774  24.630  0.00  0.00    +0.011 A 
ENDBRANCH   6  11
BRANCH  10  17
ATOM     17  N   LIG    1      -34.210  67.456  25.129  0.00  0.00    -0.329 N 
ATOM     18  H   LIG    1      -33.480  67.634  25.818  0.00  0.00    +0.145 HD
ATOM     19  H   LIG    1      -33.791  67.340  24.210  0.00  0.00    +0.145 HD
ENDBRANCH  10  17
ENDBRANCH   1   2
BRANCH   1  23
ATOM     20  C   LIG    1      -32.728  71.272  29.448  0.00  0.00    +0.162 A 
ATOM     21  C   LIG    1      -32.232  70.055  29.081  0.00  0.00    +0.162 A 
ATOM     22  C   LIG    1      -33.080  69.152  28.367  0.00  0.00    +0.054 A 
ATOM     23  C   LIG    1      -34.488  69.268  28.434  0.00  0.00    -0.024 A 
ATOM     24  C   LIG    1      -34.980  70.337  29.188  0.00  0.00    +0.009 A 
ATOM     25  C   LIG    1      -34.106  71.322  29.693  0.00  0.00    +0.050 A 
BRANCH  21  26
ATOM     26  O   LIG    1      -31.085  69.548  29.691  0.00  0.00    -0.491 OA
ATOM     27  C   LIG    1      -30.942  68.732  30.929  0.00  0.00    +0.277 C 
ENDBRANCH  21  26
BRANCH  20  28
ATOM     28  O   LIG    1      -31.958  72.366  29.646  0.00  0.00    -0.484 OA
BRANCH  28  29
ATOM     29  C   LIG    1      -32.554  73.673  29.988  0.00  0.00    +0.266 C 
BRANCH  29  33
ATOM     30  C   LIG    1      -33.265  77.304  27.718  0.00  0.00    +0.214 A 
ATOM     31  N   LIG    1      -32.120  77.142  28.462  0.00  0.00    -0.221 NA
ATOM     32  C   LIG    1      -31.891  76.001  29.108  0.00  0.00    +0.121 A 
ATOM     33  C   LIG    1      -32.770  74.940  29.004  0.00  0.00    +0.008 A 
ATOM     34  C   LIG    1      -33.612  75.206  27.852  0.00  0.00    +0.013 A 
ATOM     35  C   LIG    1      -34.127  76.275  27.344  0.00  0.00    +0.067 A 
BRANCH  30  37
ATOM     36  C   LIG    1      -32.598  79.132  26.652  0.00  0.00    +0.279 C 
ATOM     37  O   LIG    1      -33.723  78.490  27.264  0.00  0.00    -0.480 OA
ENDBRANCH  30  37
ENDBRANCH  29  33
ENDBRANCH  28  29
ENDBRANCH  20  28
ENDBRANCH   1  23
TORSDOF 9
ENDMDL
MODEL 7
REMARK VINA RESULT:      -4.8     12.249     16.502
REMARK  Name = pdb/CHEMBL3673487.pdb
REMARK                            x       y       z     vdW  Elec       q    Type
REMARK                         _______ _______ _______ _____ _____    ______ ____
ROOT
ATOM      1  C   LIG    1      -35.788  78.638  28.784  0.00  0.00    +0.161 C 
ENDROOT
BRANCH   1   2
ATOM      2  N   LIG    1      -34.357  78.355  28.669  0.00  0.00    -0.293 N 
ATOM      3  C   LIG    1      -33.722  77.263  29.214  0.00  0.00    +0.162 A 
ATOM      4  N   LIG    1      -34.217  76.373  30.094  0.00  0.00    -0.235 NA
ATOM      5  C   LIG    1      -33.325  75.382  30.383  0.00  0.00    +0.121 A 
ATOM      6  C   LIG    1      -32.023  75.222  29.872  0.00  0.00    +0.004 A 
ATOM      7  C   LIG    1      -31.588  76.213  28.973  0.00  0.00    +0.041 A 
ATOM      8  C   LIG    1      -32.461  77.258  28.639  0.00  0.00    +0.110 A 
ATOM      9  N   LIG    1      -32.303  78.324  27.794  0.00  0.00    -0.213 NA
ATOM     10  C   LIG    1      -33.444  78.971  27.840  0.00  0.00    +0.195 A 
BRANCH   6  11
ATOM     11  C   LIG    1      -31.161  74.074  30.244  0.00  0.00    +0.002 A 
ATOM     12  C   LIG    1      -30.264  74.122  31.317  0.00  0.00    +0.119 A 
ATOM     13  N   LIG    1      -29.456  73.105  31.716  0.00  0.00    -0.263 NA
ATOM     14  C   LIG    1      -29.527  71.962  31.009  0.00  0.00    +0.111 A 
ATOM     15  C   LIG    1      -30.367  71.790  29.926  0.00  0.00    +0.020 A 
ATOM     16  C   LIG    1      -31.188  72.855  29.548  0.00  0.00    +0.011 A 
ENDBRANCH   6  11
BRANCH  10  17
ATOM     17  N   LIG    1      -33.718  80.090  27.146  0.00  0.00    -0.329 N 
ATOM     18  H   LIG    1      -32.895  80.680  27.023  0.00  0.00    +0.145 HD
ATOM     19  H   LIG    1      -34.497  80.656  27.473  0.00  0.00    +0.145 HD
ENDBRANCH  10  17
ENDBRANCH   1   2
BRANCH   1  23
ATOM     20  C   LIG    1      -38.117  76.915  25.505  0.00  0.00    +0.162 A 
ATOM     21  C   LIG    1      -38.612  77.984  26.193  0.00  0.00    +0.162 A 
ATOM     22  C   LIG    1      -37.765  78.650  27.134  0.00  0.00    +0.054 A 
ATOM     23  C   LIG    1      -36.649  77.992  27.702  0.00  0.00    -0.024 A 
ATOM     24  C   LIG    1      -36.407  76.693  27.248  0.00  0.00    +0.009 A 
ATOM     25  C   LIG    1      -37.139  76.161  26.167  0.00  0.00    +0.050 A 
BRANCH  21  26
ATOM     26  O   LIG    1      -39.987  78.199  26.270  0.00  0.00    -0.491 OA
ATOM     27  C   LIG    1      -40.787  79.408  25.930  0.00  0.00    +0.277 C 
ENDBRANCH  21  26
BRANCH  20  28
ATOM     28  O   LIG    1      -38.571  76.531  24.290  0.00  0.00    -0.484 OA
BRANCH  28  29
ATOM     29  C   LIG    1      -39.768  75.677  24.152  0.00  0.00    +0.266 C 
BRANCH  29  33
ATOM     30  C   LIG    1      -39.582  71.348  23.917  0.00  0.00    +0.214 A 
ATOM     31  N   LIG    1      -38.697  72.057  24.695  0.00  0.00    -0.221 NA
ATOM     32  C   LIG    1      -38.803  73.380  24.800  0.00  0.00    +0.121 A 
ATOM     33  C   LIG    1      -39.829  74.060  24.174  0.00  0.00    +0.008 A 
ATOM     34  C   LIG    1      -40.830  73.071  23.818  0.00  0.00    +0.013 A 
ATOM     35  C   LIG    1      -40.778  71.849  23.407  0.00  0.00    +0.067 A 
BRANCH  30  37
ATOM     36  C   LIG    1      -37.986  69.898  23.390  0.00  0.00    +0.279 C 
ATOM     37  O   LIG    1      -39.402  70.069  23.524  0.00  0.00    -0.480 OA
ENDBRANCH  30  37
ENDBRANCH  29  33
ENDBRANCH  28  29
ENDBRANCH  20  28
ENDBRANCH   1  23
TORSDOF 9
ENDMDL
MODEL 8
REMARK VINA RESULT:      -4.7     16.398     19.511
REMARK  Name = pdb/CHEMBL3673487.pdb
REMARK                            x       y       z     vdW  Elec       q    Type
REMARK                         _______ _______ _______ _____ _____    ______ ____
ROOT
ATOM      1  C   LIG    1      -22.691  78.283  13.426  0.00  0.00    +0.161 C 
ENDROOT
BRANCH   1   2
ATOM      2  N   LIG    1      -23.057  76.966  13.948  0.00  0.00    -0.293 N 
ATOM      3  C   LIG    1      -22.264  76.192  14.764  0.00  0.00    +0.162 A 
ATOM      4  N   LIG    1      -20.969  76.380  15.078  0.00  0.00    -0.235 NA
ATOM      5  C   LIG    1      -20.510  75.445  15.960  0.00  0.00    +0.121 A 
ATOM      6  C   LIG    1      -21.228  74.377  16.530  0.00  0.00    +0.004 A 
ATOM      7  C   LIG    1      -22.570  74.252  16.127  0.00  0.00    +0.041 A 
ATOM      8  C   LIG    1      -23.098  75.183  15.221  0.00  0.00    +0.110 A 
ATOM      9  N   LIG    1      -24.352  75.303  14.684  0.00  0.00    -0.213 NA
ATOM     10  C   LIG    1      -24.298  76.367  13.917  0.00  0.00    +0.195 A 
BRANCH   6  11
ATOM     11  C   LIG    1      -20.618  73.444  17.508  0.00  0.00    +0.002 A 
ATOM     12  C   LIG    1      -21.376  72.540  18.260  0.00  0.00    +0.119 A 
ATOM     13  N   LIG    1      -20.879  71.652  19.162  0.00  0.00    -0.263 NA
ATOM     14  C   LIG    1      -19.546  71.657  19.345  0.00  0.00    +0.111 A 
ATOM     15  C   LIG    1      -18.690  72.505  18.669  0.00  0.00    +0.020 A 
ATOM     16  C   LIG    1      -19.235  73.400  17.745  0.00  0.00    +0.011 A 
ENDBRANCH   6  11
BRANCH  10  17
ATOM     17  N   LIG    1      -25.330  76.847  13.200  0.00  0.00    -0.329 N 
ATOM     18  H   LIG    1      -25.515  77.830  13.401  0.00  0.00    +0.145 HD
ATOM     19  H   LIG    1      -26.199  76.322  13.236  0.00  0.00    +0.145 HD
ENDBRANCH  10  17
ENDBRANCH   1   2
BRANCH   1  23
ATOM     20  C   LIG    1      -22.046  81.482  16.341  0.00  0.00    +0.162 A 
ATOM     21  C   LIG    1      -21.017  81.087  15.537  0.00  0.00    +0.162 A 
ATOM     22  C   LIG    1      -21.289  80.175  14.468  0.00  0.00    +0.054 A 
ATOM     23  C   LIG    1      -22.428  79.337  14.498  0.00  0.00    -0.024 A 
ATOM     24  C   LIG    1      -23.280  79.499  15.595  0.00  0.00    +0.009 A 
ATOM     25  C   LIG    1      -23.083  80.556  16.507  0.00  0.00    +0.050 A 
BRANCH  21  26
ATOM     26  O   LIG    1      -19.696  81.252  15.949  0.00  0.00    -0.491 OA
ATOM     27  C   LIG    1      -18.583  80.264  16.013  0.00  0.00    +0.277 C 
ENDBRANCH  21  26
BRANCH  20  28
ATOM     28  O   LIG    1      -22.063  82.656  17.013  0.00  0.00    -0.484 OA
BRANCH  28  29
ATOM     29  C   LIG    1      -22.875  83.797  16.547  0.00  0.00    +0.266 C 
BRANCH  29  33
ATOM     30  C   LIG    1      -21.448  86.471  13.441  0.00  0.00    +0.214 A 
ATOM     31  N   LIG    1      -21.775  85.165  13.160  0.00  0.00    -0.221 NA
ATOM     32  C   LIG    1      -22.263  84.374  14.113  0.00  0.00    +0.121 A 
ATOM     33  C   LIG    1      -22.500  84.859  15.384  0.00  0.00    +0.008 A 
ATOM     34  C   LIG    1      -22.500  86.307  15.286  0.00  0.00    +0.013 A 
ATOM     35  C   LIG    1      -21.823  87.159  14.593  0.00  0.00    +0.067 A 
BRANCH  30  37
ATOM     36  C   LIG    1      -19.426  87.373  13.287  0.00  0.00    +0.279 C 
ATOM     37  O   LIG    1      -20.701  87.262  12.642  0.00  0.00    -0.480 OA
ENDBRANCH  30  37
ENDBRANCH  29  33
ENDBRANCH  28  29
ENDBRANCH  20  28
ENDBRANCH   1  23
TORSDOF 9
ENDMDL
MODEL 9
REMARK VINA RESULT:      -4.7     18.330     21.085
REMARK  Name = pdb/CHEMBL3673487.pdb
REMARK                            x       y       z     vdW  Elec       q    Type
REMARK                         _______ _______ _______ _____ _____    ______ ____
ROOT
ATOM      1  C   LIG    1      -33.004  94.746  24.873  0.00  0.00    +0.161 C 
ENDROOT
BRANCH   1   2
ATOM      2  N   LIG    1      -32.052  94.410  23.814  0.00  0.00    -0.293 N 
ATOM      3  C   LIG    1      -32.384  93.849  22.603  0.00  0.00    +0.162 A 
ATOM      4  N   LIG    1      -33.569  93.329  22.229  0.00  0.00    -0.235 NA
ATOM      5  C   LIG    1      -33.560  92.905  20.932  0.00  0.00    +0.121 A 
ATOM      6  C   LIG    1      -32.493  92.962  20.016  0.00  0.00    +0.004 A 
ATOM      7  C   LIG    1      -31.291  93.504  20.505  0.00  0.00    +0.041 A 
ATOM      8  C   LIG    1      -31.238  93.957  21.831  0.00  0.00    +0.110 A 
ATOM      9  N   LIG    1      -30.220  94.531  22.544  0.00  0.00    -0.213 NA
ATOM     10  C   LIG    1      -30.727  94.780  23.729  0.00  0.00    +0.195 A 
BRANCH   6  11
ATOM     11  C   LIG    1      -32.625  92.493  18.615  0.00  0.00    +0.002 A 
ATOM     12  C   LIG    1      -31.937  93.091  17.554  0.00  0.00    +0.119 A 
ATOM     13  N   LIG    1      -32.005  92.704  16.253  0.00  0.00    -0.263 NA
ATOM     14  C   LIG    1      -32.808  91.662  15.971  0.00  0.00    +0.111 A 
ATOM     15  C   LIG    1      -33.544  90.991  16.929  0.00  0.00    +0.020 A 
ATOM     16  C   LIG    1      -33.446  91.412  18.257  0.00  0.00    +0.011 A 
ENDBRANCH   6  11
BRANCH  10  17
ATOM     17  N   LIG    1      -30.056  95.354  24.744  0.00  0.00    -0.329 N 
ATOM     18  H   LIG    1      -30.409  95.060  25.655  0.00  0.00    +0.145 HD
ATOM     19  H   LIG    1      -29.967  96.366  24.723  0.00  0.00    +0.145 HD
ENDBRANCH  10  17
ENDBRANCH   1   2
BRANCH   1  23
ATOM     20  C   LIG    1      -34.223  91.193  27.117  0.00  0.00    +0.162 A 
ATOM     21  C   LIG    1      -35.175  92.010  26.580  0.00  0.00    +0.162 A 
ATOM     22  C   LIG    1      -34.766  93.058  25.698  0.00  0.00    +0.054 A 
ATOM     23  C   LIG    1      -33.444  93.561  25.728  0.00  0.00    -0.024 A 
ATOM     24  C   LIG    1      -32.570  92.936  26.623  0.00  0.00    +0.009 A 
ATOM     25  C   LIG    1      -32.962  91.771  27.313  0.00  0.00    +0.050 A 
BRANCH  21  26
ATOM     26  O   LIG    1      -36.448  92.077  27.146  0.00  0.00    -0.491 OA
ATOM     27  C   LIG    1      -37.651  91.236  26.895  0.00  0.00    +0.277 C 
ENDBRANCH  21  26
BRANCH  20  28
ATOM     28  O   LIG    1      -34.464  89.924  27.518  0.00  0.00    -0.484 OA
BRANCH  28  29
ATOM     29  C   LIG    1      -34.061  89.453  28.858  0.00  0.00    +0.266 C 
BRANCH  29  33
ATOM     30  C   LIG    1      -31.759  85.983  30.082  0.00  0.00    +0.214 A 
ATOM     31  N   LIG    1      -32.774  85.875  29.160  0.00  0.00    -0.221 NA
ATOM     32  C   LIG    1      -33.433  86.957  28.754  0.00  0.00    +0.121 A 
ATOM     33  C   LIG    1      -33.081  88.213  29.209  0.00  0.00    +0.008 A 
ATOM     34  C   LIG    1      -31.754  88.092  29.785  0.00  0.00    +0.013 A 
ATOM     35  C   LIG    1      -31.151  87.176  30.465  0.00  0.00    +0.067 A 
BRANCH  30  37
ATOM     36  C   LIG    1      -31.582  85.147  32.130  0.00  0.00    +0.279 C 
ATOM     37  O   LIG    1      -31.224  84.944  30.758  0.00  0.00    -0.480 OA
ENDBRANCH  30  37
ENDBRANCH  29  33
ENDBRANCH  28  29
ENDBRANCH  20  28
ENDBRANCH   1  23
TORSDOF 9
ENDMDL
