MODEL 1
REMARK VINA RESULT:      -6.4      0.000      0.000
REMARK  Name = pdb/CHEMBL3671398.pdb
REMARK                            x       y       z     vdW  Elec       q    Type
REMARK                         _______ _______ _______ _____ _____    ______ ____
ROOT
ATOM      1  C   LIG    1      -20.190  76.891  30.610  0.00  0.00    +0.042 A 
ATOM      2  C   LIG    1      -20.203  77.737  31.727  0.00  0.00    +0.038 A 
ATOM      3  C   LIG    1      -18.995  78.167  32.297  0.00  0.00    +0.052 A 
ATOM      4  C   LIG    1      -17.817  77.722  31.698  0.00  0.00    +0.134 A 
ATOM      5  N   LIG    1      -17.774  76.862  30.650  0.00  0.00    -0.261 NA
ATOM      6  C   LIG    1      -18.957  76.446  30.151  0.00  0.00    +0.122 A 
ENDROOT
BRANCH   3   7
ATOM      7  N   LIG    1      -19.050  79.020  33.424  0.00  0.00    -0.284 N 
ATOM      8  H   LIG    1      -18.821  79.995  33.267  0.00  0.00    +0.155 HD
ATOM      9  C   LIG    1      -19.441  78.662  34.706  0.00  0.00    +0.222 C 
ATOM     10  O   LIG    1      -19.850  77.553  35.044  0.00  0.00    -0.275 OA
BRANCH   9  11
ATOM     11  C   LIG    1      -19.341  79.792  35.722  0.00  0.00    +0.131 C 
BRANCH  11  12
ATOM     12  C   LIG    1      -20.613  80.590  35.897  0.00  0.00    -0.039 A 
ATOM     13  C   LIG    1      -20.642  81.673  36.790  0.00  0.00    +0.005 A 
ATOM     14  C   LIG    1      -21.813  82.418  36.968  0.00  0.00    +0.019 A 
ATOM     15  C   LIG    1      -22.974  82.073  36.273  0.00  0.00    +0.052 A 
ATOM     16  C   LIG    1      -22.963  80.986  35.400  0.00  0.00    +0.019 A 
ATOM     17  C   LIG    1      -21.793  80.242  35.223  0.00  0.00    +0.005 A 
BRANCH  15  18
ATOM     18  C   LIG    1      -24.182  82.828  36.467  0.00  0.00    +0.099 C 
ATOM     19  N   LIG    1      -25.154  83.433  36.622  0.00  0.00    -0.191 NA
ENDBRANCH  15  18
ENDBRANCH  11  12
ENDBRANCH   9  11
ENDBRANCH   3   7
BRANCH   1  20
ATOM     20  C   LIG    1      -21.458  76.458  29.959  0.00  0.00    +0.197 C 
ATOM     21  O   LIG    1      -21.545  76.534  28.736  0.00  0.00    -0.287 OA
BRANCH  20  29
ATOM     22  N   LIG    1      -23.722  74.729  32.286  0.00  0.00    -0.326 N 
ATOM     23  C   LIG    1      -24.580  75.697  31.803  0.00  0.00    +0.147 A 
ATOM     24  N   LIG    1      -25.863  75.864  32.164  0.00  0.00    -0.197 NA
ATOM     25  C   LIG    1      -26.461  76.886  31.546  0.00  0.00    +0.214 A 
ATOM     26  N   LIG    1      -25.884  77.750  30.699  0.00  0.00    -0.222 NA
ATOM     27  C   LIG    1      -24.587  77.558  30.357  0.00  0.00    +0.126 A 
ATOM     28  C   LIG    1      -23.881  76.486  30.896  0.00  0.00    +0.048 A 
ATOM     29  C   LIG    1      -22.561  75.959  30.783  0.00  0.00    +0.051 A 
ATOM     30  C   LIG    1      -22.536  74.829  31.589  0.00  0.00    +0.100 A 
BRANCH  22  32
ATOM     31  C   LIG    1      -24.315  74.553  34.704  0.00  0.00    +0.034 C 
ATOM     32  C   LIG    1      -23.999  73.794  33.400  0.00  0.00    +0.039 C 
ATOM     33  C   LIG    1      -25.214  72.880  33.098  0.00  0.00    +0.034 C 
ATOM     34  C   LIG    1      -22.790  72.861  33.630  0.00  0.00    +0.034 C 
ENDBRANCH  22  32
BRANCH  25  35
ATOM     35  N   LIG    1      -27.793  77.099  31.838  0.00  0.00    -0.327 N 
ATOM     36  H   LIG    1      -27.965  78.087  31.956  0.00  0.00    +0.145 HD
ATOM     37  H   LIG    1      -28.370  76.598  31.177  0.00  0.00    +0.145 HD
ENDBRANCH  25  35
ENDBRANCH  20  29
ENDBRANCH   1  20
TORSDOF 8
ENDMDL
MODEL 2
REMARK VINA RESULT:      -6.0     12.264     16.857
REMARK  Name = pdb/CHEMBL3671398.pdb
REMARK                            x       y       z     vdW  Elec       q    Type
REMARK                         _______ _______ _______ _____ _____    ______ ____
ROOT
ATOM      1  C   LIG    1      -34.259  73.142  29.551  0.00  0.00    +0.042 A 
ATOM      2  C   LIG    1      -34.960  72.996  28.345  0.00  0.00    +0.038 A 
ATOM      3  C   LIG    1      -34.946  71.768  27.668  0.00  0.00    +0.052 A 
ATOM      4  C   LIG    1      -34.221  70.730  28.252  0.00  0.00    +0.134 A 
ATOM      5  N   LIG    1      -33.491  70.856  29.388  0.00  0.00    -0.261 NA
ATOM      6  C   LIG    1      -33.505  72.063  29.992  0.00  0.00    +0.122 A 
ENDROOT
BRANCH   3   7
ATOM      7  N   LIG    1      -35.664  71.661  26.454  0.00  0.00    -0.284 N 
ATOM      8  H   LIG    1      -35.170  71.927  25.610  0.00  0.00    +0.155 HD
ATOM      9  C   LIG    1      -36.955  71.175  26.304  0.00  0.00    +0.222 C 
ATOM     10  O   LIG    1      -37.653  70.715  27.204  0.00  0.00    -0.275 OA
BRANCH   9  11
ATOM     11  C   LIG    1      -37.478  71.239  24.874  0.00  0.00    +0.131 C 
BRANCH  11  12
ATOM     12  C   LIG    1      -38.403  72.402  24.599  0.00  0.00    -0.039 A 
ATOM     13  C   LIG    1      -38.011  73.705  24.950  0.00  0.00    +0.005 A 
ATOM     14  C   LIG    1      -38.857  74.792  24.708  0.00  0.00    +0.019 A 
ATOM     15  C   LIG    1      -40.114  74.587  24.135  0.00  0.00    +0.052 A 
ATOM     16  C   LIG    1      -40.522  73.295  23.802  0.00  0.00    +0.019 A 
ATOM     17  C   LIG    1      -39.677  72.209  24.044  0.00  0.00    +0.005 A 
BRANCH  15  18
ATOM     18  C   LIG    1      -40.991  75.702  23.900  0.00  0.00    +0.099 C 
ATOM     19  N   LIG    1      -41.696  76.597  23.713  0.00  0.00    -0.191 NA
ENDBRANCH  15  18
ENDBRANCH  11  12
ENDBRANCH   9  11
ENDBRANCH   3   7
BRANCH   1  20
ATOM     20  C   LIG    1      -34.298  74.421  30.312  0.00  0.00    +0.197 C 
ATOM     21  O   LIG    1      -34.054  74.396  31.515  0.00  0.00    -0.287 OA
BRANCH  20  29
ATOM     22  N   LIG    1      -35.731  77.531  28.967  0.00  0.00    -0.326 N 
ATOM     23  C   LIG    1      -34.520  77.529  28.306  0.00  0.00    +0.147 A 
ATOM     24  N   LIG    1      -34.093  78.463  27.438  0.00  0.00    -0.197 NA
ATOM     25  C   LIG    1      -32.874  78.217  26.949  0.00  0.00    +0.214 A 
ATOM     26  N   LIG    1      -32.066  77.206  27.299  0.00  0.00    -0.222 NA
ATOM     27  C   LIG    1      -32.523  76.283  28.179  0.00  0.00    +0.126 A 
ATOM     28  C   LIG    1      -33.805  76.406  28.708  0.00  0.00    +0.048 A 
ATOM     29  C   LIG    1      -34.623  75.669  29.615  0.00  0.00    +0.051 A 
ATOM     30  C   LIG    1      -35.829  76.352  29.676  0.00  0.00    +0.100 A 
BRANCH  22  32
ATOM     31  C   LIG    1      -37.253  78.914  27.552  0.00  0.00    +0.034 C 
ATOM     32  C   LIG    1      -36.722  78.632  28.971  0.00  0.00    +0.039 C 
ATOM     33  C   LIG    1      -37.948  78.302  29.860  0.00  0.00    +0.034 C 
ATOM     34  C   LIG    1      -36.091  79.919  29.547  0.00  0.00    +0.034 C 
ENDBRANCH  22  32
BRANCH  25  35
ATOM     35  N   LIG    1      -32.381  79.115  26.023  0.00  0.00    -0.327 N 
ATOM     36  H   LIG    1      -31.393  78.959  25.888  0.00  0.00    +0.145 HD
ATOM     37  H   LIG    1      -32.973  79.117  25.204  0.00  0.00    +0.145 HD
ENDBRANCH  25  35
ENDBRANCH  20  29
ENDBRANCH   1  20
TORSDOF 8
ENDMDL
MODEL 3
REMARK VINA RESULT:      -6.0     12.858     17.110
REMARK  Name = pdb/CHEMBL3671398.pdb
REMARK                            x       y       z     vdW  Elec       q    Type
REMARK                         _______ _______ _______ _____ _____    ______ ____
ROOT
ATOM      1  C   LIG    1      -39.060  72.990  24.608  0.00  0.00    +0.042 A 
ATOM      2  C   LIG    1      -37.960  73.658  25.165  0.00  0.00    +0.038 A 
ATOM      3  C   LIG    1      -37.929  75.060  25.191  0.00  0.00    +0.052 A 
ATOM      4  C   LIG    1      -39.027  75.729  24.652  0.00  0.00    +0.134 A 
ATOM      5  N   LIG    1      -40.080  75.112  24.060  0.00  0.00    -0.261 NA
ATOM      6  C   LIG    1      -40.057  73.762  24.026  0.00  0.00    +0.122 A 
ENDROOT
BRANCH   3   7
ATOM      7  N   LIG    1      -36.802  75.697  25.761  0.00  0.00    -0.284 N 
ATOM      8  H   LIG    1      -36.110  76.057  25.114  0.00  0.00    +0.155 HD
ATOM      9  C   LIG    1      -36.583  75.925  27.111  0.00  0.00    +0.222 C 
ATOM     10  O   LIG    1      -37.366  75.650  28.018  0.00  0.00    -0.275 OA
BRANCH   9  11
ATOM     11  C   LIG    1      -35.245  76.585  27.419  0.00  0.00    +0.131 C 
BRANCH  11  12
ATOM     12  C   LIG    1      -34.209  75.652  28.004  0.00  0.00    -0.039 A 
ATOM     13  C   LIG    1      -33.052  76.179  28.601  0.00  0.00    +0.005 A 
ATOM     14  C   LIG    1      -32.081  75.330  29.141  0.00  0.00    +0.019 A 
ATOM     15  C   LIG    1      -32.243  73.945  29.071  0.00  0.00    +0.052 A 
ATOM     16  C   LIG    1      -33.378  73.411  28.461  0.00  0.00    +0.019 A 
ATOM     17  C   LIG    1      -34.348  74.259  27.921  0.00  0.00    +0.005 A 
BRANCH  15  18
ATOM     18  C   LIG    1      -31.238  73.071  29.612  0.00  0.00    +0.099 C 
ATOM     19  N   LIG    1      -30.430  72.368  30.045  0.00  0.00    -0.191 NA
ENDBRANCH  15  18
ENDBRANCH  11  12
ENDBRANCH   9  11
ENDBRANCH   3   7
BRANCH   1  20
ATOM     20  C   LIG    1      -39.138  71.503  24.611  0.00  0.00    +0.197 C 
ATOM     21  O   LIG    1      -40.217  70.971  24.363  0.00  0.00    -0.287 OA
BRANCH  20  29
ATOM     22  N   LIG    1      -36.203  69.805  26.039  0.00  0.00    -0.326 N 
ATOM     23  C   LIG    1      -36.179  69.279  24.763  0.00  0.00    +0.147 A 
ATOM     24  N   LIG    1      -35.283  68.394  24.292  0.00  0.00    -0.197 NA
ATOM     25  C   LIG    1      -35.499  68.045  23.021  0.00  0.00    +0.214 A 
ATOM     26  N   LIG    1      -36.527  68.433  22.253  0.00  0.00    -0.222 NA
ATOM     27  C   LIG    1      -37.415  69.322  22.757  0.00  0.00    +0.126 A 
ATOM     28  C   LIG    1      -37.254  69.802  24.054  0.00  0.00    +0.048 A 
ATOM     29  C   LIG    1      -37.938  70.716  24.909  0.00  0.00    +0.051 A 
ATOM     30  C   LIG    1      -37.206  70.751  26.087  0.00  0.00    +0.100 A 
BRANCH  22  32
ATOM     31  C   LIG    1      -35.567  70.287  28.404  0.00  0.00    +0.034 C 
ATOM     32  C   LIG    1      -35.350  69.384  27.174  0.00  0.00    +0.039 C 
ATOM     33  C   LIG    1      -35.654  67.930  27.616  0.00  0.00    +0.034 C 
ATOM     34  C   LIG    1      -33.861  69.422  26.767  0.00  0.00    +0.034 C 
ENDBRANCH  22  32
BRANCH  25  35
ATOM     35  N   LIG    1      -34.598  67.165  22.455  0.00  0.00    -0.327 N 
ATOM     36  H   LIG    1      -34.824  66.220  22.728  0.00  0.00    +0.145 HD
ATOM     37  H   LIG    1      -34.508  67.359  21.467  0.00  0.00    +0.145 HD
ENDBRANCH  25  35
ENDBRANCH  20  29
ENDBRANCH   1  20
TORSDOF 8
ENDMDL
MODEL 4
REMARK VINA RESULT:      -5.9     11.351     16.701
REMARK  Name = pdb/CHEMBL3671398.pdb
REMARK                            x       y       z     vdW  Elec       q    Type
REMARK                         _______ _______ _______ _____ _____    ______ ____
ROOT
ATOM      1  C   LIG    1      -35.031  77.143  27.566  0.00  0.00    +0.042 A 
ATOM      2  C   LIG    1      -36.115  76.603  26.859  0.00  0.00    +0.038 A 
ATOM      3  C   LIG    1      -37.382  77.198  26.953  0.00  0.00    +0.052 A 
ATOM      4  C   LIG    1      -37.494  78.329  27.761  0.00  0.00    +0.134 A 
ATOM      5  N   LIG    1      -36.476  78.842  28.497  0.00  0.00    -0.261 NA
ATOM      6  C   LIG    1      -35.281  78.221  28.404  0.00  0.00    +0.122 A 
ENDROOT
BRANCH   3   7
ATOM      7  N   LIG    1      -38.450  76.622  26.225  0.00  0.00    -0.284 N 
ATOM      8  H   LIG    1      -39.214  76.238  26.770  0.00  0.00    +0.155 HD
ATOM      9  C   LIG    1      -38.578  76.587  24.845  0.00  0.00    +0.222 C 
ATOM     10  O   LIG    1      -37.800  77.099  24.043  0.00  0.00    -0.275 OA
BRANCH   9  11
ATOM     11  C   LIG    1      -39.816  75.846  24.356  0.00  0.00    +0.131 C 
BRANCH  11  12
ATOM     12  C   LIG    1      -39.666  74.342  24.311  0.00  0.00    -0.039 A 
ATOM     13  C   LIG    1      -38.487  73.743  24.784  0.00  0.00    +0.005 A 
ATOM     14  C   LIG    1      -38.329  72.354  24.743  0.00  0.00    +0.019 A 
ATOM     15  C   LIG    1      -39.337  71.550  24.207  0.00  0.00    +0.052 A 
ATOM     16  C   LIG    1      -40.503  72.136  23.714  0.00  0.00    +0.019 A 
ATOM     17  C   LIG    1      -40.660  73.524  23.754  0.00  0.00    +0.005 A 
BRANCH  15  18
ATOM     18  C   LIG    1      -39.169  70.123  24.150  0.00  0.00    +0.099 C 
ATOM     19  N   LIG    1      -39.033  68.977  24.107  0.00  0.00    -0.191 NA
ENDBRANCH  15  18
ENDBRANCH  11  12
ENDBRANCH   9  11
ENDBRANCH   3   7
BRANCH   1  20
ATOM     20  C   LIG    1      -33.667  76.558  27.445  0.00  0.00    +0.197 C 
ATOM     21  O   LIG    1      -32.888  77.049  26.633  0.00  0.00    -0.287 OA
BRANCH  20  29
ATOM     22  N   LIG    1      -33.246  73.345  29.188  0.00  0.00    -0.326 N 
ATOM     23  C   LIG    1      -32.237  74.071  29.790  0.00  0.00    +0.147 A 
ATOM     24  N   LIG    1      -31.396  73.617  30.735  0.00  0.00    -0.197 NA
ATOM     25  C   LIG    1      -30.507  74.529  31.138  0.00  0.00    +0.214 A 
ATOM     26  N   LIG    1      -30.357  75.766  30.643  0.00  0.00    -0.222 NA
ATOM     27  C   LIG    1      -31.217  76.193  29.688  0.00  0.00    +0.126 A 
ATOM     28  C   LIG    1      -32.225  75.344  29.234  0.00  0.00    +0.048 A 
ATOM     29  C   LIG    1      -33.290  75.421  28.290  0.00  0.00    +0.051 A 
ATOM     30  C   LIG    1      -33.944  74.199  28.359  0.00  0.00    +0.100 A 
BRANCH  22  32
ATOM     31  C   LIG    1      -34.315  71.331  28.173  0.00  0.00    +0.034 C 
ATOM     32  C   LIG    1      -33.495  71.895  29.351  0.00  0.00    +0.039 C 
ATOM     33  C   LIG    1      -32.175  71.086  29.416  0.00  0.00    +0.034 C 
ATOM     34  C   LIG    1      -34.246  71.625  30.673  0.00  0.00    +0.034 C 
ENDBRANCH  22  32
BRANCH  25  35
ATOM     35  N   LIG    1      -29.630  74.148  32.134  0.00  0.00    -0.327 N 
ATOM     36  H   LIG    1      -28.943  73.510  31.760  0.00  0.00    +0.145 HD
ATOM     37  H   LIG    1      -29.295  74.967  32.622  0.00  0.00    +0.145 HD
ENDBRANCH  25  35
ENDBRANCH  20  29
ENDBRANCH   1  20
TORSDOF 8
ENDMDL
MODEL 5
REMARK VINA RESULT:      -5.9     13.206     17.469
REMARK  Name = pdb/CHEMBL3671398.pdb
REMARK                            x       y       z     vdW  Elec       q    Type
REMARK                         _______ _______ _______ _____ _____    ______ ____
ROOT
ATOM      1  C   LIG    1      -39.174  74.241  25.074  0.00  0.00    +0.042 A 
ATOM      2  C   LIG    1      -37.968  74.705  25.619  0.00  0.00    +0.038 A 
ATOM      3  C   LIG    1      -37.535  76.014  25.356  0.00  0.00    +0.052 A 
ATOM      4  C   LIG    1      -38.355  76.803  24.550  0.00  0.00    +0.134 A 
ATOM      5  N   LIG    1      -39.498  76.365  23.966  0.00  0.00    -0.261 NA
ATOM      6  C   LIG    1      -39.863  75.090  24.218  0.00  0.00    +0.122 A 
ENDROOT
BRANCH   3   7
ATOM      7  N   LIG    1      -36.313  76.444  25.924  0.00  0.00    -0.284 N 
ATOM      8  H   LIG    1      -35.545  76.599  25.281  0.00  0.00    +0.155 HD
ATOM      9  C   LIG    1      -36.085  76.728  27.262  0.00  0.00    +0.222 C 
ATOM     10  O   LIG    1      -36.930  76.695  28.153  0.00  0.00    -0.275 OA
BRANCH   9  11
ATOM     11  C   LIG    1      -34.645  77.116  27.575  0.00  0.00    +0.131 C 
BRANCH  11  12
ATOM     12  C   LIG    1      -33.807  75.996  28.147  0.00  0.00    -0.039 A 
ATOM     13  C   LIG    1      -32.614  76.292  28.826  0.00  0.00    +0.005 A 
ATOM     14  C   LIG    1      -31.823  75.267  29.356  0.00  0.00    +0.019 A 
ATOM     15  C   LIG    1      -32.203  73.933  29.191  0.00  0.00    +0.052 A 
ATOM     16  C   LIG    1      -33.375  73.627  28.499  0.00  0.00    +0.019 A 
ATOM     17  C   LIG    1      -34.164  74.651  27.970  0.00  0.00    +0.005 A 
BRANCH  15  18
ATOM     18  C   LIG    1      -31.383  72.878  29.721  0.00  0.00    +0.099 C 
ATOM     19  N   LIG    1      -30.726  72.029  30.147  0.00  0.00    -0.191 NA
ENDBRANCH  15  18
ENDBRANCH  11  12
ENDBRANCH   9  11
ENDBRANCH   3   7
BRANCH   1  20
ATOM     20  C   LIG    1      -39.677  72.873  25.376  0.00  0.00    +0.197 C 
ATOM     21  O   LIG    1      -40.664  72.758  26.098  0.00  0.00    -0.287 OA
BRANCH  20  29
ATOM     22  N   LIG    1      -38.524  69.932  23.491  0.00  0.00    -0.326 N 
ATOM     23  C   LIG    1      -37.464  70.080  24.364  0.00  0.00    +0.147 A 
ATOM     24  N   LIG    1      -36.368  69.303  24.411  0.00  0.00    -0.197 NA
ATOM     25  C   LIG    1      -35.493  69.675  25.350  0.00  0.00    +0.214 A 
ATOM     26  N   LIG    1      -35.591  70.748  26.148  0.00  0.00    -0.222 NA
ATOM     27  C   LIG    1      -36.706  71.513  26.074  0.00  0.00    +0.126 A 
ATOM     28  C   LIG    1      -37.714  71.183  25.171  0.00  0.00    +0.048 A 
ATOM     29  C   LIG    1      -38.991  71.708  24.813  0.00  0.00    +0.051 A 
ATOM     30  C   LIG    1      -39.489  70.855  23.838  0.00  0.00    +0.100 A 
BRANCH  22  32
ATOM     31  C   LIG    1      -39.778  69.322  21.421  0.00  0.00    +0.034 C 
ATOM     32  C   LIG    1      -38.587  68.997  22.345  0.00  0.00    +0.039 C 
ATOM     33  C   LIG    1      -37.305  69.061  21.476  0.00  0.00    +0.034 C 
ATOM     34  C   LIG    1      -38.710  67.542  22.847  0.00  0.00    +0.034 C 
ENDBRANCH  22  32
BRANCH  25  35
ATOM     35  N   LIG    1      -34.356  68.903  25.484  0.00  0.00    -0.327 N 
ATOM     36  H   LIG    1      -34.255  68.300  24.681  0.00  0.00    +0.145 HD
ATOM     37  H   LIG    1      -33.573  69.492  25.730  0.00  0.00    +0.145 HD
ENDBRANCH  25  35
ENDBRANCH  20  29
ENDBRANCH   1  20
TORSDOF 8
ENDMDL
MODEL 6
REMARK VINA RESULT:      -5.9     17.332     21.217
REMARK  Name = pdb/CHEMBL3671398.pdb
REMARK                            x       y       z     vdW  Elec       q    Type
REMARK                         _______ _______ _______ _____ _____    ______ ____
ROOT
ATOM      1  C   LIG    1      -39.380  68.083  21.076  0.00  0.00    +0.042 A 
ATOM      2  C   LIG    1      -39.787  69.379  21.423  0.00  0.00    +0.038 A 
ATOM      3  C   LIG    1      -41.153  69.695  21.482  0.00  0.00    +0.052 A 
ATOM      4  C   LIG    1      -42.054  68.672  21.190  0.00  0.00    +0.134 A 
ATOM      5  N   LIG    1      -41.690  67.425  20.801  0.00  0.00    -0.261 NA
ATOM      6  C   LIG    1      -40.367  67.170  20.725  0.00  0.00    +0.122 A 
ENDROOT
BRANCH   3   7
ATOM      7  N   LIG    1      -41.522  71.014  21.835  0.00  0.00    -0.284 N 
ATOM      8  H   LIG    1      -41.443  71.717  21.108  0.00  0.00    +0.155 HD
ATOM      9  C   LIG    1      -42.035  71.424  23.057  0.00  0.00    +0.222 C 
ATOM     10  O   LIG    1      -42.294  70.687  24.005  0.00  0.00    -0.275 OA
BRANCH   9  11
ATOM     11  C   LIG    1      -42.284  72.924  23.152  0.00  0.00    +0.131 C 
BRANCH  11  12
ATOM     12  C   LIG    1      -41.110  73.720  23.675  0.00  0.00    -0.039 A 
ATOM     13  C   LIG    1      -41.145  75.123  23.637  0.00  0.00    +0.005 A 
ATOM     14  C   LIG    1      -40.064  75.874  24.111  0.00  0.00    +0.019 A 
ATOM     15  C   LIG    1      -38.928  75.232  24.606  0.00  0.00    +0.052 A 
ATOM     16  C   LIG    1      -38.874  73.838  24.628  0.00  0.00    +0.019 A 
ATOM     17  C   LIG    1      -39.953  73.088  24.154  0.00  0.00    +0.005 A 
BRANCH  15  18
ATOM     18  C   LIG    1      -37.810  76.003  25.079  0.00  0.00    +0.099 C 
ATOM     19  N   LIG    1      -36.914  76.624  25.460  0.00  0.00    -0.191 NA
ENDBRANCH  15  18
ENDBRANCH  11  12
ENDBRANCH   9  11
ENDBRANCH   3   7
BRANCH   1  20
ATOM     20  C   LIG    1      -37.939  67.710  21.053  0.00  0.00    +0.197 C 
ATOM     21  O   LIG    1      -37.410  67.477  19.969  0.00  0.00    -0.287 OA
BRANCH  20  29
ATOM     22  N   LIG    1      -36.213  68.229  24.260  0.00  0.00    -0.326 N 
ATOM     23  C   LIG    1      -36.045  66.865  24.123  0.00  0.00    +0.147 A 
ATOM     24  N   LIG    1      -35.411  66.059  24.991  0.00  0.00    -0.197 NA
ATOM     25  C   LIG    1      -35.402  64.776  24.615  0.00  0.00    +0.214 A 
ATOM     26  N   LIG    1      -36.008  64.259  23.537  0.00  0.00    -0.222 NA
ATOM     27  C   LIG    1      -36.642  65.098  22.683  0.00  0.00    +0.126 A 
ATOM     28  C   LIG    1      -36.663  66.466  22.944  0.00  0.00    +0.048 A 
ATOM     29  C   LIG    1      -37.192  67.629  22.311  0.00  0.00    +0.051 A 
ATOM     30  C   LIG    1      -36.815  68.698  23.111  0.00  0.00    +0.100 A 
BRANCH  22  32
ATOM     31  C   LIG    1      -36.455  68.416  26.737  0.00  0.00    +0.034 C 
ATOM     32  C   LIG    1      -35.869  69.036  25.453  0.00  0.00    +0.039 C 
ATOM     33  C   LIG    1      -34.337  69.143  25.656  0.00  0.00    +0.034 C 
ATOM     34  C   LIG    1      -36.397  70.479  25.294  0.00  0.00    +0.034 C 
ENDBRANCH  22  32
BRANCH  25  35
ATOM     35  N   LIG    1      -34.738  63.890  25.440  0.00  0.00    -0.327 N 
ATOM     36  H   LIG    1      -35.331  63.635  26.216  0.00  0.00    +0.145 HD
ATOM     37  H   LIG    1      -34.343  63.143  24.886  0.00  0.00    +0.145 HD
ENDBRANCH  25  35
ENDBRANCH  20  29
ENDBRANCH   1  20
TORSDOF 8
ENDMDL
MODEL 7
REMARK VINA RESULT:      -5.8     12.535     17.680
REMARK  Name = pdb/CHEMBL3671398.pdb
REMARK                            x       y       z     vdW  Elec       q    Type
REMARK                         _______ _______ _______ _____ _____    ______ ____
ROOT
ATOM      1  C   LIG    1      -34.061  71.804  28.347  0.00  0.00    +0.042 A 
ATOM      2  C   LIG    1      -34.875  71.569  27.230  0.00  0.00    +0.038 A 
ATOM      3  C   LIG    1      -34.846  70.322  26.589  0.00  0.00    +0.052 A 
ATOM      4  C   LIG    1      -33.990  69.357  27.117  0.00  0.00    +0.134 A 
ATOM      5  N   LIG    1      -33.153  69.572  28.162  0.00  0.00    -0.261 NA
ATOM      6  C   LIG    1      -33.188  70.795  28.732  0.00  0.00    +0.122 A 
ENDROOT
BRANCH   3   7
ATOM      7  N   LIG    1      -35.682  70.125  25.465  0.00  0.00    -0.284 N 
ATOM      8  H   LIG    1      -35.252  70.244  24.554  0.00  0.00    +0.155 HD
ATOM      9  C   LIG    1      -37.012  69.731  25.489  0.00  0.00    +0.222 C 
ATOM     10  O   LIG    1      -37.652  69.442  26.498  0.00  0.00    -0.275 OA
BRANCH   9  11
ATOM     11  C   LIG    1      -37.662  69.660  24.113  0.00  0.00    +0.131 C 
BRANCH  11  12
ATOM     12  C   LIG    1      -38.762  70.672  23.890  0.00  0.00    -0.039 A 
ATOM     13  C   LIG    1      -38.622  71.977  24.389  0.00  0.00    +0.005 A 
ATOM     14  C   LIG    1      -39.633  72.925  24.196  0.00  0.00    +0.019 A 
ATOM     15  C   LIG    1      -40.805  72.572  23.524  0.00  0.00    +0.052 A 
ATOM     16  C   LIG    1      -40.963  71.272  23.042  0.00  0.00    +0.019 A 
ATOM     17  C   LIG    1      -39.954  70.326  23.236  0.00  0.00    +0.005 A 
BRANCH  15  18
ATOM     18  C   LIG    1      -41.851  73.540  23.338  0.00  0.00    +0.099 C 
ATOM     19  N   LIG    1      -42.693  74.317  23.188  0.00  0.00    -0.191 NA
ENDBRANCH  15  18
ENDBRANCH  11  12
ENDBRANCH   9  11
ENDBRANCH   3   7
BRANCH   1  20
ATOM     20  C   LIG    1      -34.108  73.103  29.074  0.00  0.00    +0.197 C 
ATOM     21  O   LIG    1      -33.720  73.139  30.238  0.00  0.00    -0.287 OA
BRANCH  20  29
ATOM     22  N   LIG    1      -36.022  75.739  27.364  0.00  0.00    -0.326 N 
ATOM     23  C   LIG    1      -34.796  76.367  27.461  0.00  0.00    +0.147 A 
ATOM     24  N   LIG    1      -34.507  77.603  27.019  0.00  0.00    -0.197 NA
ATOM     25  C   LIG    1      -33.242  77.967  27.250  0.00  0.00    +0.214 A 
ATOM     26  N   LIG    1      -32.320  77.258  27.916  0.00  0.00    -0.222 NA
ATOM     27  C   LIG    1      -32.643  76.018  28.352  0.00  0.00    +0.126 A 
ATOM     28  C   LIG    1      -33.918  75.510  28.114  0.00  0.00    +0.048 A 
ATOM     29  C   LIG    1      -34.614  74.296  28.390  0.00  0.00    +0.051 A 
ATOM     30  C   LIG    1      -35.876  74.450  27.834  0.00  0.00    +0.100 A 
BRANCH  22  32
ATOM     31  C   LIG    1      -37.407  77.815  27.386  0.00  0.00    +0.034 C 
ATOM     32  C   LIG    1      -37.286  76.357  26.902  0.00  0.00    +0.039 C 
ATOM     33  C   LIG    1      -37.385  76.380  25.355  0.00  0.00    +0.034 C 
ATOM     34  C   LIG    1      -38.497  75.545  27.411  0.00  0.00    +0.034 C 
ENDBRANCH  22  32
BRANCH  25  35
ATOM     35  N   LIG    1      -32.859  79.212  26.792  0.00  0.00    -0.327 N 
ATOM     36  H   LIG    1      -32.350  79.117  25.926  0.00  0.00    +0.145 HD
ATOM     37  H   LIG    1      -33.652  79.837  26.805  0.00  0.00    +0.145 HD
ENDBRANCH  25  35
ENDBRANCH  20  29
ENDBRANCH   1  20
TORSDOF 8
ENDMDL
MODEL 8
REMARK VINA RESULT:      -5.8      1.027      1.304
REMARK  Name = pdb/CHEMBL3671398.pdb
REMARK                            x       y       z     vdW  Elec       q    Type
REMARK                         _______ _______ _______ _____ _____    ______ ____
ROOT
ATOM      1  C   LIG    1      -20.026  77.152  30.732  0.00  0.00    +0.042 A 
ATOM      2  C   LIG    1      -20.338  78.039  31.773  0.00  0.00    +0.038 A 
ATOM      3  C   LIG    1      -19.311  78.645  32.511  0.00  0.00    +0.052 A 
ATOM      4  C   LIG    1      -18.001  78.328  32.155  0.00  0.00    +0.134 A 
ATOM      5  N   LIG    1      -17.670  77.435  31.189  0.00  0.00    -0.261 NA
ATOM      6  C   LIG    1      -18.687  76.849  30.524  0.00  0.00    +0.122 A 
ENDROOT
BRANCH   3   7
ATOM      7  N   LIG    1      -19.667  79.533  33.553  0.00  0.00    -0.284 N 
ATOM      8  H   LIG    1      -19.881  80.486  33.283  0.00  0.00    +0.155 HD
ATOM      9  C   LIG    1      -19.808  79.210  34.895  0.00  0.00    +0.222 C 
ATOM     10  O   LIG    1      -19.692  78.084  35.374  0.00  0.00    -0.275 OA
BRANCH   9  11
ATOM     11  C   LIG    1      -20.147  80.399  35.786  0.00  0.00    +0.131 C 
BRANCH  11  12
ATOM     12  C   LIG    1      -21.623  80.570  36.064  0.00  0.00    -0.039 A 
ATOM     13  C   LIG    1      -22.047  81.069  37.306  0.00  0.00    +0.005 A 
ATOM     14  C   LIG    1      -23.408  81.228  37.582  0.00  0.00    +0.019 A 
ATOM     15  C   LIG    1      -24.363  80.868  36.628  0.00  0.00    +0.052 A 
ATOM     16  C   LIG    1      -23.953  80.352  35.399  0.00  0.00    +0.019 A 
ATOM     17  C   LIG    1      -22.593  80.192  35.124  0.00  0.00    +0.005 A 
BRANCH  15  18
ATOM     18  C   LIG    1      -25.764  81.017  36.916  0.00  0.00    +0.099 C 
ATOM     19  N   LIG    1      -26.889  81.139  37.147  0.00  0.00    -0.191 NA
ENDBRANCH  15  18
ENDBRANCH  11  12
ENDBRANCH   9  11
ENDBRANCH   3   7
BRANCH   1  20
ATOM     20  C   LIG    1      -21.097  76.533  29.903  0.00  0.00    +0.197 C 
ATOM     21  O   LIG    1      -20.950  76.498  28.684  0.00  0.00    -0.287 OA
BRANCH  20  29
ATOM     22  N   LIG    1      -23.646  74.593  31.712  0.00  0.00    -0.326 N 
ATOM     23  C   LIG    1      -24.385  75.718  31.403  0.00  0.00    +0.147 A 
ATOM     24  N   LIG    1      -25.671  75.930  31.732  0.00  0.00    -0.197 NA
ATOM     25  C   LIG    1      -26.137  77.111  31.315  0.00  0.00    +0.214 A 
ATOM     26  N   LIG    1      -25.435  78.069  30.695  0.00  0.00    -0.222 NA
ATOM     27  C   LIG    1      -24.140  77.827  30.380  0.00  0.00    +0.126 A 
ATOM     28  C   LIG    1      -23.565  76.603  30.715  0.00  0.00    +0.048 A 
ATOM     29  C   LIG    1      -22.290  75.984  30.554  0.00  0.00    +0.051 A 
ATOM     30  C   LIG    1      -22.414  74.717  31.105  0.00  0.00    +0.100 A 
BRANCH  22  32
ATOM     31  C   LIG    1      -22.932  72.470  32.814  0.00  0.00    +0.034 C 
ATOM     32  C   LIG    1      -24.074  73.481  32.591  0.00  0.00    +0.039 C 
ATOM     33  C   LIG    1      -24.515  73.987  33.988  0.00  0.00    +0.034 C 
ATOM     34  C   LIG    1      -25.291  72.752  31.980  0.00  0.00    +0.034 C 
ENDBRANCH  22  32
BRANCH  25  35
ATOM     35  N   LIG    1      -27.463  77.388  31.585  0.00  0.00    -0.327 N 
ATOM     36  H   LIG    1      -27.887  77.840  30.788  0.00  0.00    +0.145 HD
ATOM     37  H   LIG    1      -27.914  76.562  31.952  0.00  0.00    +0.145 HD
ENDBRANCH  25  35
ENDBRANCH  20  29
ENDBRANCH   1  20
TORSDOF 8
ENDMDL
MODEL 9
REMARK VINA RESULT:      -5.8      1.888      2.512
REMARK  Name = pdb/CHEMBL3671398.pdb
REMARK                            x       y       z     vdW  Elec       q    Type
REMARK                         _______ _______ _______ _____ _____    ______ ____
ROOT
ATOM      1  C   LIG    1      -20.698  77.406  31.306  0.00  0.00    +0.042 A 
ATOM      2  C   LIG    1      -21.212  77.852  32.532  0.00  0.00    +0.038 A 
ATOM      3  C   LIG    1      -20.376  78.507  33.448  0.00  0.00    +0.052 A 
ATOM      4  C   LIG    1      -19.045  78.688  33.075  0.00  0.00    +0.134 A 
ATOM      5  N   LIG    1      -18.507  78.222  31.921  0.00  0.00    -0.261 NA
ATOM      6  C   LIG    1      -19.337  77.569  31.080  0.00  0.00    +0.122 A 
ENDROOT
BRANCH   3   7
ATOM      7  N   LIG    1      -20.933  78.941  34.674  0.00  0.00    -0.284 N 
ATOM      8  H   LIG    1      -20.337  78.873  35.492  0.00  0.00    +0.155 HD
ATOM      9  C   LIG    1      -22.188  79.502  34.853  0.00  0.00    +0.222 C 
ATOM     10  O   LIG    1      -22.992  79.753  33.958  0.00  0.00    -0.275 OA
BRANCH   9  11
ATOM     11  C   LIG    1      -22.525  79.816  36.305  0.00  0.00    +0.131 C 
BRANCH  11  12
ATOM     12  C   LIG    1      -21.654  80.881  36.932  0.00  0.00    -0.039 A 
ATOM     13  C   LIG    1      -20.774  80.541  37.973  0.00  0.00    +0.005 A 
ATOM     14  C   LIG    1      -19.965  81.514  38.567  0.00  0.00    +0.019 A 
ATOM     15  C   LIG    1      -20.043  82.843  38.145  0.00  0.00    +0.052 A 
ATOM     16  C   LIG    1      -20.928  83.195  37.126  0.00  0.00    +0.019 A 
ATOM     17  C   LIG    1      -21.737  82.223  36.533  0.00  0.00    +0.005 A 
BRANCH  15  18
ATOM     18  C   LIG    1      -19.223  83.847  38.766  0.00  0.00    +0.099 C 
ATOM     19  N   LIG    1      -18.566  84.654  39.267  0.00  0.00    -0.191 NA
ENDBRANCH  15  18
ENDBRANCH  11  12
ENDBRANCH   9  11
ENDBRANCH   3   7
BRANCH   1  20
ATOM     20  C   LIG    1      -21.575  76.751  30.297  0.00  0.00    +0.197 C 
ATOM     21  O   LIG    1      -21.260  76.820  29.112  0.00  0.00    -0.287 OA
BRANCH  20  29
ATOM     22  N   LIG    1      -24.147  74.417  31.512  0.00  0.00    -0.326 N 
ATOM     23  C   LIG    1      -24.920  75.548  31.343  0.00  0.00    +0.147 A 
ATOM     24  N   LIG    1      -26.237  75.647  31.593  0.00  0.00    -0.197 NA
ATOM     25  C   LIG    1      -26.734  76.863  31.350  0.00  0.00    +0.214 A 
ATOM     26  N   LIG    1      -26.040  77.945  30.971  0.00  0.00    -0.222 NA
ATOM     27  C   LIG    1      -24.713  77.814  30.731  0.00  0.00    +0.126 A 
ATOM     28  C   LIG    1      -24.099  76.575  30.893  0.00  0.00    +0.048 A 
ATOM     29  C   LIG    1      -22.783  76.047  30.737  0.00  0.00    +0.051 A 
ATOM     30  C   LIG    1      -22.879  74.697  31.044  0.00  0.00    +0.100 A 
BRANCH  22  32
ATOM     31  C   LIG    1      -25.718  72.485  31.344  0.00  0.00    +0.034 C 
ATOM     32  C   LIG    1      -24.579  73.149  32.143  0.00  0.00    +0.039 C 
ATOM     33  C   LIG    1      -23.422  72.122  32.228  0.00  0.00    +0.034 C 
ATOM     34  C   LIG    1      -25.051  73.405  33.591  0.00  0.00    +0.034 C 
ENDBRANCH  22  32
BRANCH  25  35
ATOM     35  N   LIG    1      -28.090  77.033  31.550  0.00  0.00    -0.327 N 
ATOM     36  H   LIG    1      -28.342  77.997  31.384  0.00  0.00    +0.145 HD
ATOM     37  H   LIG    1      -28.599  76.322  31.045  0.00  0.00    +0.145 HD
ENDBRANCH  25  35
ENDBRANCH  20  29
ENDBRANCH   1  20
TORSDOF 8
ENDMDL
