MODEL 1
REMARK VINA RESULT:      -6.7      0.000      0.000
REMARK  Name = pdb/CHEMBL3666249.pdb
REMARK                            x       y       z     vdW  Elec       q    Type
REMARK                         _______ _______ _______ _____ _____    ______ ____
ROOT
ATOM      1  C   LIG    1      -32.912  74.256  29.044  0.00  0.00    +0.042 A 
ATOM      2  C   LIG    1      -33.776  73.884  27.998  0.00  0.00    +0.038 A 
ATOM      3  C   LIG    1      -34.280  72.581  27.943  0.00  0.00    +0.052 A 
ATOM      4  C   LIG    1      -33.927  71.730  28.992  0.00  0.00    +0.134 A 
ATOM      5  N   LIG    1      -33.104  72.058  30.013  0.00  0.00    -0.261 NA
ATOM      6  C   LIG    1      -32.606  73.313  30.015  0.00  0.00    +0.122 A 
ENDROOT
BRANCH   3   7
ATOM      7  N   LIG    1      -35.085  72.178  26.846  0.00  0.00    -0.284 N 
ATOM      8  H   LIG    1      -34.614  71.981  25.966  0.00  0.00    +0.155 HD
ATOM      9  C   LIG    1      -36.461  71.988  26.908  0.00  0.00    +0.222 C 
ATOM     10  O   LIG    1      -37.153  72.173  27.913  0.00  0.00    -0.275 OA
BRANCH   9  11
ATOM     11  C   LIG    1      -37.089  71.523  25.611  0.00  0.00    +0.131 C 
BRANCH  11  12
ATOM     12  C   LIG    1      -38.144  72.472  25.075  0.00  0.00    -0.038 A 
ATOM     13  C   LIG    1      -37.948  73.862  25.121  0.00  0.00    +0.016 A 
ATOM     14  C   LIG    1      -38.907  74.746  24.595  0.00  0.00    +0.055 A 
ATOM     15  C   LIG    1      -40.086  74.222  24.046  0.00  0.00    +0.012 A 
ATOM     16  C   LIG    1      -40.309  72.846  24.039  0.00  0.00    +0.001 A 
ATOM     17  C   LIG    1      -39.347  71.977  24.556  0.00  0.00    +0.004 A 
BRANCH  14  18
ATOM     18  C   LIG    1      -38.646  76.233  24.600  0.00  0.00    +0.417 C 
ATOM     19  F   LIG    1      -37.346  76.526  24.315  0.00  0.00    -0.166 F 
ATOM     20  F   LIG    1      -38.903  76.813  25.804  0.00  0.00    -0.166 F 
ATOM     21  F   LIG    1      -39.387  76.923  23.686  0.00  0.00    -0.166 F 
ENDBRANCH  14  18
ENDBRANCH  11  12
ENDBRANCH   9  11
ENDBRANCH   3   7
BRANCH   1  22
ATOM     22  C   LIG    1      -32.327  75.618  29.197  0.00  0.00    +0.197 C 
ATOM     23  O   LIG    1      -31.117  75.767  29.095  0.00  0.00    -0.287 OA
BRANCH  22  31
ATOM     24  N   LIG    1      -34.777  78.012  30.483  0.00  0.00    -0.329 N 
ATOM     25  C   LIG    1      -34.421  78.661  29.329  0.00  0.00    +0.147 A 
ATOM     26  N   LIG    1      -34.920  79.834  28.906  0.00  0.00    -0.197 NA
ATOM     27  C   LIG    1      -34.399  80.235  27.742  0.00  0.00    +0.214 A 
ATOM     28  N   LIG    1      -33.423  79.624  27.054  0.00  0.00    -0.222 NA
ATOM     29  C   LIG    1      -32.940  78.442  27.513  0.00  0.00    +0.126 A 
ATOM     30  C   LIG    1      -33.451  77.899  28.688  0.00  0.00    +0.048 A 
ATOM     31  C   LIG    1      -33.222  76.732  29.486  0.00  0.00    +0.051 A 
ATOM     32  C   LIG    1      -34.095  76.824  30.560  0.00  0.00    +0.100 A 
BRANCH  24  34
ATOM     33  C   LIG    1      -36.437  77.374  32.203  0.00  0.00    +0.030 C 
ATOM     34  C   LIG    1      -35.716  78.514  31.485  0.00  0.00    +0.083 C 
ATOM     35  C   LIG    1      -35.017  79.443  32.481  0.00  0.00    +0.030 C 
ENDBRANCH  24  34
BRANCH  27  36
ATOM     36  N   LIG    1      -34.875  81.421  27.220  0.00  0.00    -0.327 N 
ATOM     37  H   LIG    1      -35.752  81.662  27.659  0.00  0.00    +0.145 HD
ATOM     38  H   LIG    1      -34.139  82.112  27.233  0.00  0.00    +0.145 HD
ENDBRANCH  27  36
ENDBRANCH  22  31
ENDBRANCH   1  22
TORSDOF 8
ENDMDL
MODEL 2
REMARK VINA RESULT:      -6.5      2.414      3.764
REMARK  Name = pdb/CHEMBL3666249.pdb
REMARK                            x       y       z     vdW  Elec       q    Type
REMARK                         _______ _______ _______ _____ _____    ______ ____
ROOT
ATOM      1  C   LIG    1      -34.212  72.349  28.952  0.00  0.00    +0.042 A 
ATOM      2  C   LIG    1      -35.081  72.305  27.847  0.00  0.00    +0.038 A 
ATOM      3  C   LIG    1      -35.032  71.219  26.967  0.00  0.00    +0.052 A 
ATOM      4  C   LIG    1      -34.137  70.196  27.287  0.00  0.00    +0.134 A 
ATOM      5  N   LIG    1      -33.293  70.206  28.343  0.00  0.00    -0.261 NA
ATOM      6  C   LIG    1      -33.342  71.287  29.151  0.00  0.00    +0.122 A 
ENDROOT
BRANCH   3   7
ATOM      7  N   LIG    1      -35.848  71.210  25.806  0.00  0.00    -0.284 N 
ATOM      8  H   LIG    1      -35.424  71.511  24.932  0.00  0.00    +0.155 HD
ATOM      9  C   LIG    1      -37.167  70.771  25.777  0.00  0.00    +0.222 C 
ATOM     10  O   LIG    1      -37.797  70.364  26.756  0.00  0.00    -0.275 OA
BRANCH   9  11
ATOM     11  C   LIG    1      -37.816  70.827  24.409  0.00  0.00    +0.131 C 
BRANCH  11  12
ATOM     12  C   LIG    1      -38.810  71.962  24.258  0.00  0.00    -0.038 A 
ATOM     13  C   LIG    1      -38.449  73.280  24.583  0.00  0.00    +0.016 A 
ATOM     14  C   LIG    1      -39.355  74.342  24.413  0.00  0.00    +0.055 A 
ATOM     15  C   LIG    1      -40.645  74.066  23.937  0.00  0.00    +0.012 A 
ATOM     16  C   LIG    1      -41.026  72.755  23.656  0.00  0.00    +0.001 A 
ATOM     17  C   LIG    1      -40.116  71.709  23.821  0.00  0.00    +0.004 A 
BRANCH  14  18
ATOM     18  C   LIG    1      -38.924  75.758  24.711  0.00  0.00    +0.417 C 
ATOM     19  F   LIG    1      -39.467  76.654  23.839  0.00  0.00    -0.166 F 
ATOM     20  F   LIG    1      -37.576  75.931  24.630  0.00  0.00    -0.166 F 
ATOM     21  F   LIG    1      -39.283  76.190  25.953  0.00  0.00    -0.166 F 
ENDBRANCH  14  18
ENDBRANCH  11  12
ENDBRANCH   9  11
ENDBRANCH   3   7
BRANCH   1  22
ATOM     22  C   LIG    1      -34.189  73.456  29.950  0.00  0.00    +0.197 C 
ATOM     23  O   LIG    1      -34.922  73.398  30.927  0.00  0.00    -0.287 OA
BRANCH  22  31
ATOM     24  N   LIG    1      -32.420  76.457  28.830  0.00  0.00    -0.329 N 
ATOM     25  C   LIG    1      -31.532  76.020  29.779  0.00  0.00    +0.147 A 
ATOM     26  N   LIG    1      -30.372  76.617  30.098  0.00  0.00    -0.197 NA
ATOM     27  C   LIG    1      -29.698  75.973  31.056  0.00  0.00    +0.214 A 
ATOM     28  N   LIG    1      -30.111  74.888  31.728  0.00  0.00    -0.222 NA
ATOM     29  C   LIG    1      -31.290  74.314  31.382  0.00  0.00    +0.126 A 
ATOM     30  C   LIG    1      -32.051  74.867  30.356  0.00  0.00    +0.048 A 
ATOM     31  C   LIG    1      -33.301  74.589  29.715  0.00  0.00    +0.051 A 
ATOM     32  C   LIG    1      -33.466  75.571  28.751  0.00  0.00    +0.100 A 
BRANCH  24  34
ATOM     33  C   LIG    1      -32.199  77.384  26.547  0.00  0.00    +0.030 C 
ATOM     34  C   LIG    1      -32.288  77.682  28.044  0.00  0.00    +0.083 C 
ATOM     35  C   LIG    1      -33.427  78.660  28.347  0.00  0.00    +0.030 C 
ENDBRANCH  24  34
BRANCH  27  36
ATOM     36  N   LIG    1      -28.479  76.505  31.427  0.00  0.00    -0.327 N 
ATOM     37  H   LIG    1      -28.613  77.200  32.146  0.00  0.00    +0.145 HD
ATOM     38  H   LIG    1      -27.830  75.754  31.615  0.00  0.00    +0.145 HD
ENDBRANCH  27  36
ENDBRANCH  22  31
ENDBRANCH   1  22
TORSDOF 8
ENDMDL
MODEL 3
REMARK VINA RESULT:      -6.4      1.904      2.324
REMARK  Name = pdb/CHEMBL3666249.pdb
REMARK                            x       y       z     vdW  Elec       q    Type
REMARK                         _______ _______ _______ _____ _____    ______ ____
ROOT
ATOM      1  C   LIG    1      -34.953  73.259  29.240  0.00  0.00    +0.042 A 
ATOM      2  C   LIG    1      -35.711  73.107  28.063  0.00  0.00    +0.038 A 
ATOM      3  C   LIG    1      -35.668  71.899  27.360  0.00  0.00    +0.052 A 
ATOM      4  C   LIG    1      -34.901  70.876  27.921  0.00  0.00    +0.134 A 
ATOM      5  N   LIG    1      -34.167  70.989  29.051  0.00  0.00    -0.261 NA
ATOM      6  C   LIG    1      -34.202  72.180  29.684  0.00  0.00    +0.122 A 
ENDROOT
BRANCH   3   7
ATOM      7  N   LIG    1      -36.364  71.771  26.130  0.00  0.00    -0.284 N 
ATOM      8  H   LIG    1      -35.861  72.010  25.280  0.00  0.00    +0.155 HD
ATOM      9  C   LIG    1      -37.664  71.294  26.009  0.00  0.00    +0.222 C 
ATOM     10  O   LIG    1      -38.381  70.953  26.954  0.00  0.00    -0.275 OA
BRANCH   9  11
ATOM     11  C   LIG    1      -38.174  71.218  24.585  0.00  0.00    +0.131 C 
BRANCH  11  12
ATOM     12  C   LIG    1      -39.217  72.270  24.259  0.00  0.00    -0.038 A 
ATOM     13  C   LIG    1      -38.969  73.629  24.511  0.00  0.00    +0.016 A 
ATOM     14  C   LIG    1      -39.917  74.613  24.180  0.00  0.00    +0.055 A 
ATOM     15  C   LIG    1      -41.138  74.217  23.616  0.00  0.00    +0.012 A 
ATOM     16  C   LIG    1      -41.412  72.866  23.405  0.00  0.00    +0.001 A 
ATOM     17  C   LIG    1      -40.460  71.899  23.730  0.00  0.00    +0.004 A 
BRANCH  14  18
ATOM     18  C   LIG    1      -39.602  76.072  24.404  0.00  0.00    +0.417 C 
ATOM     19  F   LIG    1      -38.283  76.349  24.200  0.00  0.00    -0.166 F 
ATOM     20  F   LIG    1      -39.876  76.486  25.671  0.00  0.00    -0.166 F 
ATOM     21  F   LIG    1      -40.287  76.914  23.579  0.00  0.00    -0.166 F 
ENDBRANCH  14  18
ENDBRANCH  11  12
ENDBRANCH   9  11
ENDBRANCH   3   7
BRANCH   1  22
ATOM     22  C   LIG    1      -34.935  74.500  30.064  0.00  0.00    +0.197 C 
ATOM     23  O   LIG    1      -34.814  74.413  31.278  0.00  0.00    -0.287 OA
BRANCH  22  31
ATOM     24  N   LIG    1      -35.982  77.696  28.622  0.00  0.00    -0.329 N 
ATOM     25  C   LIG    1      -34.720  77.620  28.094  0.00  0.00    +0.147 A 
ATOM     26  N   LIG    1      -34.157  78.528  27.281  0.00  0.00    -0.197 NA
ATOM     27  C   LIG    1      -32.916  78.201  26.910  0.00  0.00    +0.214 A 
ATOM     28  N   LIG    1      -32.215  77.136  27.327  0.00  0.00    -0.222 NA
ATOM     29  C   LIG    1      -32.814  76.240  28.151  0.00  0.00    +0.126 A 
ATOM     30  C   LIG    1      -34.128  76.451  28.557  0.00  0.00    +0.048 A 
ATOM     31  C   LIG    1      -35.083  75.785  29.392  0.00  0.00    +0.051 A 
ATOM     32  C   LIG    1      -36.227  76.568  29.366  0.00  0.00    +0.100 A 
BRANCH  24  34
ATOM     33  C   LIG    1      -37.829  78.589  27.239  0.00  0.00    +0.030 C 
ATOM     34  C   LIG    1      -36.913  78.808  28.443  0.00  0.00    +0.083 C 
ATOM     35  C   LIG    1      -37.723  79.063  29.717  0.00  0.00    +0.030 C 
ENDBRANCH  24  34
BRANCH  27  36
ATOM     36  N   LIG    1      -32.270  79.068  26.050  0.00  0.00    -0.327 N 
ATOM     37  H   LIG    1      -31.302  79.162  26.320  0.00  0.00    +0.145 HD
ATOM     38  H   LIG    1      -32.468  78.803  25.096  0.00  0.00    +0.145 HD
ENDBRANCH  27  36
ENDBRANCH  22  31
ENDBRANCH   1  22
TORSDOF 8
ENDMDL
MODEL 4
REMARK VINA RESULT:      -6.3      1.991      2.618
REMARK  Name = pdb/CHEMBL3666249.pdb
REMARK                            x       y       z     vdW  Elec       q    Type
REMARK                         _______ _______ _______ _____ _____    ______ ____
ROOT
ATOM      1  C   LIG    1      -34.250  71.666  28.256  0.00  0.00    +0.042 A 
ATOM      2  C   LIG    1      -35.494  71.836  27.619  0.00  0.00    +0.038 A 
ATOM      3  C   LIG    1      -36.153  70.728  27.076  0.00  0.00    +0.052 A 
ATOM      4  C   LIG    1      -35.543  69.486  27.259  0.00  0.00    +0.134 A 
ATOM      5  N   LIG    1      -34.353  69.289  27.870  0.00  0.00    -0.261 NA
ATOM      6  C   LIG    1      -33.726  70.385  28.350  0.00  0.00    +0.122 A 
ENDROOT
BRANCH   3   7
ATOM      7  N   LIG    1      -37.366  70.906  26.361  0.00  0.00    -0.284 N 
ATOM      8  H   LIG    1      -38.230  70.909  26.897  0.00  0.00    +0.155 HD
ATOM      9  C   LIG    1      -37.444  71.127  24.990  0.00  0.00    +0.222 C 
ATOM     10  O   LIG    1      -36.477  71.167  24.226  0.00  0.00    -0.275 OA
BRANCH   9  11
ATOM     11  C   LIG    1      -38.852  71.323  24.467  0.00  0.00    +0.131 C 
BRANCH  11  12
ATOM     12  C   LIG    1      -39.267  72.779  24.377  0.00  0.00    -0.038 A 
ATOM     13  C   LIG    1      -38.403  73.799  24.807  0.00  0.00    +0.016 A 
ATOM     14  C   LIG    1      -38.768  75.153  24.695  0.00  0.00    +0.055 A 
ATOM     15  C   LIG    1      -40.027  75.476  24.171  0.00  0.00    +0.012 A 
ATOM     16  C   LIG    1      -40.910  74.468  23.785  0.00  0.00    +0.001 A 
ATOM     17  C   LIG    1      -40.534  73.128  23.893  0.00  0.00    +0.004 A 
BRANCH  14  18
ATOM     18  C   LIG    1      -37.797  76.233  25.106  0.00  0.00    +0.417 C 
ATOM     19  F   LIG    1      -36.886  75.785  26.015  0.00  0.00    -0.166 F 
ATOM     20  F   LIG    1      -38.408  77.302  25.689  0.00  0.00    -0.166 F 
ATOM     21  F   LIG    1      -37.067  76.738  24.072  0.00  0.00    -0.166 F 
ENDBRANCH  14  18
ENDBRANCH  11  12
ENDBRANCH   9  11
ENDBRANCH   3   7
BRANCH   1  22
ATOM     22  C   LIG    1      -33.471  72.777  28.871  0.00  0.00    +0.197 C 
ATOM     23  O   LIG    1      -32.260  72.662  29.000  0.00  0.00    -0.287 OA
BRANCH  22  31
ATOM     24  N   LIG    1      -35.476  75.339  30.547  0.00  0.00    -0.329 N 
ATOM     25  C   LIG    1      -35.137  76.032  29.414  0.00  0.00    +0.147 A 
ATOM     26  N   LIG    1      -35.513  77.288  29.124  0.00  0.00    -0.197 NA
ATOM     27  C   LIG    1      -35.043  77.717  27.949  0.00  0.00    +0.214 A 
ATOM     28  N   LIG    1      -34.215  77.050  27.131  0.00  0.00    -0.222 NA
ATOM     29  C   LIG    1      -33.852  75.785  27.458  0.00  0.00    +0.126 A 
ATOM     30  C   LIG    1      -34.329  75.213  28.633  0.00  0.00    +0.048 A 
ATOM     31  C   LIG    1      -34.188  73.965  29.321  0.00  0.00    +0.051 A 
ATOM     32  C   LIG    1      -34.949  74.073  30.475  0.00  0.00    +0.100 A 
BRANCH  24  34
ATOM     33  C   LIG    1      -37.746  75.569  31.505  0.00  0.00    +0.030 C 
ATOM     34  C   LIG    1      -36.255  75.868  31.665  0.00  0.00    +0.083 C 
ATOM     35  C   LIG    1      -35.726  75.346  33.004  0.00  0.00    +0.030 C 
ENDBRANCH  24  34
BRANCH  27  36
ATOM     36  N   LIG    1      -35.404  78.992  27.559  0.00  0.00    -0.327 N 
ATOM     37  H   LIG    1      -35.483  79.589  28.369  0.00  0.00    +0.145 HD
ATOM     38  H   LIG    1      -34.801  79.296  26.809  0.00  0.00    +0.145 HD
ENDBRANCH  27  36
ENDBRANCH  22  31
ENDBRANCH   1  22
TORSDOF 8
ENDMDL
MODEL 5
REMARK VINA RESULT:      -6.3      3.391      6.167
REMARK  Name = pdb/CHEMBL3666249.pdb
REMARK                            x       y       z     vdW  Elec       q    Type
REMARK                         _______ _______ _______ _____ _____    ______ ____
ROOT
ATOM      1  C   LIG    1      -38.219  79.264  27.485  0.00  0.00    +0.042 A 
ATOM      2  C   LIG    1      -39.005  78.310  26.811  0.00  0.00    +0.038 A 
ATOM      3  C   LIG    1      -39.885  78.721  25.805  0.00  0.00    +0.052 A 
ATOM      4  C   LIG    1      -39.882  80.081  25.489  0.00  0.00    +0.134 A 
ATOM      5  N   LIG    1      -39.137  81.020  26.113  0.00  0.00    -0.261 NA
ATOM      6  C   LIG    1      -38.325  80.594  27.104  0.00  0.00    +0.122 A 
ENDROOT
BRANCH   3   7
ATOM      7  N   LIG    1      -40.739  77.774  25.181  0.00  0.00    -0.284 N 
ATOM      8  H   LIG    1      -41.517  77.413  25.727  0.00  0.00    +0.155 HD
ATOM      9  C   LIG    1      -40.610  77.349  23.863  0.00  0.00    +0.222 C 
ATOM     10  O   LIG    1      -39.726  77.719  23.086  0.00  0.00    -0.275 OA
BRANCH   9  11
ATOM     11  C   LIG    1      -41.666  76.359  23.418  0.00  0.00    +0.131 C 
BRANCH  11  12
ATOM     12  C   LIG    1      -41.231  74.912  23.547  0.00  0.00    -0.038 A 
ATOM     13  C   LIG    1      -39.990  74.584  24.119  0.00  0.00    +0.016 A 
ATOM     14  C   LIG    1      -39.595  73.243  24.273  0.00  0.00    +0.055 A 
ATOM     15  C   LIG    1      -40.448  72.227  23.818  0.00  0.00    +0.012 A 
ATOM     16  C   LIG    1      -41.660  72.545  23.208  0.00  0.00    +0.001 A 
ATOM     17  C   LIG    1      -42.046  73.879  23.068  0.00  0.00    +0.004 A 
BRANCH  14  18
ATOM     18  C   LIG    1      -38.285  72.914  24.946  0.00  0.00    +0.417 C 
ATOM     19  F   LIG    1      -37.493  74.015  25.092  0.00  0.00    -0.166 F 
ATOM     20  F   LIG    1      -37.541  72.012  24.249  0.00  0.00    -0.166 F 
ATOM     21  F   LIG    1      -38.426  72.395  26.198  0.00  0.00    -0.166 F 
ENDBRANCH  14  18
ENDBRANCH  11  12
ENDBRANCH   9  11
ENDBRANCH   3   7
BRANCH   1  22
ATOM     22  C   LIG    1      -37.248  78.930  28.564  0.00  0.00    +0.197 C 
ATOM     23  O   LIG    1      -37.375  79.442  29.667  0.00  0.00    -0.287 OA
BRANCH  22  31
ATOM     24  N   LIG    1      -34.135  77.225  27.670  0.00  0.00    -0.329 N 
ATOM     25  C   LIG    1      -34.948  76.132  27.820  0.00  0.00    +0.147 A 
ATOM     26  N   LIG    1      -34.579  74.853  27.646  0.00  0.00    -0.197 NA
ATOM     27  C   LIG    1      -35.576  73.988  27.851  0.00  0.00    +0.214 A 
ATOM     28  N   LIG    1      -36.817  74.286  28.267  0.00  0.00    -0.222 NA
ATOM     29  C   LIG    1      -37.154  75.588  28.436  0.00  0.00    +0.126 A 
ATOM     30  C   LIG    1      -36.210  76.582  28.194  0.00  0.00    +0.048 A 
ATOM     31  C   LIG    1      -36.156  78.012  28.259  0.00  0.00    +0.051 A 
ATOM     32  C   LIG    1      -34.869  78.366  27.885  0.00  0.00    +0.100 A 
BRANCH  24  34
ATOM     33  C   LIG    1      -32.261  78.441  26.606  0.00  0.00    +0.030 C 
ATOM     34  C   LIG    1      -32.708  77.185  27.355  0.00  0.00    +0.083 C 
ATOM     35  C   LIG    1      -31.869  76.964  28.617  0.00  0.00    +0.030 C 
ENDBRANCH  24  34
BRANCH  27  36
ATOM     36  N   LIG    1      -35.290  72.649  27.668  0.00  0.00    -0.327 N 
ATOM     37  H   LIG    1      -35.966  72.236  27.042  0.00  0.00    +0.145 HD
ATOM     38  H   LIG    1      -34.313  72.544  27.437  0.00  0.00    +0.145 HD
ENDBRANCH  27  36
ENDBRANCH  22  31
ENDBRANCH   1  22
TORSDOF 8
ENDMDL
MODEL 6
REMARK VINA RESULT:      -6.2     18.015     20.531
REMARK  Name = pdb/CHEMBL3666249.pdb
REMARK                            x       y       z     vdW  Elec       q    Type
REMARK                         _______ _______ _______ _____ _____    ______ ____
ROOT
ATOM      1  C   LIG    1      -22.538  81.974  14.597  0.00  0.00    +0.042 A 
ATOM      2  C   LIG    1      -22.465  80.618  14.227  0.00  0.00    +0.038 A 
ATOM      3  C   LIG    1      -22.322  79.635  15.211  0.00  0.00    +0.052 A 
ATOM      4  C   LIG    1      -22.321  80.074  16.536  0.00  0.00    +0.134 A 
ATOM      5  N   LIG    1      -22.395  81.366  16.925  0.00  0.00    -0.261 NA
ATOM      6  C   LIG    1      -22.495  82.292  15.947  0.00  0.00    +0.122 A 
ENDROOT
BRANCH   3   7
ATOM      7  N   LIG    1      -22.164  78.275  14.836  0.00  0.00    -0.284 N 
ATOM      8  H   LIG    1      -21.299  78.015  14.370  0.00  0.00    +0.155 HD
ATOM      9  C   LIG    1      -23.088  77.273  15.109  0.00  0.00    +0.222 C 
ATOM     10  O   LIG    1      -24.167  77.445  15.682  0.00  0.00    -0.275 OA
BRANCH   9  11
ATOM     11  C   LIG    1      -22.675  75.894  14.638  0.00  0.00    +0.131 C 
BRANCH  11  12
ATOM     12  C   LIG    1      -21.897  75.108  15.676  0.00  0.00    -0.038 A 
ATOM     13  C   LIG    1      -22.564  74.323  16.630  0.00  0.00    +0.016 A 
ATOM     14  C   LIG    1      -21.848  73.565  17.573  0.00  0.00    +0.055 A 
ATOM     15  C   LIG    1      -20.447  73.624  17.571  0.00  0.00    +0.012 A 
ATOM     16  C   LIG    1      -19.778  74.437  16.657  0.00  0.00    +0.001 A 
ATOM     17  C   LIG    1      -20.499  75.179  15.719  0.00  0.00    +0.004 A 
BRANCH  14  18
ATOM     18  C   LIG    1      -22.586  72.680  18.549  0.00  0.00    +0.417 C 
ATOM     19  F   LIG    1      -21.764  71.762  19.132  0.00  0.00    -0.166 F 
ATOM     20  F   LIG    1      -23.586  71.965  17.966  0.00  0.00    -0.166 F 
ATOM     21  F   LIG    1      -23.164  73.362  19.578  0.00  0.00    -0.166 F 
ENDBRANCH  14  18
ENDBRANCH  11  12
ENDBRANCH   9  11
ENDBRANCH   3   7
BRANCH   1  22
ATOM     22  C   LIG    1      -22.697  83.095  13.629  0.00  0.00    +0.197 C 
ATOM     23  O   LIG    1      -23.721  83.175  12.965  0.00  0.00    -0.287 OA
BRANCH  22  31
ATOM     24  N   LIG    1      -19.547  84.920  13.260  0.00  0.00    -0.329 N 
ATOM     25  C   LIG    1      -20.398  85.982  13.424  0.00  0.00    +0.147 A 
ATOM     26  N   LIG    1      -20.039  87.276  13.437  0.00  0.00    -0.197 NA
ATOM     27  C   LIG    1      -21.072  88.103  13.621  0.00  0.00    +0.214 A 
ATOM     28  N   LIG    1      -22.365  87.755  13.711  0.00  0.00    -0.222 NA
ATOM     29  C   LIG    1      -22.691  86.439  13.690  0.00  0.00    +0.126 A 
ATOM     30  C   LIG    1      -21.688  85.483  13.561  0.00  0.00    +0.048 A 
ATOM     31  C   LIG    1      -21.608  84.055  13.489  0.00  0.00    +0.051 A 
ATOM     32  C   LIG    1      -20.263  83.751  13.348  0.00  0.00    +0.100 A 
BRANCH  24  34
ATOM     33  C   LIG    1      -17.360  83.803  13.564  0.00  0.00    +0.030 C 
ATOM     34  C   LIG    1      -18.110  85.013  13.008  0.00  0.00    +0.083 C 
ATOM     35  C   LIG    1      -17.821  85.206  11.517  0.00  0.00    +0.030 C 
ENDBRANCH  24  34
BRANCH  27  36
ATOM     36  N   LIG    1      -20.790  89.454  13.674  0.00  0.00    -0.327 N 
ATOM     37  H   LIG    1      -19.853  89.595  14.023  0.00  0.00    +0.145 HD
ATOM     38  H   LIG    1      -21.030  89.881  12.790  0.00  0.00    +0.145 HD
ENDBRANCH  27  36
ENDBRANCH  22  31
ENDBRANCH   1  22
TORSDOF 8
ENDMDL
MODEL 7
REMARK VINA RESULT:      -6.1      3.962      9.845
REMARK  Name = pdb/CHEMBL3666249.pdb
REMARK                            x       y       z     vdW  Elec       q    Type
REMARK                         _______ _______ _______ _____ _____    ______ ____
ROOT
ATOM      1  C   LIG    1      -39.487  73.919  24.970  0.00  0.00    +0.042 A 
ATOM      2  C   LIG    1      -38.246  74.334  25.488  0.00  0.00    +0.038 A 
ATOM      3  C   LIG    1      -37.788  75.632  25.239  0.00  0.00    +0.052 A 
ATOM      4  C   LIG    1      -38.644  76.470  24.522  0.00  0.00    +0.134 A 
ATOM      5  N   LIG    1      -39.843  76.103  24.016  0.00  0.00    -0.261 NA
ATOM      6  C   LIG    1      -40.238  74.832  24.244  0.00  0.00    +0.122 A 
ENDROOT
BRANCH   3   7
ATOM      7  N   LIG    1      -36.502  76.028  25.689  0.00  0.00    -0.284 N 
ATOM      8  H   LIG    1      -35.757  76.073  24.997  0.00  0.00    +0.155 HD
ATOM      9  C   LIG    1      -36.207  76.404  26.994  0.00  0.00    +0.222 C 
ATOM     10  O   LIG    1      -37.016  76.412  27.925  0.00  0.00    -0.275 OA
BRANCH   9  11
ATOM     11  C   LIG    1      -34.767  76.819  27.217  0.00  0.00    +0.131 C 
BRANCH  11  12
ATOM     12  C   LIG    1      -33.947  75.780  27.957  0.00  0.00    -0.038 A 
ATOM     13  C   LIG    1      -34.307  74.423  27.923  0.00  0.00    +0.016 A 
ATOM     14  C   LIG    1      -33.531  73.450  28.578  0.00  0.00    +0.055 A 
ATOM     15  C   LIG    1      -32.399  73.856  29.298  0.00  0.00    +0.012 A 
ATOM     16  C   LIG    1      -32.060  75.206  29.377  0.00  0.00    +0.001 A 
ATOM     17  C   LIG    1      -32.833  76.162  28.715  0.00  0.00    +0.004 A 
BRANCH  14  18
ATOM     18  C   LIG    1      -33.904  71.991  28.475  0.00  0.00    +0.417 C 
ATOM     19  F   LIG    1      -34.282  71.646  27.212  0.00  0.00    -0.166 F 
ATOM     20  F   LIG    1      -34.948  71.651  29.280  0.00  0.00    -0.166 F 
ATOM     21  F   LIG    1      -32.889  71.141  28.800  0.00  0.00    -0.166 F 
ENDBRANCH  14  18
ENDBRANCH  11  12
ENDBRANCH   9  11
ENDBRANCH   3   7
BRANCH   1  22
ATOM     22  C   LIG    1      -40.067  72.563  25.183  0.00  0.00    +0.197 C 
ATOM     23  O   LIG    1      -40.581  72.292  26.259  0.00  0.00    -0.287 OA
BRANCH  22  31
ATOM     24  N   LIG    1      -40.548  70.277  22.367  0.00  0.00    -0.329 N 
ATOM     25  C   LIG    1      -39.257  69.952  22.694  0.00  0.00    +0.147 A 
ATOM     26  N   LIG    1      -38.503  69.028  22.078  0.00  0.00    -0.197 NA
ATOM     27  C   LIG    1      -37.281  68.912  22.608  0.00  0.00    +0.214 A 
ATOM     28  N   LIG    1      -36.767  69.659  23.596  0.00  0.00    -0.222 NA
ATOM     29  C   LIG    1      -37.556  70.586  24.193  0.00  0.00    +0.126 A 
ATOM     30  C   LIG    1      -38.869  70.755  23.761  0.00  0.00    +0.048 A 
ATOM     31  C   LIG    1      -39.981  71.591  24.100  0.00  0.00    +0.051 A 
ATOM     32  C   LIG    1      -41.009  71.229  23.241  0.00  0.00    +0.100 A 
BRANCH  24  34
ATOM     33  C   LIG    1      -42.098  68.478  21.670  0.00  0.00    +0.030 C 
ATOM     34  C   LIG    1      -41.307  69.717  21.250  0.00  0.00    +0.083 C 
ATOM     35  C   LIG    1      -42.222  70.770  20.619  0.00  0.00    +0.030 C 
ENDBRANCH  24  34
BRANCH  27  36
ATOM     36  N   LIG    1      -36.446  67.963  22.050  0.00  0.00    -0.327 N 
ATOM     37  H   LIG    1      -35.563  67.954  22.539  0.00  0.00    +0.145 HD
ATOM     38  H   LIG    1      -36.943  67.089  21.964  0.00  0.00    +0.145 HD
ENDBRANCH  27  36
ENDBRANCH  22  31
ENDBRANCH   1  22
TORSDOF 8
ENDMDL
MODEL 8
REMARK VINA RESULT:      -6.0      2.589      3.653
REMARK  Name = pdb/CHEMBL3666249.pdb
REMARK                            x       y       z     vdW  Elec       q    Type
REMARK                         _______ _______ _______ _____ _____    ______ ____
ROOT
ATOM      1  C   LIG    1      -36.893  73.231  29.648  0.00  0.00    +0.042 A 
ATOM      2  C   LIG    1      -37.670  73.279  28.476  0.00  0.00    +0.038 A 
ATOM      3  C   LIG    1      -38.242  72.106  27.973  0.00  0.00    +0.052 A 
ATOM      4  C   LIG    1      -38.046  70.944  28.722  0.00  0.00    +0.134 A 
ATOM      5  N   LIG    1      -37.310  70.867  29.854  0.00  0.00    -0.261 NA
ATOM      6  C   LIG    1      -36.742  72.011  30.290  0.00  0.00    +0.122 A 
ENDROOT
BRANCH   3   7
ATOM      7  N   LIG    1      -38.956  72.135  26.747  0.00  0.00    -0.284 N 
ATOM      8  H   LIG    1      -39.953  72.329  26.790  0.00  0.00    +0.155 HD
ATOM      9  C   LIG    1      -38.375  71.966  25.495  0.00  0.00    +0.222 C 
ATOM     10  O   LIG    1      -37.178  71.743  25.298  0.00  0.00    -0.275 OA
BRANCH   9  11
ATOM     11  C   LIG    1      -39.343  72.075  24.335  0.00  0.00    +0.131 C 
BRANCH  11  12
ATOM     12  C   LIG    1      -39.881  73.477  24.126  0.00  0.00    -0.038 A 
ATOM     13  C   LIG    1      -39.117  74.600  24.484  0.00  0.00    +0.016 A 
ATOM     14  C   LIG    1      -39.596  75.904  24.261  0.00  0.00    +0.055 A 
ATOM     15  C   LIG    1      -40.869  76.073  23.700  0.00  0.00    +0.012 A 
ATOM     16  C   LIG    1      -41.654  74.965  23.385  0.00  0.00    +0.001 A 
ATOM     17  C   LIG    1      -41.165  73.675  23.602  0.00  0.00    +0.004 A 
BRANCH  14  18
ATOM     18  C   LIG    1      -38.731  77.094  24.597  0.00  0.00    +0.417 C 
ATOM     19  F   LIG    1      -38.491  77.878  23.508  0.00  0.00    -0.166 F 
ATOM     20  F   LIG    1      -37.506  76.742  25.077  0.00  0.00    -0.166 F 
ATOM     21  F   LIG    1      -39.275  77.922  25.534  0.00  0.00    -0.166 F 
ENDBRANCH  14  18
ENDBRANCH  11  12
ENDBRANCH   9  11
ENDBRANCH   3   7
BRANCH   1  22
ATOM     22  C   LIG    1      -36.247  74.422  30.268  0.00  0.00    +0.197 C 
ATOM     23  O   LIG    1      -36.835  75.034  31.149  0.00  0.00    -0.287 OA
BRANCH  22  31
ATOM     24  N   LIG    1      -32.705  75.038  29.585  0.00  0.00    -0.329 N 
ATOM     25  C   LIG    1      -33.257  75.904  28.678  0.00  0.00    +0.147 A 
ATOM     26  N   LIG    1      -32.573  76.703  27.843  0.00  0.00    -0.197 NA
ATOM     27  C   LIG    1      -33.364  77.451  27.068  0.00  0.00    +0.214 A 
ATOM     28  N   LIG    1      -34.704  77.404  27.018  0.00  0.00    -0.222 NA
ATOM     29  C   LIG    1      -35.362  76.583  27.873  0.00  0.00    +0.126 A 
ATOM     30  C   LIG    1      -34.641  75.798  28.767  0.00  0.00    +0.048 A 
ATOM     31  C   LIG    1      -34.934  74.834  29.785  0.00  0.00    +0.051 A 
ATOM     32  C   LIG    1      -33.710  74.425  30.291  0.00  0.00    +0.100 A 
BRANCH  24  34
ATOM     33  C   LIG    1      -30.705  75.570  30.941  0.00  0.00    +0.030 C 
ATOM     34  C   LIG    1      -31.276  74.787  29.759  0.00  0.00    +0.083 C 
ATOM     35  C   LIG    1      -30.989  73.289  29.896  0.00  0.00    +0.030 C 
ENDBRANCH  24  34
BRANCH  27  36
ATOM     36  N   LIG    1      -32.742  78.323  26.196  0.00  0.00    -0.327 N 
ATOM     37  H   LIG    1      -32.314  77.807  25.442  0.00  0.00    +0.145 HD
ATOM     38  H   LIG    1      -33.382  79.066  25.953  0.00  0.00    +0.145 HD
ENDBRANCH  27  36
ENDBRANCH  22  31
ENDBRANCH   1  22
TORSDOF 8
ENDMDL
MODEL 9
REMARK VINA RESULT:      -6.0     12.582     15.015
REMARK  Name = pdb/CHEMBL3666249.pdb
REMARK                            x       y       z     vdW  Elec       q    Type
REMARK                         _______ _______ _______ _____ _____    ______ ____
ROOT
ATOM      1  C   LIG    1      -25.561  77.595  36.360  0.00  0.00    +0.042 A 
ATOM      2  C   LIG    1      -24.933  77.320  35.131  0.00  0.00    +0.038 A 
ATOM      3  C   LIG    1      -25.583  76.524  34.182  0.00  0.00    +0.052 A 
ATOM      4  C   LIG    1      -26.871  76.093  34.504  0.00  0.00    +0.134 A 
ATOM      5  N   LIG    1      -27.503  76.345  35.672  0.00  0.00    -0.261 NA
ATOM      6  C   LIG    1      -26.833  77.085  36.581  0.00  0.00    +0.122 A 
ENDROOT
BRANCH   3   7
ATOM      7  N   LIG    1      -24.919  76.176  32.977  0.00  0.00    -0.284 N 
ATOM      8  H   LIG    1      -24.388  75.308  32.968  0.00  0.00    +0.155 HD
ATOM      9  C   LIG    1      -24.989  76.913  31.800  0.00  0.00    +0.222 C 
ATOM     10  O   LIG    1      -25.610  77.971  31.667  0.00  0.00    -0.275 OA
BRANCH   9  11
ATOM     11  C   LIG    1      -24.221  76.315  30.639  0.00  0.00    +0.131 C 
BRANCH  11  12
ATOM     12  C   LIG    1      -22.764  76.732  30.600  0.00  0.00    -0.038 A 
ATOM     13  C   LIG    1      -22.167  77.362  31.705  0.00  0.00    +0.016 A 
ATOM     14  C   LIG    1      -20.807  77.720  31.688  0.00  0.00    +0.055 A 
ATOM     15  C   LIG    1      -20.052  77.467  30.534  0.00  0.00    +0.012 A 
ATOM     16  C   LIG    1      -20.648  76.885  29.416  0.00  0.00    +0.001 A 
ATOM     17  C   LIG    1      -21.996  76.525  29.446  0.00  0.00    +0.004 A 
BRANCH  14  18
ATOM     18  C   LIG    1      -20.174  78.339  32.910  0.00  0.00    +0.417 C 
ATOM     19  F   LIG    1      -21.080  78.549  33.906  0.00  0.00    -0.166 F 
ATOM     20  F   LIG    1      -19.611  79.553  32.659  0.00  0.00    -0.166 F 
ATOM     21  F   LIG    1      -19.189  77.577  33.463  0.00  0.00    -0.166 F 
ENDBRANCH  14  18
ENDBRANCH  11  12
ENDBRANCH   9  11
ENDBRANCH   3   7
BRANCH   1  22
ATOM     22  C   LIG    1      -24.959  78.435  37.434  0.00  0.00    +0.197 C 
ATOM     23  O   LIG    1      -24.863  77.984  38.566  0.00  0.00    -0.287 OA
BRANCH  22  31
ATOM     24  N   LIG    1      -23.202  81.531  36.588  0.00  0.00    -0.329 N 
ATOM     25  C   LIG    1      -24.470  82.032  36.735  0.00  0.00    +0.147 A 
ATOM     26  N   LIG    1      -24.824  83.319  36.591  0.00  0.00    -0.197 NA
ATOM     27  C   LIG    1      -26.127  83.530  36.797  0.00  0.00    +0.214 A 
ATOM     28  N   LIG    1      -27.055  82.593  37.045  0.00  0.00    -0.222 NA
ATOM     29  C   LIG    1      -26.663  81.303  37.180  0.00  0.00    +0.126 A 
ATOM     30  C   LIG    1      -25.317  80.974  37.043  0.00  0.00    +0.048 A 
ATOM     31  C   LIG    1      -24.521  79.785  37.098  0.00  0.00    +0.051 A 
ATOM     32  C   LIG    1      -23.216  80.185  36.855  0.00  0.00    +0.100 A 
BRANCH  24  34
ATOM     33  C   LIG    1      -21.391  83.021  37.379  0.00  0.00    +0.030 C 
ATOM     34  C   LIG    1      -22.026  82.302  36.188  0.00  0.00    +0.083 C 
ATOM     35  C   LIG    1      -21.005  81.419  35.466  0.00  0.00    +0.030 C 
ENDBRANCH  24  34
BRANCH  27  36
ATOM     36  N   LIG    1      -26.574  84.833  36.695  0.00  0.00    -0.327 N 
ATOM     37  H   LIG    1      -26.574  85.268  37.605  0.00  0.00    +0.145 HD
ATOM     38  H   LIG    1      -26.075  85.300  35.951  0.00  0.00    +0.145 HD
ENDBRANCH  27  36
ENDBRANCH  22  31
ENDBRANCH   1  22
TORSDOF 8
ENDMDL
