MODEL 1
REMARK VINA RESULT:      -5.5      0.000      0.000
REMARK  Name = pdb/CHEMBL3671412.pdb
REMARK                            x       y       z     vdW  Elec       q    Type
REMARK                         _______ _______ _______ _____ _____    ______ ____
ROOT
ATOM      1  C   LIG    1      -20.716  76.867  30.768  0.00  0.00    +0.042 A 
ATOM      2  C   LIG    1      -20.996  77.812  31.769  0.00  0.00    +0.038 A 
ATOM      3  C   LIG    1      -19.958  78.428  32.479  0.00  0.00    +0.052 A 
ATOM      4  C   LIG    1      -18.660  78.070  32.124  0.00  0.00    +0.134 A 
ATOM      5  N   LIG    1      -18.357  77.141  31.175  0.00  0.00    -0.261 NA
ATOM      6  C   LIG    1      -19.388  76.564  30.516  0.00  0.00    +0.122 A 
ENDROOT
BRANCH   3   7
ATOM      7  N   LIG    1      -20.309  79.358  33.490  0.00  0.00    -0.284 N 
ATOM      8  H   LIG    1      -20.913  80.121  33.207  0.00  0.00    +0.155 HD
ATOM      9  C   LIG    1      -19.925  79.313  34.828  0.00  0.00    +0.223 C 
ATOM     10  O   LIG    1      -19.212  78.442  35.318  0.00  0.00    -0.275 OA
BRANCH   9  11
ATOM     11  C   LIG    1      -20.533  80.448  35.644  0.00  0.00    +0.151 C 
BRANCH  11  12
ATOM     12  C   LIG    1      -22.019  80.312  35.869  0.00  0.00    +0.050 A 
ATOM     13  N   LIG    1      -22.551  79.067  35.781  0.00  0.00    -0.258 NA
ATOM     14  C   LIG    1      -23.889  78.944  35.983  0.00  0.00    +0.131 A 
ATOM     15  C   LIG    1      -24.721  80.004  36.306  0.00  0.00    +0.059 A 
ATOM     16 CL   LIG    1      -26.397  79.763  36.587  0.00  0.00    -0.082 Cl
ATOM     17  C   LIG    1      -24.163  81.270  36.407  0.00  0.00    +0.023 A 
ATOM     18  C   LIG    1      -22.796  81.431  36.176  0.00  0.00    +0.025 A 
ENDBRANCH  11  12
ENDBRANCH   9  11
ENDBRANCH   3   7
BRANCH   1  19
ATOM     19  C   LIG    1      -21.825  76.334  29.943  0.00  0.00    +0.197 C 
ATOM     20  O   LIG    1      -21.720  76.447  28.719  0.00  0.00    -0.287 OA
BRANCH  19  28
ATOM     21  N   LIG    1      -24.350  74.227  31.609  0.00  0.00    -0.323 N 
ATOM     22  C   LIG    1      -25.064  75.398  31.443  0.00  0.00    +0.145 A 
ATOM     23  N   LIG    1      -26.325  75.625  31.852  0.00  0.00    -0.218 NA
ATOM     24  C   LIG    1      -26.741  76.873  31.590  0.00  0.00    +0.223 A 
ATOM     25  N   LIG    1      -26.050  77.866  31.005  0.00  0.00    -0.243 NA
ATOM     26  C   LIG    1      -24.785  77.601  30.612  0.00  0.00    +0.124 A 
ATOM     27  C   LIG    1      -24.246  76.328  30.812  0.00  0.00    +0.048 A 
ATOM     28  C   LIG    1      -22.997  75.696  30.535  0.00  0.00    +0.051 A 
ATOM     29  C   LIG    1      -23.105  74.402  31.019  0.00  0.00    +0.100 A 
BRANCH  21  30
ATOM     30  C   LIG    1      -24.781  73.024  32.373  0.00  0.00    +0.065 C 
ATOM     31  C   LIG    1      -26.048  72.355  31.786  0.00  0.00    +0.036 C 
ATOM     32  C   LIG    1      -23.679  71.935  32.329  0.00  0.00    +0.036 C 
BRANCH  30  33
ATOM     33  C   LIG    1      -25.075  73.416  33.854  0.00  0.00    +0.187 C 
BRANCH  33  35
ATOM     34  C   LIG    1      -23.781  73.376  35.853  0.00  0.00    +0.194 C 
ATOM     35  O   LIG    1      -23.875  73.848  34.513  0.00  0.00    -0.381 OA
ENDBRANCH  33  35
ENDBRANCH  30  33
ENDBRANCH  21  30
ENDBRANCH  19  28
ENDBRANCH   1  19
TORSDOF 8
ENDMDL
MODEL 2
REMARK VINA RESULT:      -5.4      0.924      1.578
REMARK  Name = pdb/CHEMBL3671412.pdb
REMARK                            x       y       z     vdW  Elec       q    Type
REMARK                         _______ _______ _______ _____ _____    ______ ____
ROOT
ATOM      1  C   LIG    1      -20.566  76.831  30.667  0.00  0.00    +0.042 A 
ATOM      2  C   LIG    1      -20.741  77.713  31.746  0.00  0.00    +0.038 A 
ATOM      3  C   LIG    1      -19.636  78.300  32.374  0.00  0.00    +0.052 A 
ATOM      4  C   LIG    1      -18.382  77.980  31.860  0.00  0.00    +0.134 A 
ATOM      5  N   LIG    1      -18.178  77.110  30.832  0.00  0.00    -0.261 NA
ATOM      6  C   LIG    1      -19.271  76.560  30.255  0.00  0.00    +0.122 A 
ENDROOT
BRANCH   3   7
ATOM      7  N   LIG    1      -19.881  79.166  33.470  0.00  0.00    -0.284 N 
ATOM      8  H   LIG    1      -20.300  80.062  33.247  0.00  0.00    +0.155 HD
ATOM      9  C   LIG    1      -19.624  78.900  34.812  0.00  0.00    +0.223 C 
ATOM     10  O   LIG    1      -19.136  77.853  35.232  0.00  0.00    -0.275 OA
BRANCH   9  11
ATOM     11  C   LIG    1      -20.064  80.038  35.725  0.00  0.00    +0.151 C 
BRANCH  11  12
ATOM     12  C   LIG    1      -21.556  80.100  35.950  0.00  0.00    +0.050 A 
ATOM     13  N   LIG    1      -22.140  79.031  36.548  0.00  0.00    -0.258 NA
ATOM     14  C   LIG    1      -23.482  79.088  36.750  0.00  0.00    +0.131 A 
ATOM     15  C   LIG    1      -24.270  80.177  36.416  0.00  0.00    +0.059 A 
ATOM     16 CL   LIG    1      -25.955  80.189  36.740  0.00  0.00    -0.082 Cl
ATOM     17  C   LIG    1      -23.657  81.269  35.817  0.00  0.00    +0.023 A 
ATOM     18  C   LIG    1      -22.284  81.230  35.571  0.00  0.00    +0.025 A 
ENDBRANCH  11  12
ENDBRANCH   9  11
ENDBRANCH   3   7
BRANCH   1  19
ATOM     19  C   LIG    1      -21.754  76.332  29.937  0.00  0.00    +0.197 C 
ATOM     20  O   LIG    1      -21.752  76.454  28.708  0.00  0.00    -0.287 OA
BRANCH  19  28
ATOM     21  N   LIG    1      -24.154  74.321  31.883  0.00  0.00    -0.323 N 
ATOM     22  C   LIG    1      -24.921  75.436  31.606  0.00  0.00    +0.145 A 
ATOM     23  N   LIG    1      -26.181  75.655  32.018  0.00  0.00    -0.218 NA
ATOM     24  C   LIG    1      -26.656  76.848  31.630  0.00  0.00    +0.223 A 
ATOM     25  N   LIG    1      -26.020  77.798  30.924  0.00  0.00    -0.243 NA
ATOM     26  C   LIG    1      -24.752  77.543  30.533  0.00  0.00    +0.124 A 
ATOM     27  C   LIG    1      -24.155  76.323  30.858  0.00  0.00    +0.048 A 
ATOM     28  C   LIG    1      -22.885  75.716  30.623  0.00  0.00    +0.051 A 
ATOM     29  C   LIG    1      -22.928  74.480  31.248  0.00  0.00    +0.100 A 
BRANCH  21  30
ATOM     30  C   LIG    1      -24.517  73.193  32.784  0.00  0.00    +0.065 C 
ATOM     31  C   LIG    1      -23.347  72.208  33.023  0.00  0.00    +0.036 C 
ATOM     32  C   LIG    1      -24.903  73.727  34.187  0.00  0.00    +0.036 C 
BRANCH  30  33
ATOM     33  C   LIG    1      -25.712  72.396  32.178  0.00  0.00    +0.187 C 
BRANCH  33  35
ATOM     34  C   LIG    1      -25.787  70.733  30.474  0.00  0.00    +0.194 C 
ATOM     35  O   LIG    1      -25.291  71.088  31.760  0.00  0.00    -0.381 OA
ENDBRANCH  33  35
ENDBRANCH  30  33
ENDBRANCH  21  30
ENDBRANCH  19  28
ENDBRANCH   1  19
TORSDOF 8
ENDMDL
MODEL 3
REMARK VINA RESULT:      -5.3     10.666     13.273
REMARK  Name = pdb/CHEMBL3671412.pdb
REMARK                            x       y       z     vdW  Elec       q    Type
REMARK                         _______ _______ _______ _____ _____    ______ ____
ROOT
ATOM      1  C   LIG    1      -35.581  81.139  29.349  0.00  0.00    +0.042 A 
ATOM      2  C   LIG    1      -35.015  82.413  29.173  0.00  0.00    +0.038 A 
ATOM      3  C   LIG    1      -35.696  83.403  28.456  0.00  0.00    +0.052 A 
ATOM      4  C   LIG    1      -36.951  83.063  27.958  0.00  0.00    +0.134 A 
ATOM      5  N   LIG    1      -37.516  81.831  28.091  0.00  0.00    -0.261 NA
ATOM      6  C   LIG    1      -36.824  80.899  28.785  0.00  0.00    +0.122 A 
ENDROOT
BRANCH   3   7
ATOM      7  N   LIG    1      -35.061  84.661  28.298  0.00  0.00    -0.284 N 
ATOM      8  H   LIG    1      -34.498  84.776  27.463  0.00  0.00    +0.155 HD
ATOM      9  C   LIG    1      -35.151  85.751  29.160  0.00  0.00    +0.223 C 
ATOM     10  O   LIG    1      -35.807  85.764  30.198  0.00  0.00    -0.275 OA
BRANCH   9  11
ATOM     11  C   LIG    1      -34.380  86.961  28.648  0.00  0.00    +0.151 C 
BRANCH  11  12
ATOM     12  C   LIG    1      -33.043  87.164  29.320  0.00  0.00    +0.050 A 
ATOM     13  N   LIG    1      -32.605  88.440  29.462  0.00  0.00    -0.258 NA
ATOM     14  C   LIG    1      -31.401  88.622  30.067  0.00  0.00    +0.131 A 
ATOM     15  C   LIG    1      -30.626  87.590  30.571  0.00  0.00    +0.059 A 
ATOM     16 CL   LIG    1      -29.134  87.903  31.359  0.00  0.00    -0.082 Cl
ATOM     17  C   LIG    1      -31.093  86.291  30.431  0.00  0.00    +0.023 A 
ATOM     18  C   LIG    1      -32.312  86.070  29.789  0.00  0.00    +0.025 A 
ENDBRANCH  11  12
ENDBRANCH   9  11
ENDBRANCH   3   7
BRANCH   1  19
ATOM     19  C   LIG    1      -34.900  80.156  30.223  0.00  0.00    +0.197 C 
ATOM     20  O   LIG    1      -34.815  80.435  31.423  0.00  0.00    -0.287 OA
BRANCH  19  28
ATOM     21  N   LIG    1      -33.908  76.704  29.393  0.00  0.00    -0.323 N 
ATOM     22  C   LIG    1      -33.369  77.389  28.321  0.00  0.00    +0.145 A 
ATOM     23  N   LIG    1      -32.712  76.847  27.281  0.00  0.00    -0.218 NA
ATOM     24  C   LIG    1      -32.341  77.758  26.368  0.00  0.00    +0.223 A 
ATOM     25  N   LIG    1      -32.565  79.082  26.387  0.00  0.00    -0.243 NA
ATOM     26  C   LIG    1      -33.233  79.589  27.446  0.00  0.00    +0.124 A 
ATOM     27  C   LIG    1      -33.653  78.742  28.475  0.00  0.00    +0.048 A 
ATOM     28  C   LIG    1      -34.352  78.906  29.708  0.00  0.00    +0.051 A 
ATOM     29  C   LIG    1      -34.471  77.637  30.254  0.00  0.00    +0.100 A 
BRANCH  21  30
ATOM     30  C   LIG    1      -33.977  75.227  29.560  0.00  0.00    +0.065 C 
ATOM     31  C   LIG    1      -35.074  74.780  30.557  0.00  0.00    +0.036 C 
ATOM     32  C   LIG    1      -34.340  74.549  28.214  0.00  0.00    +0.036 C 
BRANCH  30  33
ATOM     33  C   LIG    1      -32.605  74.687  30.067  0.00  0.00    +0.187 C 
BRANCH  33  35
ATOM     34  C   LIG    1      -31.207  72.808  29.633  0.00  0.00    +0.194 C 
ATOM     35  O   LIG    1      -31.984  73.859  29.071  0.00  0.00    -0.381 OA
ENDBRANCH  33  35
ENDBRANCH  30  33
ENDBRANCH  21  30
ENDBRANCH  19  28
ENDBRANCH   1  19
TORSDOF 8
ENDMDL
MODEL 4
REMARK VINA RESULT:      -5.3      3.783      8.954
REMARK  Name = pdb/CHEMBL3671412.pdb
REMARK                            x       y       z     vdW  Elec       q    Type
REMARK                         _______ _______ _______ _____ _____    ______ ____
ROOT
ATOM      1  C   LIG    1      -25.560  75.272  31.916  0.00  0.00    +0.042 A 
ATOM      2  C   LIG    1      -25.497  73.968  31.397  0.00  0.00    +0.038 A 
ATOM      3  C   LIG    1      -26.204  72.923  32.004  0.00  0.00    +0.052 A 
ATOM      4  C   LIG    1      -26.976  73.254  33.115  0.00  0.00    +0.134 A 
ATOM      5  N   LIG    1      -27.039  74.503  33.656  0.00  0.00    -0.261 NA
ATOM      6  C   LIG    1      -26.336  75.484  33.044  0.00  0.00    +0.122 A 
ENDROOT
BRANCH   3   7
ATOM      7  N   LIG    1      -26.082  71.628  31.443  0.00  0.00    -0.284 N 
ATOM      8  H   LIG    1      -25.203  71.149  31.609  0.00  0.00    +0.155 HD
ATOM      9  C   LIG    1      -27.050  70.944  30.712  0.00  0.00    +0.223 C 
ATOM     10  O   LIG    1      -28.164  71.388  30.447  0.00  0.00    -0.275 OA
BRANCH   9  11
ATOM     11  C   LIG    1      -26.595  69.546  30.310  0.00  0.00    +0.151 C 
BRANCH  11  12
ATOM     12  C   LIG    1      -25.244  69.513  29.636  0.00  0.00    +0.050 A 
ATOM     13  N   LIG    1      -24.154  69.380  30.434  0.00  0.00    -0.258 NA
ATOM     14  C   LIG    1      -22.938  69.350  29.827  0.00  0.00    +0.131 A 
ATOM     15  C   LIG    1      -22.757  69.411  28.455  0.00  0.00    +0.059 A 
ATOM     16 CL   LIG    1      -21.190  69.327  27.761  0.00  0.00    -0.082 Cl
ATOM     17  C   LIG    1      -23.881  69.532  27.650  0.00  0.00    +0.023 A 
ATOM     18  C   LIG    1      -25.142  69.594  28.246  0.00  0.00    +0.025 A 
ENDBRANCH  11  12
ENDBRANCH   9  11
ENDBRANCH   3   7
BRANCH   1  19
ATOM     19  C   LIG    1      -24.912  76.379  31.176  0.00  0.00    +0.197 C 
ATOM     20  O   LIG    1      -25.510  76.827  30.194  0.00  0.00    -0.287 OA
BRANCH  19  28
ATOM     21  N   LIG    1      -21.932  77.799  32.818  0.00  0.00    -0.323 N 
ATOM     22  C   LIG    1      -21.408  77.466  31.583  0.00  0.00    +0.145 A 
ATOM     23  N   LIG    1      -20.131  77.618  31.194  0.00  0.00    -0.218 NA
ATOM     24  C   LIG    1      -19.906  77.165  29.952  0.00  0.00    +0.223 A 
ATOM     25  N   LIG    1      -20.785  76.589  29.114  0.00  0.00    -0.243 NA
ATOM     26  C   LIG    1      -22.059  76.449  29.543  0.00  0.00    +0.124 A 
ATOM     27  C   LIG    1      -22.421  76.904  30.813  0.00  0.00    +0.048 A 
ATOM     28  C   LIG    1      -23.623  76.934  31.580  0.00  0.00    +0.051 A 
ATOM     29  C   LIG    1      -23.290  77.509  32.796  0.00  0.00    +0.100 A 
BRANCH  21  30
ATOM     30  C   LIG    1      -21.173  78.282  34.004  0.00  0.00    +0.065 C 
ATOM     31  C   LIG    1      -20.433  77.146  34.753  0.00  0.00    +0.036 C 
ATOM     32  C   LIG    1      -20.068  79.279  33.568  0.00  0.00    +0.036 C 
BRANCH  30  33
ATOM     33  C   LIG    1      -22.144  78.978  35.005  0.00  0.00    +0.187 C 
BRANCH  33  35
ATOM     34  C   LIG    1      -22.481  81.294  35.451  0.00  0.00    +0.194 C 
ATOM     35  O   LIG    1      -21.573  80.199  35.502  0.00  0.00    -0.381 OA
ENDBRANCH  33  35
ENDBRANCH  30  33
ENDBRANCH  21  30
ENDBRANCH  19  28
ENDBRANCH   1  19
TORSDOF 8
ENDMDL
MODEL 5
REMARK VINA RESULT:      -5.3     14.212     17.626
REMARK  Name = pdb/CHEMBL3671412.pdb
REMARK                            x       y       z     vdW  Elec       q    Type
REMARK                         _______ _______ _______ _____ _____    ______ ____
ROOT
ATOM      1  C   LIG    1      -38.986  73.968  25.030  0.00  0.00    +0.042 A 
ATOM      2  C   LIG    1      -37.808  74.470  25.609  0.00  0.00    +0.038 A 
ATOM      3  C   LIG    1      -37.473  75.823  25.488  0.00  0.00    +0.052 A 
ATOM      4  C   LIG    1      -38.371  76.629  24.793  0.00  0.00    +0.134 A 
ATOM      5  N   LIG    1      -39.508  76.170  24.200  0.00  0.00    -0.261 NA
ATOM      6  C   LIG    1      -39.793  74.854  24.335  0.00  0.00    +0.122 A 
ENDROOT
BRANCH   3   7
ATOM      7  N   LIG    1      -36.261  76.260  26.078  0.00  0.00    -0.284 N 
ATOM      8  H   LIG    1      -35.429  76.184  25.503  0.00  0.00    +0.155 HD
ATOM      9  C   LIG    1      -36.104  76.800  27.352  0.00  0.00    +0.223 C 
ATOM     10  O   LIG    1      -37.020  76.968  28.153  0.00  0.00    -0.275 OA
BRANCH   9  11
ATOM     11  C   LIG    1      -34.665  77.213  27.636  0.00  0.00    +0.151 C 
BRANCH  11  12
ATOM     12  C   LIG    1      -33.812  76.104  28.203  0.00  0.00    +0.050 A 
ATOM     13  N   LIG    1      -34.229  74.829  27.998  0.00  0.00    -0.258 NA
ATOM     14  C   LIG    1      -33.461  73.832  28.509  0.00  0.00    +0.131 A 
ATOM     15  C   LIG    1      -32.272  74.043  29.188  0.00  0.00    +0.059 A 
ATOM     16 CL   LIG    1      -31.336  72.728  29.770  0.00  0.00    -0.082 Cl
ATOM     17  C   LIG    1      -31.849  75.350  29.379  0.00  0.00    +0.023 A 
ATOM     18  C   LIG    1      -32.632  76.398  28.890  0.00  0.00    +0.025 A 
ENDBRANCH  11  12
ENDBRANCH   9  11
ENDBRANCH   3   7
BRANCH   1  19
ATOM     19  C   LIG    1      -39.381  72.565  25.289  0.00  0.00    +0.197 C 
ATOM     20  O   LIG    1      -39.739  72.283  26.436  0.00  0.00    -0.287 OA
BRANCH  19  28
ATOM     21  N   LIG    1      -38.775  69.766  22.967  0.00  0.00    -0.323 N 
ATOM     22  C   LIG    1      -40.041  70.156  22.572  0.00  0.00    +0.145 A 
ATOM     23  N   LIG    1      -40.787  69.578  21.616  0.00  0.00    -0.218 NA
ATOM     24  C   LIG    1      -41.994  70.147  21.482  0.00  0.00    +0.223 A 
ATOM     25  N   LIG    1      -42.505  71.172  22.186  0.00  0.00    -0.243 NA
ATOM     26  C   LIG    1      -41.726  71.723  23.142  0.00  0.00    +0.124 A 
ATOM     27  C   LIG    1      -40.437  71.230  23.361  0.00  0.00    +0.048 A 
ATOM     28  C   LIG    1      -39.361  71.547  24.243  0.00  0.00    +0.051 A 
ATOM     29  C   LIG    1      -38.351  70.642  23.958  0.00  0.00    +0.100 A 
BRANCH  21  30
ATOM     30  C   LIG    1      -38.029  68.565  22.502  0.00  0.00    +0.065 C 
ATOM     31  C   LIG    1      -38.839  67.253  22.652  0.00  0.00    +0.036 C 
ATOM     32  C   LIG    1      -37.706  68.682  20.990  0.00  0.00    +0.036 C 
BRANCH  30  33
ATOM     33  C   LIG    1      -36.705  68.418  23.313  0.00  0.00    +0.187 C 
BRANCH  33  35
ATOM     34  C   LIG    1      -34.787  67.107  22.790  0.00  0.00    +0.194 C 
ATOM     35  O   LIG    1      -36.161  67.097  23.162  0.00  0.00    -0.381 OA
ENDBRANCH  33  35
ENDBRANCH  30  33
ENDBRANCH  21  30
ENDBRANCH  19  28
ENDBRANCH   1  19
TORSDOF 8
ENDMDL
MODEL 6
REMARK VINA RESULT:      -5.3      2.349      2.969
REMARK  Name = pdb/CHEMBL3671412.pdb
REMARK                            x       y       z     vdW  Elec       q    Type
REMARK                         _______ _______ _______ _____ _____    ______ ____
ROOT
ATOM      1  C   LIG    1      -20.750  76.672  30.768  0.00  0.00    +0.042 A 
ATOM      2  C   LIG    1      -20.932  77.717  31.689  0.00  0.00    +0.038 A 
ATOM      3  C   LIG    1      -19.854  78.207  32.435  0.00  0.00    +0.052 A 
ATOM      4  C   LIG    1      -18.613  77.623  32.197  0.00  0.00    +0.134 A 
ATOM      5  N   LIG    1      -18.408  76.593  31.329  0.00  0.00    -0.261 NA
ATOM      6  C   LIG    1      -19.476  76.144  30.632  0.00  0.00    +0.122 A 
ENDROOT
BRANCH   3   7
ATOM      7  N   LIG    1      -20.109  79.249  33.362  0.00  0.00    -0.284 N 
ATOM      8  H   LIG    1      -19.545  80.086  33.261  0.00  0.00    +0.155 HD
ATOM      9  C   LIG    1      -21.065  79.245  34.374  0.00  0.00    +0.223 C 
ATOM     10  O   LIG    1      -21.829  78.311  34.605  0.00  0.00    -0.275 OA
BRANCH   9  11
ATOM     11  C   LIG    1      -21.099  80.558  35.147  0.00  0.00    +0.151 C 
BRANCH  11  12
ATOM     12  C   LIG    1      -20.195  80.580  36.356  0.00  0.00    +0.050 A 
ATOM     13  N   LIG    1      -19.236  79.623  36.433  0.00  0.00    -0.258 NA
ATOM     14  C   LIG    1      -18.423  79.643  37.522  0.00  0.00    +0.131 A 
ATOM     15  C   LIG    1      -18.496  80.596  38.524  0.00  0.00    +0.059 A 
ATOM     16 CL   LIG    1      -17.406  80.578  39.850  0.00  0.00    -0.082 Cl
ATOM     17  C   LIG    1      -19.472  81.577  38.426  0.00  0.00    +0.023 A 
ATOM     18  C   LIG    1      -20.341  81.566  37.333  0.00  0.00    +0.025 A 
ENDBRANCH  11  12
ENDBRANCH   9  11
ENDBRANCH   3   7
BRANCH   1  19
ATOM     19  C   LIG    1      -21.878  76.267  29.898  0.00  0.00    +0.197 C 
ATOM     20  O   LIG    1      -21.765  76.491  28.690  0.00  0.00    -0.287 OA
BRANCH  19  28
ATOM     21  N   LIG    1      -24.488  74.123  31.375  0.00  0.00    -0.323 N 
ATOM     22  C   LIG    1      -25.164  75.325  31.288  0.00  0.00    +0.145 A 
ATOM     23  N   LIG    1      -26.422  75.560  31.698  0.00  0.00    -0.218 NA
ATOM     24  C   LIG    1      -26.797  76.837  31.523  0.00  0.00    +0.223 A 
ATOM     25  N   LIG    1      -26.068  77.848  31.022  0.00  0.00    -0.243 NA
ATOM     26  C   LIG    1      -24.807  77.573  30.625  0.00  0.00    +0.124 A 
ATOM     27  C   LIG    1      -24.309  76.272  30.736  0.00  0.00    +0.048 A 
ATOM     28  C   LIG    1      -23.076  75.624  30.428  0.00  0.00    +0.051 A 
ATOM     29  C   LIG    1      -23.230  74.301  30.814  0.00  0.00    +0.100 A 
BRANCH  21  30
ATOM     30  C   LIG    1      -24.965  72.882  32.044  0.00  0.00    +0.065 C 
ATOM     31  C   LIG    1      -25.414  73.115  33.507  0.00  0.00    +0.036 C 
ATOM     32  C   LIG    1      -26.212  72.321  31.312  0.00  0.00    +0.036 C 
BRANCH  30  33
ATOM     33  C   LIG    1      -23.831  71.812  32.044  0.00  0.00    +0.187 C 
BRANCH  33  35
ATOM     34  C   LIG    1      -23.883  69.437  31.873  0.00  0.00    +0.194 C 
ATOM     35  O   LIG    1      -24.203  70.675  31.249  0.00  0.00    -0.381 OA
ENDBRANCH  33  35
ENDBRANCH  30  33
ENDBRANCH  21  30
ENDBRANCH  19  28
ENDBRANCH   1  19
TORSDOF 8
ENDMDL
MODEL 7
REMARK VINA RESULT:      -5.2     12.241     16.441
REMARK  Name = pdb/CHEMBL3671412.pdb
REMARK                            x       y       z     vdW  Elec       q    Type
REMARK                         _______ _______ _______ _____ _____    ______ ____
ROOT
ATOM      1  C   LIG    1      -35.186  73.606  28.473  0.00  0.00    +0.042 A 
ATOM      2  C   LIG    1      -36.230  73.822  27.558  0.00  0.00    +0.038 A 
ATOM      3  C   LIG    1      -37.331  72.960  27.514  0.00  0.00    +0.052 A 
ATOM      4  C   LIG    1      -37.339  71.910  28.429  0.00  0.00    +0.134 A 
ATOM      5  N   LIG    1      -36.332  71.659  29.312  0.00  0.00    -0.261 NA
ATOM      6  C   LIG    1      -35.283  72.513  29.319  0.00  0.00    +0.122 A 
ENDROOT
BRANCH   3   7
ATOM      7  N   LIG    1      -38.340  73.223  26.554  0.00  0.00    -0.284 N 
ATOM      8  H   LIG    1      -39.114  73.800  26.864  0.00  0.00    +0.155 HD
ATOM      9  C   LIG    1      -38.362  72.788  25.231  0.00  0.00    +0.223 C 
ATOM     10  O   LIG    1      -37.488  72.099  24.712  0.00  0.00    -0.275 OA
BRANCH   9  11
ATOM     11  C   LIG    1      -39.576  73.306  24.470  0.00  0.00    +0.151 C 
BRANCH  11  12
ATOM     12  C   LIG    1      -39.589  74.804  24.285  0.00  0.00    +0.050 A 
ATOM     13  N   LIG    1      -38.475  75.486  24.650  0.00  0.00    -0.258 NA
ATOM     14  C   LIG    1      -38.487  76.835  24.484  0.00  0.00    +0.131 A 
ATOM     15  C   LIG    1      -39.548  77.536  23.936  0.00  0.00    +0.059 A 
ATOM     16 CL   LIG    1      -39.473  79.237  23.721  0.00  0.00    -0.082 Cl
ATOM     17  C   LIG    1      -40.677  76.825  23.554  0.00  0.00    +0.023 A 
ATOM     18  C   LIG    1      -40.705  75.442  23.738  0.00  0.00    +0.025 A 
ENDBRANCH  11  12
ENDBRANCH   9  11
ENDBRANCH   3   7
BRANCH   1  19
ATOM     19  C   LIG    1      -34.102  74.608  28.588  0.00  0.00    +0.197 C 
ATOM     20  O   LIG    1      -32.958  74.182  28.772  0.00  0.00    -0.287 OA
BRANCH  19  28
ATOM     21  N   LIG    1      -35.120  78.139  28.889  0.00  0.00    -0.323 N 
ATOM     22  C   LIG    1      -34.128  78.240  27.932  0.00  0.00    +0.145 A 
ATOM     23  N   LIG    1      -33.693  79.374  27.356  0.00  0.00    -0.218 NA
ATOM     24  C   LIG    1      -32.688  79.166  26.491  0.00  0.00    +0.223 A 
ATOM     25  N   LIG    1      -32.098  78.000  26.179  0.00  0.00    -0.243 NA
ATOM     26  C   LIG    1      -32.560  76.883  26.783  0.00  0.00    +0.124 A 
ATOM     27  C   LIG    1      -33.621  76.969  27.688  0.00  0.00    +0.048 A 
ATOM     28  C   LIG    1      -34.355  76.042  28.486  0.00  0.00    +0.051 A 
ATOM     29  C   LIG    1      -35.281  76.793  29.194  0.00  0.00    +0.100 A 
BRANCH  21  30
ATOM     30  C   LIG    1      -35.824  79.265  29.561  0.00  0.00    +0.065 C 
ATOM     31  C   LIG    1      -36.773  78.797  30.692  0.00  0.00    +0.036 C 
ATOM     32  C   LIG    1      -34.802  80.211  30.242  0.00  0.00    +0.036 C 
BRANCH  30  33
ATOM     33  C   LIG    1      -36.664  80.062  28.517  0.00  0.00    +0.187 C 
BRANCH  33  35
ATOM     34  C   LIG    1      -37.465  82.305  28.526  0.00  0.00    +0.194 C 
ATOM     35  O   LIG    1      -36.322  81.457  28.548  0.00  0.00    -0.381 OA
ENDBRANCH  33  35
ENDBRANCH  30  33
ENDBRANCH  21  30
ENDBRANCH  19  28
ENDBRANCH   1  19
TORSDOF 8
ENDMDL
MODEL 8
REMARK VINA RESULT:      -5.2     12.679     16.399
REMARK  Name = pdb/CHEMBL3671412.pdb
REMARK                            x       y       z     vdW  Elec       q    Type
REMARK                         _______ _______ _______ _____ _____    ______ ____
ROOT
ATOM      1  C   LIG    1      -39.168  73.434  24.516  0.00  0.00    +0.042 A 
ATOM      2  C   LIG    1      -38.041  74.050  25.085  0.00  0.00    +0.038 A 
ATOM      3  C   LIG    1      -37.946  75.445  25.149  0.00  0.00    +0.052 A 
ATOM      4  C   LIG    1      -39.024  76.168  24.645  0.00  0.00    +0.134 A 
ATOM      5  N   LIG    1      -40.119  75.602  24.066  0.00  0.00    -0.261 NA
ATOM      6  C   LIG    1      -40.170  74.251  24.018  0.00  0.00    +0.122 A 
ENDROOT
BRANCH   3   7
ATOM      7  N   LIG    1      -36.774  76.003  25.717  0.00  0.00    -0.284 N 
ATOM      8  H   LIG    1      -36.018  76.210  25.073  0.00  0.00    +0.155 HD
ATOM      9  C   LIG    1      -36.568  76.314  27.059  0.00  0.00    +0.223 C 
ATOM     10  O   LIG    1      -37.396  76.136  27.949  0.00  0.00    -0.275 OA
BRANCH   9  11
ATOM     11  C   LIG    1      -35.206  76.953  27.305  0.00  0.00    +0.151 C 
BRANCH  11  12
ATOM     12  C   LIG    1      -34.208  76.031  27.964  0.00  0.00    +0.050 A 
ATOM     13  N   LIG    1      -34.393  74.696  27.803  0.00  0.00    -0.258 NA
ATOM     14  C   LIG    1      -33.494  73.867  28.396  0.00  0.00    +0.131 A 
ATOM     15  C   LIG    1      -32.395  74.306  29.115  0.00  0.00    +0.059 A 
ATOM     16 CL   LIG    1      -31.280  73.196  29.802  0.00  0.00    -0.082 Cl
ATOM     17  C   LIG    1      -32.210  75.674  29.260  0.00  0.00    +0.023 A 
ATOM     18  C   LIG    1      -33.132  76.551  28.686  0.00  0.00    +0.025 A 
ENDBRANCH  11  12
ENDBRANCH   9  11
ENDBRANCH   3   7
BRANCH   1  19
ATOM     19  C   LIG    1      -39.302  71.960  24.584  0.00  0.00    +0.197 C 
ATOM     20  O   LIG    1      -40.443  71.495  24.519  0.00  0.00    -0.287 OA
BRANCH  19  28
ATOM     21  N   LIG    1      -36.383  69.936  25.570  0.00  0.00    -0.323 N 
ATOM     22  C   LIG    1      -36.642  69.417  24.316  0.00  0.00    +0.145 A 
ATOM     23  N   LIG    1      -35.977  68.412  23.720  0.00  0.00    -0.218 NA
ATOM     24  C   LIG    1      -36.481  68.095  22.518  0.00  0.00    +0.223 A 
ATOM     25  N   LIG    1      -37.540  68.643  21.898  0.00  0.00    -0.243 NA
ATOM     26  C   LIG    1      -38.185  69.646  22.532  0.00  0.00    +0.124 A 
ATOM     27  C   LIG    1      -37.739  70.082  23.782  0.00  0.00    +0.048 A 
ATOM     28  C   LIG    1      -38.145  71.080  24.717  0.00  0.00    +0.051 A 
ATOM     29  C   LIG    1      -37.277  70.975  25.793  0.00  0.00    +0.100 A 
BRANCH  21  30
ATOM     30  C   LIG    1      -35.400  69.418  26.561  0.00  0.00    +0.065 C 
ATOM     31  C   LIG    1      -35.705  67.970  27.018  0.00  0.00    +0.036 C 
ATOM     32  C   LIG    1      -33.982  69.367  25.937  0.00  0.00    +0.036 C 
BRANCH  30  33
ATOM     33  C   LIG    1      -35.387  70.336  27.822  0.00  0.00    +0.187 C 
BRANCH  33  35
ATOM     34  C   LIG    1      -34.033  70.059  29.762  0.00  0.00    +0.194 C 
ATOM     35  O   LIG    1      -34.067  70.410  28.383  0.00  0.00    -0.381 OA
ENDBRANCH  33  35
ENDBRANCH  30  33
ENDBRANCH  21  30
ENDBRANCH  19  28
ENDBRANCH   1  19
TORSDOF 8
ENDMDL
MODEL 9
REMARK VINA RESULT:      -5.2     13.251     16.465
REMARK  Name = pdb/CHEMBL3671412.pdb
REMARK                            x       y       z     vdW  Elec       q    Type
REMARK                         _______ _______ _______ _____ _____    ______ ____
ROOT
ATOM      1  C   LIG    1      -39.156  74.254  24.501  0.00  0.00    +0.042 A 
ATOM      2  C   LIG    1      -37.922  74.641  25.050  0.00  0.00    +0.038 A 
ATOM      3  C   LIG    1      -37.657  75.986  25.333  0.00  0.00    +0.052 A 
ATOM      4  C   LIG    1      -38.679  76.894  25.063  0.00  0.00    +0.134 A 
ATOM      5  N   LIG    1      -39.876  76.554  24.509  0.00  0.00    -0.261 NA
ATOM      6  C   LIG    1      -40.091  75.245  24.245  0.00  0.00    +0.122 A 
ENDROOT
BRANCH   3   7
ATOM      7  N   LIG    1      -36.386  76.312  25.867  0.00  0.00    -0.284 N 
ATOM      8  H   LIG    1      -35.761  76.826  25.256  0.00  0.00    +0.155 HD
ATOM      9  C   LIG    1      -35.923  76.018  27.147  0.00  0.00    +0.223 C 
ATOM     10  O   LIG    1      -36.571  75.418  28.001  0.00  0.00    -0.275 OA
BRANCH   9  11
ATOM     11  C   LIG    1      -34.525  76.569  27.400  0.00  0.00    +0.151 C 
BRANCH  11  12
ATOM     12  C   LIG    1      -34.512  77.935  28.042  0.00  0.00    +0.050 A 
ATOM     13  N   LIG    1      -34.218  78.994  27.247  0.00  0.00    -0.258 NA
ATOM     14  C   LIG    1      -34.207  80.224  27.826  0.00  0.00    +0.131 A 
ATOM     15  C   LIG    1      -34.511  80.454  29.157  0.00  0.00    +0.059 A 
ATOM     16 CL   LIG    1      -34.515  82.042  29.806  0.00  0.00    -0.082 Cl
ATOM     17  C   LIG    1      -34.824  79.363  29.956  0.00  0.00    +0.023 A 
ATOM     18  C   LIG    1      -34.816  78.085  29.397  0.00  0.00    +0.025 A 
ENDBRANCH  11  12
ENDBRANCH   9  11
ENDBRANCH   3   7
BRANCH   1  19
ATOM     19  C   LIG    1      -39.459  72.813  24.338  0.00  0.00    +0.197 C 
ATOM     20  O   LIG    1      -40.368  72.514  23.560  0.00  0.00    -0.287 OA
BRANCH  19  28
ATOM     21  N   LIG    1      -37.284  70.095  25.552  0.00  0.00    -0.323 N 
ATOM     22  C   LIG    1      -37.783  70.575  26.747  0.00  0.00    +0.145 A 
ATOM     23  N   LIG    1      -37.467  70.132  27.976  0.00  0.00    -0.218 NA
ATOM     24  C   LIG    1      -38.077  70.820  28.952  0.00  0.00    +0.223 A 
ATOM     25  N   LIG    1      -38.914  71.864  28.825  0.00  0.00    -0.243 NA
ATOM     26  C   LIG    1      -39.204  72.284  27.574  0.00  0.00    +0.124 A 
ATOM     27  C   LIG    1      -38.646  71.631  26.472  0.00  0.00    +0.048 A 
ATOM     28  C   LIG    1      -38.720  71.779  25.055  0.00  0.00    +0.051 A 
ATOM     29  C   LIG    1      -37.888  70.806  24.523  0.00  0.00    +0.100 A 
BRANCH  21  30
ATOM     30  C   LIG    1      -36.213  69.075  25.382  0.00  0.00    +0.065 C 
ATOM     31  C   LIG    1      -34.812  69.594  25.787  0.00  0.00    +0.036 C 
ATOM     32  C   LIG    1      -36.483  67.852  26.296  0.00  0.00    +0.036 C 
BRANCH  30  33
ATOM     33  C   LIG    1      -36.153  68.615  23.893  0.00  0.00    +0.187 C 
BRANCH  33  35
ATOM     34  C   LIG    1      -34.760  67.188  22.591  0.00  0.00    +0.194 C 
ATOM     35  O   LIG    1      -34.811  68.262  23.524  0.00  0.00    -0.381 OA
ENDBRANCH  33  35
ENDBRANCH  30  33
ENDBRANCH  21  30
ENDBRANCH  19  28
ENDBRANCH   1  19
TORSDOF 8
ENDMDL
