MODEL 1
REMARK VINA RESULT:      -7.1      0.000      0.000
REMARK  Name = pdb/CHEMBL3964567.pdb
REMARK                            x       y       z     vdW  Elec       q    Type
REMARK                         _______ _______ _______ _____ _____    ______ ____
ROOT
ATOM      1  C   LIG    1      -35.989  69.595  28.809  0.00  0.00    +0.105 A 
ATOM      2  C   LIG    1      -35.939  70.554  29.802  0.00  0.00    +0.145 A 
ATOM      3  N   LIG    1      -34.944  71.458  29.946  0.00  0.00    -0.201 NA
ATOM      4  C   LIG    1      -33.927  71.358  29.069  0.00  0.00    +0.323 A 
ATOM      5  N   LIG    1      -33.843  70.453  28.084  0.00  0.00    -0.201 NA
ATOM      6  C   LIG    1      -34.863  69.575  28.008  0.00  0.00    +0.145 A 
ENDROOT
BRANCH   1   8
ATOM      7  C   LIG    1      -37.946  68.724  27.804  0.00  0.00    +0.286 C 
ATOM      8  N   LIG    1      -37.060  68.703  28.742  0.00  0.00    -0.196 NA
BRANCH   7   9
ATOM      9  N   LIG    1      -38.045  69.503  26.680  0.00  0.00    -0.254 N 
ATOM     10  H   LIG    1      -38.740  70.236  26.757  0.00  0.00    +0.158 HD
BRANCH   9  12
ATOM     11  N   LIG    1      -38.017  70.118  24.330  0.00  0.00    -0.218 N 
ATOM     12  C   LIG    1      -37.641  69.291  25.392  0.00  0.00    +0.130 A 
ATOM     13  C   LIG    1      -36.954  68.242  24.834  0.00  0.00    +0.069 A 
ATOM     14  C   LIG    1      -37.080  68.410  23.433  0.00  0.00    +0.071 A 
ATOM     15  N   LIG    1      -37.788  69.510  23.134  0.00  0.00    -0.169 NA
BRANCH  11  21
ATOM     16  C   LIG    1      -39.942  75.539  24.484  0.00  0.00    +0.044 C 
ATOM     17  C   LIG    1      -39.477  74.107  24.446  0.00  0.00    -0.047 A 
ATOM     18  C   LIG    1      -40.264  73.084  23.880  0.00  0.00    -0.046 A 
ATOM     19  C   LIG    1      -41.642  73.368  23.347  0.00  0.00    +0.044 C 
ATOM     20  C   LIG    1      -39.767  71.765  23.845  0.00  0.00    +0.031 A 
ATOM     21  C   LIG    1      -38.509  71.457  24.382  0.00  0.00    +0.068 A 
ATOM     22  C   LIG    1      -37.725  72.485  24.919  0.00  0.00    +0.028 A 
ATOM     23  C   LIG    1      -38.204  73.796  24.944  0.00  0.00    +0.006 A 
ENDBRANCH  11  21
BRANCH  14  24
ATOM     24  C   LIG    1      -36.533  67.502  22.341  0.00  0.00    +0.006 C 
ATOM     25  C   LIG    1      -34.998  67.377  22.437  0.00  0.00    +0.017 C 
ATOM     26  C   LIG    1      -36.872  68.054  20.939  0.00  0.00    +0.017 C 
ATOM     27  C   LIG    1      -37.155  66.100  22.476  0.00  0.00    +0.017 C 
ENDBRANCH  14  24
ENDBRANCH   9  12
ENDBRANCH   7   9
BRANCH   7  28
ATOM     28  O   LIG    1      -38.891  67.769  27.910  0.00  0.00    -0.481 OA
ATOM     29  H   LIG    1      -38.987  67.462  28.821  0.00  0.00    +0.295 HD
ENDBRANCH   7  28
ENDBRANCH   1   8
BRANCH   4  30
ATOM     30  O   LIG    1      -32.870  72.247  29.121  0.00  0.00    -0.424 OA
BRANCH  30  31
ATOM     31  C   LIG    1      -33.108  73.556  28.791  0.00  0.00    +0.132 A 
ATOM     32  C   LIG    1      -34.148  73.984  27.966  0.00  0.00    +0.047 A 
ATOM     33  C   LIG    1      -34.304  75.343  27.674  0.00  0.00    +0.012 A 
ATOM     34  C   LIG    1      -33.458  76.302  28.244  0.00  0.00    -0.010 A 
ATOM     35  C   LIG    1      -32.454  75.849  29.123  0.00  0.00    +0.012 A 
ATOM     36  C   LIG    1      -32.278  74.492  29.394  0.00  0.00    +0.047 A 
BRANCH  34  37
ATOM     37  C   LIG    1      -33.625  77.729  27.928  0.00  0.00    +0.041 A 
ATOM     38  S   LIG    1      -34.818  78.667  28.721  0.00  0.00    -0.052 S 
ATOM     39  C   LIG    1      -34.382  80.041  27.832  0.00  0.00    +0.168 A 
ATOM     40  N   LIG    1      -33.363  79.893  27.021  0.00  0.00    -0.232 NA
ATOM     41  C   LIG    1      -32.958  78.561  27.039  0.00  0.00    +0.129 A 
BRANCH  39  42
ATOM     42  N   LIG    1      -35.038  81.233  28.065  0.00  0.00    -0.250 N 
ATOM     43  C   LIG    1      -34.892  81.995  29.230  0.00  0.00    +0.221 C 
ATOM     44  O   LIG    1      -34.233  81.782  30.236  0.00  0.00    -0.275 OA
ATOM     45  C   LIG    1      -35.808  83.186  29.107  0.00  0.00    +0.098 C 
ATOM     46  C   LIG    1      -36.123  83.226  27.622  0.00  0.00    +0.029 C 
ATOM     47  C   LIG    1      -36.067  81.768  27.216  0.00  0.00    +0.116 C 
ENDBRANCH  39  42
ENDBRANCH  34  37
ENDBRANCH  30  31
ENDBRANCH   4  30
TORSDOF 10
ENDMDL
MODEL 2
REMARK VINA RESULT:      -7.0     13.229     17.815
REMARK  Name = pdb/CHEMBL3964567.pdb
REMARK                            x       y       z     vdW  Elec       q    Type
REMARK                         _______ _______ _______ _____ _____    ______ ____
ROOT
ATOM      1  C   LIG    1      -24.847  72.455  13.899  0.00  0.00    +0.105 A 
ATOM      2  C   LIG    1      -25.737  73.020  14.792  0.00  0.00    +0.145 A 
ATOM      3  N   LIG    1      -25.925  72.592  16.061  0.00  0.00    -0.201 NA
ATOM      4  C   LIG    1      -25.212  71.511  16.429  0.00  0.00    +0.323 A 
ATOM      5  N   LIG    1      -24.344  70.855  15.647  0.00  0.00    -0.201 NA
ATOM      6  C   LIG    1      -24.215  71.328  14.392  0.00  0.00    +0.145 A 
ENDROOT
BRANCH   1   8
ATOM      7  C   LIG    1      -23.954  73.960  12.306  0.00  0.00    +0.286 C 
ATOM      8  N   LIG    1      -24.721  72.968  12.607  0.00  0.00    -0.196 NA
BRANCH   7   9
ATOM      9  N   LIG    1      -23.076  74.680  13.075  0.00  0.00    -0.254 N 
ATOM     10  H   LIG    1      -22.263  74.149  13.365  0.00  0.00    +0.158 HD
BRANCH   9  12
ATOM     11  N   LIG    1      -22.977  75.926  15.158  0.00  0.00    -0.218 N 
ATOM     12  C   LIG    1      -23.232  75.836  13.787  0.00  0.00    +0.130 A 
ATOM     13  C   LIG    1      -23.761  77.047  13.417  0.00  0.00    +0.069 A 
ATOM     14  C   LIG    1      -23.943  77.765  14.625  0.00  0.00    +0.071 A 
ATOM     15  N   LIG    1      -23.533  77.052  15.684  0.00  0.00    -0.169 NA
BRANCH  11  21
ATOM     16  C   LIG    1      -19.771  72.482  18.471  0.00  0.00    +0.044 C 
ATOM     17  C   LIG    1      -20.642  73.358  17.610  0.00  0.00    -0.047 A 
ATOM     18  C   LIG    1      -22.030  73.471  17.827  0.00  0.00    -0.046 A 
ATOM     19  C   LIG    1      -22.718  72.662  18.893  0.00  0.00    +0.044 C 
ATOM     20  C   LIG    1      -22.793  74.328  17.009  0.00  0.00    +0.031 A 
ATOM     21  C   LIG    1      -22.191  75.055  15.971  0.00  0.00    +0.068 A 
ATOM     22  C   LIG    1      -20.808  74.955  15.781  0.00  0.00    +0.028 A 
ATOM     23  C   LIG    1      -20.043  74.120  16.597  0.00  0.00    +0.006 A 
ENDBRANCH  11  21
BRANCH  14  24
ATOM     24  C   LIG    1      -24.533  79.157  14.791  0.00  0.00    +0.006 C 
ATOM     25  C   LIG    1      -24.595  79.902  13.441  0.00  0.00    +0.017 C 
ATOM     26  C   LIG    1      -23.682  80.010  15.758  0.00  0.00    +0.017 C 
ATOM     27  C   LIG    1      -25.958  79.049  15.364  0.00  0.00    +0.017 C 
ENDBRANCH  14  24
ENDBRANCH   9  12
ENDBRANCH   7   9
BRANCH   7  28
ATOM     28  O   LIG    1      -23.961  74.293  11.000  0.00  0.00    -0.481 OA
ATOM     29  H   LIG    1      -24.230  73.552  10.444  0.00  0.00    +0.295 HD
ENDBRANCH   7  28
ENDBRANCH   1   8
BRANCH   4  30
ATOM     30  O   LIG    1      -25.321  71.007  17.711  0.00  0.00    -0.424 OA
BRANCH  30  31
ATOM     31  C   LIG    1      -26.322  70.108  17.972  0.00  0.00    +0.132 A 
ATOM     32  C   LIG    1      -26.221  68.733  17.759  0.00  0.00    +0.047 A 
ATOM     33  C   LIG    1      -27.302  67.893  18.043  0.00  0.00    +0.012 A 
ATOM     34  C   LIG    1      -28.482  68.404  18.596  0.00  0.00    -0.010 A 
ATOM     35  C   LIG    1      -28.536  69.787  18.860  0.00  0.00    +0.012 A 
ATOM     36  C   LIG    1      -27.471  70.632  18.551  0.00  0.00    +0.047 A 
BRANCH  34  37
ATOM     37  C   LIG    1      -29.617  67.514  18.887  0.00  0.00    +0.041 A 
ATOM     38  S   LIG    1      -31.228  68.043  18.643  0.00  0.00    -0.052 S 
ATOM     39  C   LIG    1      -31.837  66.561  19.194  0.00  0.00    +0.168 A 
ATOM     40  N   LIG    1      -30.939  65.654  19.493  0.00  0.00    -0.232 NA
ATOM     41  C   LIG    1      -29.670  66.211  19.363  0.00  0.00    +0.129 A 
BRANCH  39  42
ATOM     42  N   LIG    1      -33.202  66.356  19.212  0.00  0.00    -0.250 N 
ATOM     43  C   LIG    1      -33.986  66.395  20.371  0.00  0.00    +0.221 C 
ATOM     44  O   LIG    1      -33.668  66.572  21.536  0.00  0.00    -0.275 OA
ATOM     45  C   LIG    1      -35.403  66.075  19.965  0.00  0.00    +0.098 C 
ATOM     46  C   LIG    1      -35.388  66.286  18.461  0.00  0.00    +0.029 C 
ATOM     47  C   LIG    1      -33.969  65.925  18.075  0.00  0.00    +0.116 C 
ENDBRANCH  39  42
ENDBRANCH  34  37
ENDBRANCH  30  31
ENDBRANCH   4  30
TORSDOF 10
ENDMDL
MODEL 3
REMARK VINA RESULT:      -6.8     14.799     22.226
REMARK  Name = pdb/CHEMBL3964567.pdb
REMARK                            x       y       z     vdW  Elec       q    Type
REMARK                         _______ _______ _______ _____ _____    ______ ____
ROOT
ATOM      1  C   LIG    1      -26.430  90.501  39.602  0.00  0.00    +0.105 A 
ATOM      2  C   LIG    1      -25.544  89.529  39.177  0.00  0.00    +0.145 A 
ATOM      3  N   LIG    1      -25.904  88.374  38.573  0.00  0.00    -0.201 NA
ATOM      4  C   LIG    1      -27.227  88.170  38.436  0.00  0.00    +0.323 A 
ATOM      5  N   LIG    1      -28.185  89.017  38.835  0.00  0.00    -0.201 NA
ATOM      6  C   LIG    1      -27.755  90.143  39.440  0.00  0.00    +0.145 A 
ENDROOT
BRANCH   1   8
ATOM      7  C   LIG    1      -25.439  92.649  39.568  0.00  0.00    +0.286 C 
ATOM      8  N   LIG    1      -25.962  91.664  40.215  0.00  0.00    -0.196 NA
BRANCH   7   9
ATOM      9  N   LIG    1      -25.271  92.849  38.221  0.00  0.00    -0.254 N 
ATOM     10  H   LIG    1      -26.121  93.125  37.745  0.00  0.00    +0.158 HD
BRANCH   9  12
ATOM     11  N   LIG    1      -24.558  91.738  36.182  0.00  0.00    -0.218 N 
ATOM     12  C   LIG    1      -24.292  92.442  37.360  0.00  0.00    +0.130 A 
ATOM     13  C   LIG    1      -22.924  92.483  37.479  0.00  0.00    +0.069 A 
ATOM     14  C   LIG    1      -22.429  91.662  36.436  0.00  0.00    +0.071 A 
ATOM     15  N   LIG    1      -23.428  91.155  35.697  0.00  0.00    -0.169 NA
BRANCH  11  21
ATOM     16  C   LIG    1      -29.562  91.387  33.364  0.00  0.00    +0.044 C 
ATOM     17  C   LIG    1      -28.237  91.498  34.069  0.00  0.00    -0.047 A 
ATOM     18  C   LIG    1      -27.348  92.563  33.820  0.00  0.00    -0.046 A 
ATOM     19  C   LIG    1      -27.658  93.607  32.781  0.00  0.00    +0.044 C 
ATOM     20  C   LIG    1      -26.132  92.634  34.530  0.00  0.00    +0.031 A 
ATOM     21  C   LIG    1      -25.789  91.647  35.465  0.00  0.00    +0.068 A 
ATOM     22  C   LIG    1      -26.689  90.607  35.723  0.00  0.00    +0.028 A 
ATOM     23  C   LIG    1      -27.902  90.539  35.035  0.00  0.00    +0.006 A 
ENDBRANCH  11  21
BRANCH  14  24
ATOM     24  C   LIG    1      -20.976  91.331  36.133  0.00  0.00    +0.006 C 
ATOM     25  C   LIG    1      -20.222  90.908  37.410  0.00  0.00    +0.017 C 
ATOM     26  C   LIG    1      -20.241  92.553  35.537  0.00  0.00    +0.017 C 
ATOM     27  C   LIG    1      -20.910  90.180  35.112  0.00  0.00    +0.017 C 
ENDBRANCH  14  24
ENDBRANCH   9  12
ENDBRANCH   7   9
BRANCH   7  28
ATOM     28  O   LIG    1      -25.064  93.687  40.341  0.00  0.00    -0.481 OA
ATOM     29  H   LIG    1      -25.609  93.754  41.136  0.00  0.00    +0.295 HD
ENDBRANCH   7  28
ENDBRANCH   1   8
BRANCH   4  30
ATOM     30  O   LIG    1      -27.697  87.027  37.816  0.00  0.00    -0.424 OA
BRANCH  30  31
ATOM     31  C   LIG    1      -28.146  87.128  36.525  0.00  0.00    +0.132 A 
ATOM     32  C   LIG    1      -27.353  86.928  35.396  0.00  0.00    +0.047 A 
ATOM     33  C   LIG    1      -27.898  87.065  34.116  0.00  0.00    +0.012 A 
ATOM     34  C   LIG    1      -29.257  87.351  33.941  0.00  0.00    -0.010 A 
ATOM     35  C   LIG    1      -30.051  87.487  35.097  0.00  0.00    +0.012 A 
ATOM     36  C   LIG    1      -29.504  87.379  36.376  0.00  0.00    +0.047 A 
BRANCH  34  37
ATOM     37  C   LIG    1      -29.823  87.499  32.591  0.00  0.00    +0.041 A 
ATOM     38  S   LIG    1      -31.485  87.206  32.302  0.00  0.00    -0.052 S 
ATOM     39  C   LIG    1      -31.296  87.548  30.653  0.00  0.00    +0.168 A 
ATOM     40  N   LIG    1      -30.098  87.933  30.287  0.00  0.00    -0.232 NA
ATOM     41  C   LIG    1      -29.243  87.862  31.382  0.00  0.00    +0.129 A 
BRANCH  39  42
ATOM     42  N   LIG    1      -32.397  87.495  29.822  0.00  0.00    -0.250 N 
ATOM     43  C   LIG    1      -32.976  86.307  29.360  0.00  0.00    +0.221 C 
ATOM     44  O   LIG    1      -32.650  85.145  29.543  0.00  0.00    -0.275 OA
ATOM     45  C   LIG    1      -34.116  86.687  28.449  0.00  0.00    +0.098 C 
ATOM     46  C   LIG    1      -34.367  88.144  28.799  0.00  0.00    +0.029 C 
ATOM     47  C   LIG    1      -32.996  88.645  29.201  0.00  0.00    +0.116 C 
ENDBRANCH  39  42
ENDBRANCH  34  37
ENDBRANCH  30  31
ENDBRANCH   4  30
TORSDOF 10
ENDMDL
MODEL 4
REMARK VINA RESULT:      -6.8     18.927     23.449
REMARK  Name = pdb/CHEMBL3964567.pdb
REMARK                            x       y       z     vdW  Elec       q    Type
REMARK                         _______ _______ _______ _____ _____    ______ ____
ROOT
ATOM      1  C   LIG    1      -18.663  85.140  12.995  0.00  0.00    +0.105 A 
ATOM      2  C   LIG    1      -19.307  84.818  11.816  0.00  0.00    +0.145 A 
ATOM      3  N   LIG    1      -19.199  83.628  11.183  0.00  0.00    -0.201 NA
ATOM      4  C   LIG    1      -18.362  82.737  11.745  0.00  0.00    +0.323 A 
ATOM      5  N   LIG    1      -17.656  82.940  12.866  0.00  0.00    -0.201 NA
ATOM      6  C   LIG    1      -17.802  84.152  13.437  0.00  0.00    +0.145 A 
ENDROOT
BRANCH   1   8
ATOM      7  C   LIG    1      -19.923  86.763  14.169  0.00  0.00    +0.286 C 
ATOM      8  N   LIG    1      -18.837  86.397  13.575  0.00  0.00    -0.196 NA
BRANCH   7   9
ATOM      9  N   LIG    1      -21.077  86.071  14.435  0.00  0.00    -0.254 N 
ATOM     10  H   LIG    1      -21.002  85.456  15.237  0.00  0.00    +0.158 HD
BRANCH   9  12
ATOM     11  N   LIG    1      -22.641  84.504  13.436  0.00  0.00    -0.218 N 
ATOM     12  C   LIG    1      -22.170  85.800  13.662  0.00  0.00    +0.130 A 
ATOM     13  C   LIG    1      -22.929  86.625  12.869  0.00  0.00    +0.069 A 
ATOM     14  C   LIG    1      -23.729  85.761  12.081  0.00  0.00    +0.071 A 
ATOM     15  N   LIG    1      -23.497  84.473  12.378  0.00  0.00    -0.169 NA
BRANCH  11  21
ATOM     16  C   LIG    1      -21.631  79.701  16.441  0.00  0.00    +0.044 C 
ATOM     17  C   LIG    1      -21.861  80.972  15.669  0.00  0.00    -0.047 A 
ATOM     18  C   LIG    1      -20.791  81.744  15.171  0.00  0.00    -0.046 A 
ATOM     19  C   LIG    1      -19.362  81.363  15.451  0.00  0.00    +0.044 C 
ATOM     20  C   LIG    1      -21.063  82.912  14.430  0.00  0.00    +0.031 A 
ATOM     21  C   LIG    1      -22.383  83.324  14.198  0.00  0.00    +0.068 A 
ATOM     22  C   LIG    1      -23.438  82.537  14.675  0.00  0.00    +0.028 A 
ATOM     23  C   LIG    1      -23.176  81.371  15.397  0.00  0.00    +0.006 A 
ENDBRANCH  11  21
BRANCH  14  24
ATOM     24  C   LIG    1      -24.729  86.155  11.005  0.00  0.00    +0.006 C 
ATOM     25  C   LIG    1      -24.910  87.686  10.946  0.00  0.00    +0.017 C 
ATOM     26  C   LIG    1      -26.114  85.528  11.279  0.00  0.00    +0.017 C 
ATOM     27  C   LIG    1      -24.235  85.659   9.633  0.00  0.00    +0.017 C 
ENDBRANCH  14  24
ENDBRANCH   9  12
ENDBRANCH   7   9
BRANCH   7  28
ATOM     28  O   LIG    1      -19.886  88.010  14.677  0.00  0.00    -0.481 OA
ATOM     29  H   LIG    1      -20.610  88.164  15.297  0.00  0.00    +0.295 HD
ENDBRANCH   7  28
ENDBRANCH   1   8
BRANCH   4  30
ATOM     30  O   LIG    1      -18.196  81.485  11.184  0.00  0.00    -0.424 OA
BRANCH  30  31
ATOM     31  C   LIG    1      -18.716  80.404  11.846  0.00  0.00    +0.132 A 
ATOM     32  C   LIG    1      -17.956  79.465  12.542  0.00  0.00    +0.047 A 
ATOM     33  C   LIG    1      -18.575  78.384  13.177  0.00  0.00    +0.012 A 
ATOM     34  C   LIG    1      -19.969  78.253  13.175  0.00  0.00    -0.010 A 
ATOM     35  C   LIG    1      -20.719  79.249  12.518  0.00  0.00    +0.012 A 
ATOM     36  C   LIG    1      -20.102  80.312  11.858  0.00  0.00    +0.047 A 
BRANCH  34  37
ATOM     37  C   LIG    1      -20.614  77.110  13.841  0.00  0.00    +0.041 A 
ATOM     38  S   LIG    1      -19.979  76.475  15.299  0.00  0.00    -0.052 S 
ATOM     39  C   LIG    1      -21.188  75.291  15.353  0.00  0.00    +0.168 A 
ATOM     40  N   LIG    1      -22.088  75.354  14.403  0.00  0.00    -0.232 NA
ATOM     41  C   LIG    1      -21.737  76.364  13.511  0.00  0.00    +0.129 A 
BRANCH  39  42
ATOM     42  N   LIG    1      -21.219  74.405  16.411  0.00  0.00    -0.250 N 
ATOM     43  C   LIG    1      -22.383  74.044  17.099  0.00  0.00    +0.221 C 
ATOM     44  O   LIG    1      -23.536  74.422  16.956  0.00  0.00    -0.275 OA
ATOM     45  C   LIG    1      -21.979  73.100  18.203  0.00  0.00    +0.098 C 
ATOM     46  C   LIG    1      -20.589  72.653  17.784  0.00  0.00    +0.029 C 
ATOM     47  C   LIG    1      -20.048  73.857  17.041  0.00  0.00    +0.116 C 
ENDBRANCH  39  42
ENDBRANCH  34  37
ENDBRANCH  30  31
ENDBRANCH   4  30
TORSDOF 10
ENDMDL
MODEL 5
REMARK VINA RESULT:      -6.8      5.680     10.072
REMARK  Name = pdb/CHEMBL3964567.pdb
REMARK                            x       y       z     vdW  Elec       q    Type
REMARK                         _______ _______ _______ _____ _____    ______ ____
ROOT
ATOM      1  C   LIG    1      -39.452  68.625  22.185  0.00  0.00    +0.105 A 
ATOM      2  C   LIG    1      -40.113  68.840  20.991  0.00  0.00    +0.145 A 
ATOM      3  N   LIG    1      -41.406  69.219  20.887  0.00  0.00    -0.201 NA
ATOM      4  C   LIG    1      -42.078  69.342  22.047  0.00  0.00    +0.323 A 
ATOM      5  N   LIG    1      -41.562  69.131  23.265  0.00  0.00    -0.201 NA
ATOM      6  C   LIG    1      -40.271  68.743  23.293  0.00  0.00    +0.145 A 
ENDROOT
BRANCH   1   8
ATOM      7  C   LIG    1      -37.167  68.947  22.705  0.00  0.00    +0.286 C 
ATOM      8  N   LIG    1      -38.113  68.235  22.192  0.00  0.00    -0.196 NA
BRANCH   7   9
ATOM      9  N   LIG    1      -37.207  70.137  23.385  0.00  0.00    -0.254 N 
ATOM     10  H   LIG    1      -37.180  70.948  22.780  0.00  0.00    +0.158 HD
BRANCH   9  12
ATOM     11  N   LIG    1      -37.313  71.660  25.275  0.00  0.00    -0.218 N 
ATOM     12  C   LIG    1      -36.948  70.444  24.691  0.00  0.00    +0.130 A 
ATOM     13  C   LIG    1      -36.213  69.773  25.637  0.00  0.00    +0.069 A 
ATOM     14  C   LIG    1      -36.040  70.690  26.702  0.00  0.00    +0.071 A 
ATOM     15  N   LIG    1      -36.648  71.859  26.445  0.00  0.00    -0.169 NA
BRANCH  11  21
ATOM     16  C   LIG    1      -41.310  75.417  23.534  0.00  0.00    +0.044 C 
ATOM     17  C   LIG    1      -40.235  74.461  23.981  0.00  0.00    -0.047 A 
ATOM     18  C   LIG    1      -39.021  74.913  24.535  0.00  0.00    -0.046 A 
ATOM     19  C   LIG    1      -38.716  76.383  24.644  0.00  0.00    +0.044 C 
ATOM     20  C   LIG    1      -38.061  73.974  24.964  0.00  0.00    +0.031 A 
ATOM     21  C   LIG    1      -38.292  72.598  24.827  0.00  0.00    +0.068 A 
ATOM     22  C   LIG    1      -39.511  72.159  24.297  0.00  0.00    +0.028 A 
ATOM     23  C   LIG    1      -40.473  73.083  23.886  0.00  0.00    +0.006 A 
ENDBRANCH  11  21
BRANCH  14  24
ATOM     24  C   LIG    1      -35.267  70.470  27.994  0.00  0.00    +0.006 C 
ATOM     25  C   LIG    1      -36.223  70.292  29.192  0.00  0.00    +0.017 C 
ATOM     26  C   LIG    1      -34.346  71.671  28.302  0.00  0.00    +0.017 C 
ATOM     27  C   LIG    1      -34.393  69.208  27.864  0.00  0.00    +0.017 C 
ENDBRANCH  14  24
ENDBRANCH   9  12
ENDBRANCH   7   9
BRANCH   7  28
ATOM     28  O   LIG    1      -35.943  68.387  22.625  0.00  0.00    -0.481 OA
ATOM     29  H   LIG    1      -35.367  68.874  22.022  0.00  0.00    +0.295 HD
ENDBRANCH   7  28
ENDBRANCH   1   8
BRANCH   4  30
ATOM     30  O   LIG    1      -43.401  69.742  22.048  0.00  0.00    -0.424 OA
BRANCH  30  31
ATOM     31  C   LIG    1      -43.695  71.012  21.625  0.00  0.00    +0.132 A 
ATOM     32  C   LIG    1      -44.072  71.342  20.323  0.00  0.00    +0.047 A 
ATOM     33  C   LIG    1      -44.341  72.671  19.981  0.00  0.00    +0.012 A 
ATOM     34  C   LIG    1      -44.290  73.685  20.944  0.00  0.00    -0.010 A 
ATOM     35  C   LIG    1      -43.967  73.316  22.265  0.00  0.00    +0.012 A 
ATOM     36  C   LIG    1      -43.671  71.997  22.604  0.00  0.00    +0.047 A 
BRANCH  34  37
ATOM     37  C   LIG    1      -44.568  75.082  20.575  0.00  0.00    +0.041 A 
ATOM     38  S   LIG    1      -44.711  75.540  18.931  0.00  0.00    -0.052 S 
ATOM     39  C   LIG    1      -44.980  77.155  19.366  0.00  0.00    +0.168 A 
ATOM     40  N   LIG    1      -45.042  77.393  20.654  0.00  0.00    -0.232 NA
ATOM     41  C   LIG    1      -44.761  76.219  21.347  0.00  0.00    +0.129 A 
BRANCH  39  42
ATOM     42  N   LIG    1      -45.207  78.092  18.379  0.00  0.00    -0.250 N 
ATOM     43  C   LIG    1      -46.446  78.697  18.140  0.00  0.00    +0.221 C 
ATOM     44  O   LIG    1      -47.527  78.525  18.681  0.00  0.00    -0.275 OA
ATOM     45  C   LIG    1      -46.278  79.615  16.956  0.00  0.00    +0.098 C 
ATOM     46  C   LIG    1      -44.772  79.779  16.857  0.00  0.00    +0.029 C 
ATOM     47  C   LIG    1      -44.245  78.456  17.374  0.00  0.00    +0.116 C 
ENDBRANCH  39  42
ENDBRANCH  34  37
ENDBRANCH  30  31
ENDBRANCH   4  30
TORSDOF 10
ENDMDL
MODEL 6
REMARK VINA RESULT:      -6.7     15.362     17.739
REMARK  Name = pdb/CHEMBL3964567.pdb
REMARK                            x       y       z     vdW  Elec       q    Type
REMARK                         _______ _______ _______ _____ _____    ______ ____
ROOT
ATOM      1  C   LIG    1      -25.777  73.910  13.040  0.00  0.00    +0.105 A 
ATOM      2  C   LIG    1      -26.865  74.180  13.847  0.00  0.00    +0.145 A 
ATOM      3  N   LIG    1      -27.387  75.412  14.045  0.00  0.00    -0.201 NA
ATOM      4  C   LIG    1      -26.748  76.426  13.432  0.00  0.00    +0.323 A 
ATOM      5  N   LIG    1      -25.667  76.299  12.652  0.00  0.00    -0.201 NA
ATOM      6  C   LIG    1      -25.193  75.045  12.509  0.00  0.00    +0.145 A 
ENDROOT
BRANCH   1   8
ATOM      7  C   LIG    1      -24.801  71.920  13.865  0.00  0.00    +0.286 C 
ATOM      8  N   LIG    1      -25.310  72.603  12.897  0.00  0.00    -0.196 NA
BRANCH   7   9
ATOM      9  N   LIG    1      -24.650  72.222  15.195  0.00  0.00    -0.254 N 
ATOM     10  H   LIG    1      -23.740  72.607  15.420  0.00  0.00    +0.158 HD
BRANCH   9  12
ATOM     11  N   LIG    1      -24.712  71.296  17.440  0.00  0.00    -0.218 N 
ATOM     12  C   LIG    1      -25.338  71.811  16.301  0.00  0.00    +0.130 A 
ATOM     13  C   LIG    1      -26.687  71.675  16.513  0.00  0.00    +0.069 A 
ATOM     14  C   LIG    1      -26.808  70.937  17.717  0.00  0.00    +0.071 A 
ATOM     15  N   LIG    1      -25.605  70.647  18.236  0.00  0.00    -0.169 NA
BRANCH  11  21
ATOM     16  C   LIG    1      -19.239  71.838  19.135  0.00  0.00    +0.044 C 
ATOM     17  C   LIG    1      -20.658  71.688  18.654  0.00  0.00    -0.047 A 
ATOM     18  C   LIG    1      -21.000  70.803  17.612  0.00  0.00    -0.046 A 
ATOM     19  C   LIG    1      -19.945  70.015  16.883  0.00  0.00    +0.044 C 
ATOM     20  C   LIG    1      -22.349  70.679  17.220  0.00  0.00    +0.031 A 
ATOM     21  C   LIG    1      -23.350  71.440  17.842  0.00  0.00    +0.068 A 
ATOM     22  C   LIG    1      -23.003  72.297  18.893  0.00  0.00    +0.028 A 
ATOM     23  C   LIG    1      -21.671  72.412  19.297  0.00  0.00    +0.006 A 
ENDBRANCH  11  21
BRANCH  14  24
ATOM     24  C   LIG    1      -28.091  70.477  18.392  0.00  0.00    +0.006 C 
ATOM     25  C   LIG    1      -29.200  71.542  18.267  0.00  0.00    +0.017 C 
ATOM     26  C   LIG    1      -27.862  70.212  19.897  0.00  0.00    +0.017 C 
ATOM     27  C   LIG    1      -28.579  69.171  17.738  0.00  0.00    +0.017 C 
ENDBRANCH  14  24
ENDBRANCH   9  12
ENDBRANCH   7   9
BRANCH   7  28
ATOM     28  O   LIG    1      -24.424  70.671  13.527  0.00  0.00    -0.481 OA
ATOM     29  H   LIG    1      -24.255  70.126  14.306  0.00  0.00    +0.295 HD
ENDBRANCH   7  28
ENDBRANCH   1   8
BRANCH   4  30
ATOM     30  O   LIG    1      -27.215  77.721  13.557  0.00  0.00    -0.424 OA
BRANCH  30  31
ATOM     31  C   LIG    1      -26.321  78.701  13.904  0.00  0.00    +0.132 A 
ATOM     32  C   LIG    1      -25.661  78.768  15.130  0.00  0.00    +0.047 A 
ATOM     33  C   LIG    1      -24.774  79.815  15.400  0.00  0.00    +0.012 A 
ATOM     34  C   LIG    1      -24.490  80.783  14.429  0.00  0.00    -0.010 A 
ATOM     35  C   LIG    1      -25.123  80.658  13.176  0.00  0.00    +0.012 A 
ATOM     36  C   LIG    1      -26.029  79.631  12.914  0.00  0.00    +0.047 A 
BRANCH  34  37
ATOM     37  C   LIG    1      -23.560  81.885  14.721  0.00  0.00    +0.041 A 
ATOM     38  S   LIG    1      -23.009  82.919  13.472  0.00  0.00    -0.052 S 
ATOM     39  C   LIG    1      -22.057  83.794  14.567  0.00  0.00    +0.168 A 
ATOM     40  N   LIG    1      -22.155  83.429  15.822  0.00  0.00    -0.232 NA
ATOM     41  C   LIG    1      -22.976  82.309  15.907  0.00  0.00    +0.129 A 
BRANCH  39  42
ATOM     42  N   LIG    1      -21.322  84.871  14.113  0.00  0.00    -0.250 N 
ATOM     43  C   LIG    1      -21.822  86.175  14.011  0.00  0.00    +0.221 C 
ATOM     44  O   LIG    1      -22.936  86.616  14.249  0.00  0.00    -0.275 OA
ATOM     45  C   LIG    1      -20.725  87.033  13.434  0.00  0.00    +0.098 C 
ATOM     46  C   LIG    1      -19.481  86.186  13.638  0.00  0.00    +0.029 C 
ATOM     47  C   LIG    1      -20.006  84.769  13.543  0.00  0.00    +0.116 C 
ENDBRANCH  39  42
ENDBRANCH  34  37
ENDBRANCH  30  31
ENDBRANCH   4  30
TORSDOF 10
ENDMDL
MODEL 7
REMARK VINA RESULT:      -6.7      2.525      5.850
REMARK  Name = pdb/CHEMBL3964567.pdb
REMARK                            x       y       z     vdW  Elec       q    Type
REMARK                         _______ _______ _______ _____ _____    ______ ____
ROOT
ATOM      1  C   LIG    1      -41.139  68.795  25.613  0.00  0.00    +0.105 A 
ATOM      2  C   LIG    1      -40.014  68.084  25.984  0.00  0.00    +0.145 A 
ATOM      3  N   LIG    1      -39.220  68.397  27.033  0.00  0.00    -0.201 NA
ATOM      4  C   LIG    1      -39.555  69.510  27.712  0.00  0.00    +0.323 A 
ATOM      5  N   LIG    1      -40.600  70.301  27.433  0.00  0.00    -0.201 NA
ATOM      6  C   LIG    1      -41.340  69.936  26.367  0.00  0.00    +0.145 A 
ENDROOT
BRANCH   1   8
ATOM      7  C   LIG    1      -41.643  68.758  23.302  0.00  0.00    +0.286 C 
ATOM      8  N   LIG    1      -41.897  68.394  24.513  0.00  0.00    -0.196 NA
BRANCH   7   9
ATOM      9  N   LIG    1      -40.619  69.512  22.788  0.00  0.00    -0.254 N 
ATOM     10  H   LIG    1      -40.111  69.048  22.044  0.00  0.00    +0.158 HD
BRANCH   9  12
ATOM     11  N   LIG    1      -38.625  70.539  23.721  0.00  0.00    -0.218 N 
ATOM     12  C   LIG    1      -39.952  70.595  23.286  0.00  0.00    +0.130 A 
ATOM     13  C   LIG    1      -40.402  71.855  23.594  0.00  0.00    +0.069 A 
ATOM     14  C   LIG    1      -39.360  72.455  24.345  0.00  0.00    +0.071 A 
ATOM     15  N   LIG    1      -38.315  71.625  24.481  0.00  0.00    -0.169 NA
BRANCH  11  21
ATOM     16  C   LIG    1      -34.577  66.667  22.401  0.00  0.00    +0.044 C 
ATOM     17  C   LIG    1      -35.637  67.666  22.784  0.00  0.00    -0.047 A 
ATOM     18  C   LIG    1      -35.732  68.185  24.091  0.00  0.00    -0.046 A 
ATOM     19  C   LIG    1      -34.815  67.709  25.185  0.00  0.00    +0.044 C 
ATOM     20  C   LIG    1      -36.726  69.140  24.389  0.00  0.00    +0.031 A 
ATOM     21  C   LIG    1      -37.631  69.564  23.405  0.00  0.00    +0.068 A 
ATOM     22  C   LIG    1      -37.512  69.061  22.104  0.00  0.00    +0.028 A 
ATOM     23  C   LIG    1      -36.521  68.127  21.799  0.00  0.00    +0.006 A 
ENDBRANCH  11  21
BRANCH  14  24
ATOM     24  C   LIG    1      -39.353  73.842  24.967  0.00  0.00    +0.006 C 
ATOM     25  C   LIG    1      -39.953  73.820  26.389  0.00  0.00    +0.017 C 
ATOM     26  C   LIG    1      -40.183  74.834  24.123  0.00  0.00    +0.017 C 
ATOM     27  C   LIG    1      -37.906  74.365  25.047  0.00  0.00    +0.017 C 
ENDBRANCH  14  24
ENDBRANCH   9  12
ENDBRANCH   7   9
BRANCH   7  28
ATOM     28  O   LIG    1      -42.484  68.250  22.379  0.00  0.00    -0.481 OA
ATOM     29  H   LIG    1      -43.391  68.547  22.522  0.00  0.00    +0.295 HD
ENDBRANCH   7  28
ENDBRANCH   1   8
BRANCH   4  30
ATOM     30  O   LIG    1      -38.817  69.905  28.812  0.00  0.00    -0.424 OA
BRANCH  30  31
ATOM     31  C   LIG    1      -37.849  70.860  28.635  0.00  0.00    +0.132 A 
ATOM     32  C   LIG    1      -36.782  70.744  27.745  0.00  0.00    +0.047 A 
ATOM     33  C   LIG    1      -35.834  71.767  27.641  0.00  0.00    +0.012 A 
ATOM     34  C   LIG    1      -35.966  72.946  28.384  0.00  0.00    -0.010 A 
ATOM     35  C   LIG    1      -37.088  73.064  29.229  0.00  0.00    +0.012 A 
ATOM     36  C   LIG    1      -38.019  72.034  29.356  0.00  0.00    +0.047 A 
BRANCH  34  37
ATOM     37  C   LIG    1      -34.963  74.016  28.274  0.00  0.00    +0.041 A 
ATOM     38  S   LIG    1      -35.427  75.612  27.861  0.00  0.00    -0.052 S 
ATOM     39  C   LIG    1      -33.818  76.136  27.925  0.00  0.00    +0.168 A 
ATOM     40  N   LIG    1      -32.941  75.235  28.296  0.00  0.00    -0.232 NA
ATOM     41  C   LIG    1      -33.586  74.011  28.451  0.00  0.00    +0.129 A 
BRANCH  39  42
ATOM     42  N   LIG    1      -33.529  77.464  27.681  0.00  0.00    -0.250 N 
ATOM     43  C   LIG    1      -32.581  77.904  26.750  0.00  0.00    +0.221 C 
ATOM     44  O   LIG    1      -31.832  77.269  26.024  0.00  0.00    -0.275 OA
ATOM     45  C   LIG    1      -32.540  79.409  26.826  0.00  0.00    +0.098 C 
ATOM     46  C   LIG    1      -33.830  79.753  27.550  0.00  0.00    +0.029 C 
ATOM     47  C   LIG    1      -34.049  78.559  28.455  0.00  0.00    +0.116 C 
ENDBRANCH  39  42
ENDBRANCH  34  37
ENDBRANCH  30  31
ENDBRANCH   4  30
TORSDOF 10
ENDMDL
MODEL 8
REMARK VINA RESULT:      -6.7      3.467      7.883
REMARK  Name = pdb/CHEMBL3964567.pdb
REMARK                            x       y       z     vdW  Elec       q    Type
REMARK                         _______ _______ _______ _____ _____    ______ ____
ROOT
ATOM      1  C   LIG    1      -40.028  67.528  21.513  0.00  0.00    +0.105 A 
ATOM      2  C   LIG    1      -40.208  68.699  20.802  0.00  0.00    +0.145 A 
ATOM      3  N   LIG    1      -40.704  69.843  21.322  0.00  0.00    -0.201 NA
ATOM      4  C   LIG    1      -41.080  69.788  22.613  0.00  0.00    +0.323 A 
ATOM      5  N   LIG    1      -40.987  68.707  23.399  0.00  0.00    -0.201 NA
ATOM      6  C   LIG    1      -40.496  67.597  22.812  0.00  0.00    +0.145 A 
ENDROOT
BRANCH   1   8
ATOM      7  C   LIG    1      -38.266  66.272  20.555  0.00  0.00    +0.286 C 
ATOM      8  N   LIG    1      -39.507  66.394  20.887  0.00  0.00    -0.196 NA
BRANCH   7   9
ATOM      9  N   LIG    1      -37.195  67.104  20.761  0.00  0.00    -0.254 N 
ATOM     10  H   LIG    1      -36.748  67.405  19.904  0.00  0.00    +0.158 HD
BRANCH   9  12
ATOM     11  N   LIG    1      -35.187  66.726  22.074  0.00  0.00    -0.218 N 
ATOM     12  C   LIG    1      -36.428  67.336  21.867  0.00  0.00    +0.130 A 
ATOM     13  C   LIG    1      -36.703  68.040  23.013  0.00  0.00    +0.069 A 
ATOM     14  C   LIG    1      -35.674  67.695  23.924  0.00  0.00    +0.071 A 
ATOM     15  N   LIG    1      -34.798  66.841  23.373  0.00  0.00    -0.169 NA
BRANCH  11  21
ATOM     16  C   LIG    1      -31.802  64.248  18.135  0.00  0.00    +0.044 C 
ATOM     17  C   LIG    1      -32.656  64.920  19.177  0.00  0.00    -0.047 A 
ATOM     18  C   LIG    1      -32.441  66.257  19.567  0.00  0.00    -0.046 A 
ATOM     19  C   LIG    1      -31.297  67.056  19.003  0.00  0.00    +0.044 C 
ATOM     20  C   LIG    1      -33.289  66.846  20.526  0.00  0.00    +0.031 A 
ATOM     21  C   LIG    1      -34.331  66.111  21.111  0.00  0.00    +0.068 A 
ATOM     22  C   LIG    1      -34.552  64.792  20.698  0.00  0.00    +0.028 A 
ATOM     23  C   LIG    1      -33.726  64.207  19.737  0.00  0.00    +0.006 A 
ENDBRANCH  11  21
BRANCH  14  24
ATOM     24  C   LIG    1      -35.518  68.168  25.361  0.00  0.00    +0.006 C 
ATOM     25  C   LIG    1      -34.114  68.761  25.604  0.00  0.00    +0.017 C 
ATOM     26  C   LIG    1      -35.713  67.002  26.355  0.00  0.00    +0.017 C 
ATOM     27  C   LIG    1      -36.572  69.248  25.667  0.00  0.00    +0.017 C 
ENDBRANCH  14  24
ENDBRANCH   9  12
ENDBRANCH   7   9
BRANCH   7  28
ATOM     28  O   LIG    1      -37.959  65.094  19.976  0.00  0.00    -0.481 OA
ATOM     29  H   LIG    1      -38.470  64.950  19.169  0.00  0.00    +0.295 HD
ENDBRANCH   7  28
ENDBRANCH   1   8
BRANCH   4  30
ATOM     30  O   LIG    1      -41.583  70.911  23.243  0.00  0.00    -0.424 OA
BRANCH  30  31
ATOM     31  C   LIG    1      -40.695  71.816  23.762  0.00  0.00    +0.132 A 
ATOM     32  C   LIG    1      -39.486  71.475  24.369  0.00  0.00    +0.047 A 
ATOM     33  C   LIG    1      -38.648  72.470  24.882  0.00  0.00    +0.012 A 
ATOM     34  C   LIG    1      -38.976  73.824  24.748  0.00  0.00    -0.010 A 
ATOM     35  C   LIG    1      -40.171  74.145  24.075  0.00  0.00    +0.012 A 
ATOM     36  C   LIG    1      -41.024  73.154  23.588  0.00  0.00    +0.047 A 
BRANCH  34  37
ATOM     37  C   LIG    1      -38.091  74.865  25.295  0.00  0.00    +0.041 A 
ATOM     38  S   LIG    1      -37.322  74.653  26.810  0.00  0.00    -0.052 S 
ATOM     39  C   LIG    1      -36.592  76.177  26.695  0.00  0.00    +0.168 A 
ATOM     40  N   LIG    1      -36.813  76.830  25.580  0.00  0.00    -0.232 NA
ATOM     41  C   LIG    1      -37.707  76.104  24.798  0.00  0.00    +0.129 A 
BRANCH  39  42
ATOM     42  N   LIG    1      -35.753  76.602  27.705  0.00  0.00    -0.250 N 
ATOM     43  C   LIG    1      -35.551  77.945  28.044  0.00  0.00    +0.221 C 
ATOM     44  O   LIG    1      -36.005  78.964  27.546  0.00  0.00    -0.275 OA
ATOM     45  C   LIG    1      -34.534  77.980  29.157  0.00  0.00    +0.098 C 
ATOM     46  C   LIG    1      -34.535  76.551  29.670  0.00  0.00    +0.029 C 
ATOM     47  C   LIG    1      -34.864  75.739  28.434  0.00  0.00    +0.116 C 
ENDBRANCH  39  42
ENDBRANCH  34  37
ENDBRANCH  30  31
ENDBRANCH   4  30
TORSDOF 10
ENDMDL
MODEL 9
REMARK VINA RESULT:      -6.7      3.284      6.722
REMARK  Name = pdb/CHEMBL3964567.pdb
REMARK                            x       y       z     vdW  Elec       q    Type
REMARK                         _______ _______ _______ _____ _____    ______ ____
ROOT
ATOM      1  C   LIG    1      -39.295  66.339  24.244  0.00  0.00    +0.105 A 
ATOM      2  C   LIG    1      -39.596  67.340  25.148  0.00  0.00    +0.145 A 
ATOM      3  N   LIG    1      -40.008  68.582  24.808  0.00  0.00    -0.201 NA
ATOM      4  C   LIG    1      -40.074  68.838  23.489  0.00  0.00    +0.323 A 
ATOM      5  N   LIG    1      -39.777  67.966  22.516  0.00  0.00    -0.201 NA
ATOM      6  C   LIG    1      -39.362  66.752  22.927  0.00  0.00    +0.145 A 
ENDROOT
BRANCH   1   8
ATOM      7  C   LIG    1      -37.646  64.701  24.687  0.00  0.00    +0.286 C 
ATOM      8  N   LIG    1      -38.877  65.085  24.692  0.00  0.00    -0.196 NA
BRANCH   7   9
ATOM      9  N   LIG    1      -36.499  65.369  24.341  0.00  0.00    -0.254 N 
ATOM     10  H   LIG    1      -35.740  64.755  24.072  0.00  0.00    +0.158 HD
BRANCH   9  12
ATOM     11  N   LIG    1      -35.387  67.421  23.665  0.00  0.00    -0.218 N 
ATOM     12  C   LIG    1      -36.081  66.644  24.598  0.00  0.00    +0.130 A 
ATOM     13  C   LIG    1      -36.100  67.373  25.761  0.00  0.00    +0.069 A 
ATOM     14  C   LIG    1      -35.277  68.500  25.515  0.00  0.00    +0.071 A 
ATOM     15  N   LIG    1      -34.789  68.486  24.266  0.00  0.00    -0.169 NA
BRANCH  11  21
ATOM     16  C   LIG    1      -35.117  66.653  17.968  0.00  0.00    +0.044 C 
ATOM     17  C   LIG    1      -35.211  66.887  19.453  0.00  0.00    -0.047 A 
ATOM     18  C   LIG    1      -36.333  67.506  20.039  0.00  0.00    -0.046 A 
ATOM     19  C   LIG    1      -37.465  68.025  19.194  0.00  0.00    +0.044 C 
ATOM     20  C   LIG    1      -36.381  67.675  21.438  0.00  0.00    +0.031 A 
ATOM     21  C   LIG    1      -35.318  67.251  22.249  0.00  0.00    +0.068 A 
ATOM     22  C   LIG    1      -34.220  66.615  21.659  0.00  0.00    +0.028 A 
ATOM     23  C   LIG    1      -34.172  66.431  20.276  0.00  0.00    +0.006 A 
ENDBRANCH  11  21
BRANCH  14  24
ATOM     24  C   LIG    1      -34.926  69.616  26.487  0.00  0.00    +0.006 C 
ATOM     25  C   LIG    1      -33.804  69.182  27.453  0.00  0.00    +0.017 C 
ATOM     26  C   LIG    1      -36.151  70.015  27.341  0.00  0.00    +0.017 C 
ATOM     27  C   LIG    1      -34.456  70.855  25.703  0.00  0.00    +0.017 C 
ENDBRANCH  14  24
ENDBRANCH   9  12
ENDBRANCH   7   9
BRANCH   7  28
ATOM     28  O   LIG    1      -37.447  63.461  25.175  0.00  0.00    -0.481 OA
ATOM     29  H   LIG    1      -38.282  63.010  25.353  0.00  0.00    +0.295 HD
ENDBRANCH   7  28
ENDBRANCH   1   8
BRANCH   4  30
ATOM     30  O   LIG    1      -40.501  70.074  23.038  0.00  0.00    -0.424 OA
BRANCH  30  31
ATOM     31  C   LIG    1      -39.935  71.195  23.587  0.00  0.00    +0.132 A 
ATOM     32  C   LIG    1      -40.593  72.416  23.739  0.00  0.00    +0.047 A 
ATOM     33  C   LIG    1      -39.928  73.511  24.300  0.00  0.00    +0.012 A 
ATOM     34  C   LIG    1      -38.614  73.391  24.768  0.00  0.00    -0.010 A 
ATOM     35  C   LIG    1      -37.994  72.130  24.660  0.00  0.00    +0.012 A 
ATOM     36  C   LIG    1      -38.644  71.044  24.075  0.00  0.00    +0.047 A 
BRANCH  34  37
ATOM     37  C   LIG    1      -37.920  74.549  25.352  0.00  0.00    +0.041 A 
ATOM     38  S   LIG    1      -37.239  74.461  26.922  0.00  0.00    -0.052 S 
ATOM     39  C   LIG    1      -36.716  76.069  26.825  0.00  0.00    +0.168 A 
ATOM     40  N   LIG    1      -36.943  76.672  25.684  0.00  0.00    -0.232 NA
ATOM     41  C   LIG    1      -37.672  75.822  24.857  0.00  0.00    +0.129 A 
BRANCH  39  42
ATOM     42  N   LIG    1      -36.016  76.616  27.881  0.00  0.00    -0.250 N 
ATOM     43  C   LIG    1      -34.717  77.130  27.780  0.00  0.00    +0.221 C 
ATOM     44  O   LIG    1      -33.958  77.178  26.826  0.00  0.00    -0.275 OA
ATOM     45  C   LIG    1      -34.306  77.584  29.158  0.00  0.00    +0.098 C 
ATOM     46  C   LIG    1      -35.626  77.669  29.903  0.00  0.00    +0.029 C 
ATOM     47  C   LIG    1      -36.465  76.592  29.247  0.00  0.00    +0.116 C 
ENDBRANCH  39  42
ENDBRANCH  34  37
ENDBRANCH  30  31
ENDBRANCH   4  30
TORSDOF 10
ENDMDL
