MODEL 1
REMARK VINA RESULT:      -5.9      0.000      0.000
REMARK  Name = pdb/CHEMBL3675997.pdb
REMARK                            x       y       z     vdW  Elec       q    Type
REMARK                         _______ _______ _______ _____ _____    ______ ____
ROOT
ATOM      1  C   LIG    1      -20.287  77.127  30.596  0.00  0.00    +0.100 A 
ATOM      2  C   LIG    1      -19.923  77.775  31.769  0.00  0.00    +0.170 A 
ATOM      3  N   LIG    1      -20.648  78.389  32.767  0.00  0.00    -0.212 NA
ATOM      4  C   LIG    1      -19.985  78.925  33.775  0.00  0.00    +0.126 A 
ATOM      5  C   LIG    1      -18.475  78.952  33.810  0.00  0.00    +0.063 A 
ATOM      6  C   LIG    1      -17.822  78.324  32.831  0.00  0.00    +0.118 A 
ATOM      7  N   LIG    1      -18.525  77.708  31.815  0.00  0.00    -0.221 N 
ATOM      8  N   LIG    1      -18.005  77.003  30.789  0.00  0.00    -0.173 NA
ATOM      9  C   LIG    1      -19.066  76.654  30.066  0.00  0.00    +0.150 A 
ENDROOT
BRANCH   4  10
ATOM     10  N   LIG    1      -20.682  79.486  34.842  0.00  0.00    -0.308 N 
ATOM     11  C   LIG    1      -22.032  80.056  34.692  0.00  0.00    +0.107 C 
ATOM     12  C   LIG    1      -22.063  81.236  35.675  0.00  0.00    +0.029 C 
ATOM     13  C   LIG    1      -21.080  80.825  36.754  0.00  0.00    +0.021 C 
ATOM     14  C   LIG    1      -19.982  80.148  35.944  0.00  0.00    +0.107 C 
BRANCH  11  15
ATOM     15  C   LIG    1      -23.124  79.048  34.968  0.00  0.00    -0.006 A 
ATOM     16  C   LIG    1      -24.158  78.858  34.040  0.00  0.00    +0.046 A 
ATOM     17  C   LIG    1      -25.167  77.943  34.312  0.00  0.00    +0.142 A 
ATOM     18  F   LIG    1      -26.161  77.756  33.434  0.00  0.00    -0.204 F 
ATOM     19  C   LIG    1      -25.128  77.236  35.497  0.00  0.00    +0.149 A 
ATOM     20  N   LIG    1      -24.149  77.383  36.418  0.00  0.00    -0.260 NA
ATOM     21  C   LIG    1      -23.173  78.279  36.132  0.00  0.00    +0.116 A 
ENDBRANCH  11  15
ENDBRANCH   4  10
BRANCH   1  24
ATOM     22  N   LIG    1      -22.673  77.220  30.788  0.00  0.00    -0.308 N 
ATOM     23  H   LIG    1      -22.477  77.636  31.690  0.00  0.00    +0.149 HD
ATOM     24  C   LIG    1      -21.592  76.908  30.003  0.00  0.00    +0.249 C 
ATOM     25  O   LIG    1      -21.704  76.456  28.861  0.00  0.00    -0.270 OA
BRANCH  22  27
ATOM     26  C   LIG    1      -24.916  78.168  30.366  0.00  0.00    +0.028 C 
ATOM     27  C   LIG    1      -24.034  76.919  30.382  0.00  0.00    +0.073 C 
BRANCH  27  28
ATOM     28  C   LIG    1      -24.656  75.825  31.222  0.00  0.00    +0.009 C 
ATOM     29  C   LIG    1      -23.935  74.988  32.252  0.00  0.00    +0.005 C 
ATOM     30  C   LIG    1      -24.307  74.384  30.928  0.00  0.00    +0.005 C 
ENDBRANCH  27  28
ENDBRANCH  22  27
ENDBRANCH   1  24
TORSDOF 5
ENDMDL
MODEL 2
REMARK VINA RESULT:      -5.6      2.447      5.688
REMARK  Name = pdb/CHEMBL3675997.pdb
REMARK                            x       y       z     vdW  Elec       q    Type
REMARK                         _______ _______ _______ _____ _____    ______ ____
ROOT
ATOM      1  C   LIG    1      -24.642  77.759  32.244  0.00  0.00    +0.100 A 
ATOM      2  C   LIG    1      -23.449  77.423  31.616  0.00  0.00    +0.170 A 
ATOM      3  N   LIG    1      -22.147  77.340  32.055  0.00  0.00    -0.212 NA
ATOM      4  C   LIG    1      -21.220  76.981  31.186  0.00  0.00    +0.126 A 
ATOM      5  C   LIG    1      -21.543  76.749  29.729  0.00  0.00    +0.063 A 
ATOM      6  C   LIG    1      -22.823  76.820  29.360  0.00  0.00    +0.118 A 
ATOM      7  N   LIG    1      -23.795  77.130  30.291  0.00  0.00    -0.221 N 
ATOM      8  N   LIG    1      -25.125  77.195  30.075  0.00  0.00    -0.173 NA
ATOM      9  C   LIG    1      -25.626  77.567  31.249  0.00  0.00    +0.150 A 
ENDROOT
BRANCH   4  10
ATOM     10  N   LIG    1      -19.904  76.810  31.607  0.00  0.00    -0.308 N 
ATOM     11  C   LIG    1      -18.992  77.945  31.833  0.00  0.00    +0.107 C 
ATOM     12  C   LIG    1      -17.611  77.419  31.417  0.00  0.00    +0.029 C 
ATOM     13  C   LIG    1      -17.708  75.926  31.672  0.00  0.00    +0.021 C 
ATOM     14  C   LIG    1      -19.134  75.621  31.237  0.00  0.00    +0.107 C 
BRANCH  11  15
ATOM     15  C   LIG    1      -19.014  78.434  33.264  0.00  0.00    -0.006 A 
ATOM     16  C   LIG    1      -19.907  79.445  33.649  0.00  0.00    +0.046 A 
ATOM     17  C   LIG    1      -19.906  79.900  34.961  0.00  0.00    +0.142 A 
ATOM     18  F   LIG    1      -20.751  80.867  35.338  0.00  0.00    -0.204 F 
ATOM     19  C   LIG    1      -19.021  79.343  35.862  0.00  0.00    +0.149 A 
ATOM     20  N   LIG    1      -18.147  78.363  35.537  0.00  0.00    -0.260 NA
ATOM     21  C   LIG    1      -18.166  77.933  34.252  0.00  0.00    +0.116 A 
ENDBRANCH  11  15
ENDBRANCH   4  10
BRANCH   1  24
ATOM     22  N   LIG    1      -23.897  78.868  34.233  0.00  0.00    -0.308 N 
ATOM     23  H   LIG    1      -23.077  79.084  33.677  0.00  0.00    +0.149 HD
ATOM     24  C   LIG    1      -24.905  78.181  33.606  0.00  0.00    +0.249 C 
ATOM     25  O   LIG    1      -25.976  77.917  34.158  0.00  0.00    -0.270 OA
BRANCH  22  27
ATOM     26  C   LIG    1      -23.959  80.741  35.845  0.00  0.00    +0.028 C 
ATOM     27  C   LIG    1      -23.963  79.226  35.639  0.00  0.00    +0.073 C 
BRANCH  27  28
ATOM     28  C   LIG    1      -22.874  78.563  36.452  0.00  0.00    +0.009 C 
ATOM     29  C   LIG    1      -22.219  77.239  36.134  0.00  0.00    +0.005 C 
ATOM     30  C   LIG    1      -23.207  77.331  37.262  0.00  0.00    +0.005 C 
ENDBRANCH  27  28
ENDBRANCH  22  27
ENDBRANCH   1  24
TORSDOF 5
ENDMDL
MODEL 3
REMARK VINA RESULT:      -5.4     18.399     20.794
REMARK  Name = pdb/CHEMBL3675997.pdb
REMARK                            x       y       z     vdW  Elec       q    Type
REMARK                         _______ _______ _______ _____ _____    ______ ____
ROOT
ATOM      1  C   LIG    1      -18.669  85.680  12.977  0.00  0.00    +0.100 A 
ATOM      2  C   LIG    1      -18.875  84.376  13.407  0.00  0.00    +0.170 A 
ATOM      3  N   LIG    1      -19.885  83.769  14.120  0.00  0.00    -0.212 NA
ATOM      4  C   LIG    1      -19.778  82.477  14.372  0.00  0.00    +0.126 A 
ATOM      5  C   LIG    1      -18.553  81.688  13.976  0.00  0.00    +0.063 A 
ATOM      6  C   LIG    1      -17.614  82.318  13.269  0.00  0.00    +0.118 A 
ATOM      7  N   LIG    1      -17.765  83.653  12.951  0.00  0.00    -0.221 N 
ATOM      8  N   LIG    1      -16.925  84.405  12.211  0.00  0.00    -0.173 NA
ATOM      9  C   LIG    1      -17.475  85.615  12.226  0.00  0.00    +0.150 A 
ENDROOT
BRANCH   4  10
ATOM     10  N   LIG    1      -20.813  81.810  15.021  0.00  0.00    -0.308 N 
ATOM     11  C   LIG    1      -22.051  82.490  15.443  0.00  0.00    +0.107 C 
ATOM     12  C   LIG    1      -22.452  81.786  16.747  0.00  0.00    +0.029 C 
ATOM     13  C   LIG    1      -21.880  80.390  16.589  0.00  0.00    +0.021 C 
ATOM     14  C   LIG    1      -20.551  80.668  15.899  0.00  0.00    +0.107 C 
BRANCH  11  15
ATOM     15  C   LIG    1      -23.138  82.423  14.395  0.00  0.00    -0.006 A 
ATOM     16  C   LIG    1      -23.117  83.299  13.300  0.00  0.00    +0.046 A 
ATOM     17  C   LIG    1      -24.130  83.241  12.353  0.00  0.00    +0.142 A 
ATOM     18  F   LIG    1      -24.122  84.075  11.306  0.00  0.00    -0.204 F 
ATOM     19  C   LIG    1      -25.143  82.315  12.511  0.00  0.00    +0.149 A 
ATOM     20  N   LIG    1      -25.202  81.448  13.547  0.00  0.00    -0.260 NA
ATOM     21  C   LIG    1      -24.201  81.520  14.459  0.00  0.00    +0.116 A 
ENDBRANCH  11  15
ENDBRANCH   4  10
BRANCH   1  24
ATOM     22  N   LIG    1      -20.762  86.681  13.577  0.00  0.00    -0.308 N 
ATOM     23  H   LIG    1      -21.043  85.725  13.764  0.00  0.00    +0.149 HD
ATOM     24  C   LIG    1      -19.465  86.876  13.176  0.00  0.00    +0.249 C 
ATOM     25  O   LIG    1      -18.988  87.997  12.980  0.00  0.00    -0.270 OA
BRANCH  22  27
ATOM     26  C   LIG    1      -22.227  87.958  15.104  0.00  0.00    +0.028 C 
ATOM     27  C   LIG    1      -21.713  87.774  13.675  0.00  0.00    +0.073 C 
BRANCH  27  28
ATOM     28  C   LIG    1      -22.859  87.627  12.699  0.00  0.00    +0.009 C 
ATOM     29  C   LIG    1      -22.747  87.139  11.275  0.00  0.00    +0.005 C 
ATOM     30  C   LIG    1      -22.973  88.599  11.548  0.00  0.00    +0.005 C 
ENDBRANCH  27  28
ENDBRANCH  22  27
ENDBRANCH   1  24
TORSDOF 5
ENDMDL
MODEL 4
REMARK VINA RESULT:      -5.4      2.010      2.995
REMARK  Name = pdb/CHEMBL3675997.pdb
REMARK                            x       y       z     vdW  Elec       q    Type
REMARK                         _______ _______ _______ _____ _____    ______ ____
ROOT
ATOM      1  C   LIG    1      -23.012  77.080  30.727  0.00  0.00    +0.100 A 
ATOM      2  C   LIG    1      -21.954  77.472  31.536  0.00  0.00    +0.170 A 
ATOM      3  N   LIG    1      -21.870  77.839  32.861  0.00  0.00    -0.212 NA
ATOM      4  C   LIG    1      -20.684  78.164  33.341  0.00  0.00    +0.126 A 
ATOM      5  C   LIG    1      -19.458  78.224  32.461  0.00  0.00    +0.063 A 
ATOM      6  C   LIG    1      -19.590  77.838  31.191  0.00  0.00    +0.118 A 
ATOM      7  N   LIG    1      -20.821  77.435  30.714  0.00  0.00    -0.221 N 
ATOM      8  N   LIG    1      -21.094  76.980  29.474  0.00  0.00    -0.173 NA
ATOM      9  C   LIG    1      -22.407  76.765  29.490  0.00  0.00    +0.150 A 
ENDROOT
BRANCH   4  10
ATOM     10  N   LIG    1      -20.543  78.466  34.693  0.00  0.00    -0.308 N 
ATOM     11  C   LIG    1      -20.333  79.841  35.180  0.00  0.00    +0.107 C 
ATOM     12  C   LIG    1      -19.415  79.681  36.400  0.00  0.00    +0.029 C 
ATOM     13  C   LIG    1      -19.749  78.295  36.918  0.00  0.00    +0.021 C 
ATOM     14  C   LIG    1      -19.943  77.511  35.627  0.00  0.00    +0.107 C 
BRANCH  11  15
ATOM     15  C   LIG    1      -21.628  80.542  35.521  0.00  0.00    -0.006 A 
ATOM     16  C   LIG    1      -22.850  79.867  35.390  0.00  0.00    +0.046 A 
ATOM     17  C   LIG    1      -24.035  80.526  35.688  0.00  0.00    +0.142 A 
ATOM     18  F   LIG    1      -25.208  79.892  35.563  0.00  0.00    -0.204 F 
ATOM     19  C   LIG    1      -23.983  81.839  36.111  0.00  0.00    +0.149 A 
ATOM     20  N   LIG    1      -22.828  82.528  36.258  0.00  0.00    -0.260 NA
ATOM     21  C   LIG    1      -21.683  81.865  35.963  0.00  0.00    +0.116 A 
ENDBRANCH  11  15
ENDBRANCH   4  10
BRANCH   1  24
ATOM     22  N   LIG    1      -24.760  76.713  32.324  0.00  0.00    -0.308 N 
ATOM     23  H   LIG    1      -23.999  76.701  32.994  0.00  0.00    +0.149 HD
ATOM     24  C   LIG    1      -24.428  76.959  31.017  0.00  0.00    +0.249 C 
ATOM     25  O   LIG    1      -25.271  77.061  30.122  0.00  0.00    -0.270 OA
BRANCH  22  27
ATOM     26  C   LIG    1      -26.525  77.221  33.978  0.00  0.00    +0.028 C 
ATOM     27  C   LIG    1      -26.122  76.426  32.735  0.00  0.00    +0.073 C 
BRANCH  27  28
ATOM     28  C   LIG    1      -26.363  74.946  32.935  0.00  0.00    +0.009 C 
ATOM     29  C   LIG    1      -26.080  73.863  31.921  0.00  0.00    +0.005 C 
ATOM     30  C   LIG    1      -27.498  74.279  32.193  0.00  0.00    +0.005 C 
ENDBRANCH  27  28
ENDBRANCH  22  27
ENDBRANCH   1  24
TORSDOF 5
ENDMDL
MODEL 5
REMARK VINA RESULT:      -5.1     14.331     18.243
REMARK  Name = pdb/CHEMBL3675997.pdb
REMARK                            x       y       z     vdW  Elec       q    Type
REMARK                         _______ _______ _______ _____ _____    ______ ____
ROOT
ATOM      1  C   LIG    1      -37.295  76.263  26.133  0.00  0.00    +0.100 A 
ATOM      2  C   LIG    1      -38.029  75.262  25.510  0.00  0.00    +0.170 A 
ATOM      3  N   LIG    1      -37.824  73.911  25.343  0.00  0.00    -0.212 NA
ATOM      4  C   LIG    1      -38.737  73.221  24.684  0.00  0.00    +0.126 A 
ATOM      5  C   LIG    1      -39.934  73.888  24.049  0.00  0.00    +0.063 A 
ATOM      6  C   LIG    1      -40.097  75.195  24.259  0.00  0.00    +0.118 A 
ATOM      7  N   LIG    1      -39.172  75.897  25.007  0.00  0.00    -0.221 N 
ATOM      8  N   LIG    1      -39.229  77.204  25.336  0.00  0.00    -0.173 NA
ATOM      9  C   LIG    1      -38.104  77.414  26.015  0.00  0.00    +0.150 A 
ENDROOT
BRANCH   4  10
ATOM     10  N   LIG    1      -38.606  71.840  24.560  0.00  0.00    -0.308 N 
ATOM     11  C   LIG    1      -37.297  71.180  24.408  0.00  0.00    +0.107 C 
ATOM     12  C   LIG    1      -37.575  69.982  23.489  0.00  0.00    +0.029 C 
ATOM     13  C   LIG    1      -39.028  69.648  23.769  0.00  0.00    +0.021 C 
ATOM     14  C   LIG    1      -39.647  71.030  23.925  0.00  0.00    +0.107 C 
BRANCH  11  15
ATOM     15  C   LIG    1      -36.697  70.764  25.731  0.00  0.00    -0.006 A 
ATOM     16  C   LIG    1      -35.332  70.453  25.819  0.00  0.00    +0.046 A 
ATOM     17  C   LIG    1      -34.795  70.054  27.036  0.00  0.00    +0.142 A 
ATOM     18  F   LIG    1      -33.494  69.752  27.131  0.00  0.00    -0.204 F 
ATOM     19  C   LIG    1      -35.622  69.971  28.139  0.00  0.00    +0.149 A 
ATOM     20  N   LIG    1      -36.941  70.265  28.102  0.00  0.00    -0.260 NA
ATOM     21  C   LIG    1      -37.445  70.655  26.905  0.00  0.00    +0.116 A 
ENDBRANCH  11  15
ENDBRANCH   4  10
BRANCH   1  24
ATOM     22  N   LIG    1      -35.688  75.022  27.406  0.00  0.00    -0.308 N 
ATOM     23  H   LIG    1      -36.339  74.255  27.278  0.00  0.00    +0.149 HD
ATOM     24  C   LIG    1      -36.011  76.212  26.805  0.00  0.00    +0.249 C 
ATOM     25  O   LIG    1      -35.269  77.198  26.835  0.00  0.00    -0.270 OA
BRANCH  22  27
ATOM     26  C   LIG    1      -33.807  73.530  27.994  0.00  0.00    +0.028 C 
ATOM     27  C   LIG    1      -34.505  74.870  28.234  0.00  0.00    +0.073 C 
BRANCH  27  28
ATOM     28  C   LIG    1      -34.802  75.074  29.702  0.00  0.00    +0.009 C 
ATOM     29  C   LIG    1      -35.763  76.090  30.274  0.00  0.00    +0.005 C 
ATOM     30  C   LIG    1      -34.282  76.315  30.392  0.00  0.00    +0.005 C 
ENDBRANCH  27  28
ENDBRANCH  22  27
ENDBRANCH   1  24
TORSDOF 5
ENDMDL
MODEL 6
REMARK VINA RESULT:      -5.0     18.642     20.910
REMARK  Name = pdb/CHEMBL3675997.pdb
REMARK                            x       y       z     vdW  Elec       q    Type
REMARK                         _______ _______ _______ _____ _____    ______ ____
ROOT
ATOM      1  C   LIG    1      -18.924  82.351  13.813  0.00  0.00    +0.100 A 
ATOM      2  C   LIG    1      -19.135  83.716  13.663  0.00  0.00    +0.170 A 
ATOM      3  N   LIG    1      -20.254  84.512  13.771  0.00  0.00    -0.212 NA
ATOM      4  C   LIG    1      -20.117  85.808  13.562  0.00  0.00    +0.126 A 
ATOM      5  C   LIG    1      -18.799  86.410  13.133  0.00  0.00    +0.063 A 
ATOM      6  C   LIG    1      -17.742  85.599  13.065  0.00  0.00    +0.118 A 
ATOM      7  N   LIG    1      -17.881  84.255  13.351  0.00  0.00    -0.221 N 
ATOM      8  N   LIG    1      -16.899  83.330  13.366  0.00  0.00    -0.173 NA
ATOM      9  C   LIG    1      -17.530  82.194  13.648  0.00  0.00    +0.150 A 
ENDROOT
BRANCH   4  10
ATOM     10  N   LIG    1      -21.206  86.657  13.737  0.00  0.00    -0.308 N 
ATOM     11  C   LIG    1      -21.762  87.467  12.639  0.00  0.00    +0.107 C 
ATOM     12  C   LIG    1      -22.234  88.762  13.316  0.00  0.00    +0.029 C 
ATOM     13  C   LIG    1      -22.565  88.324  14.730  0.00  0.00    +0.021 C 
ATOM     14  C   LIG    1      -21.458  87.319  15.019  0.00  0.00    +0.107 C 
BRANCH  11  15
ATOM     15  C   LIG    1      -22.879  86.762  11.903  0.00  0.00    -0.006 A 
ATOM     16  C   LIG    1      -23.361  85.531  12.369  0.00  0.00    +0.046 A 
ATOM     17  C   LIG    1      -24.375  84.882  11.675  0.00  0.00    +0.142 A 
ATOM     18  F   LIG    1      -24.841  83.704  12.109  0.00  0.00    -0.204 F 
ATOM     19  C   LIG    1      -24.888  85.470  10.536  0.00  0.00    +0.149 A 
ATOM     20  N   LIG    1      -24.458  86.657  10.053  0.00  0.00    -0.260 NA
ATOM     21  C   LIG    1      -23.470  87.274  10.747  0.00  0.00    +0.116 A 
ENDBRANCH  11  15
ENDBRANCH   4  10
BRANCH   1  24
ATOM     22  N   LIG    1      -21.178  81.540  13.859  0.00  0.00    -0.308 N 
ATOM     23  H   LIG    1      -21.394  82.432  13.430  0.00  0.00    +0.149 HD
ATOM     24  C   LIG    1      -19.855  81.279  14.108  0.00  0.00    +0.249 C 
ATOM     25  O   LIG    1      -19.461  80.205  14.569  0.00  0.00    -0.270 OA
BRANCH  22  27
ATOM     26  C   LIG    1      -23.232  80.391  13.104  0.00  0.00    +0.028 C 
ATOM     27  C   LIG    1      -22.232  80.617  14.240  0.00  0.00    +0.073 C 
BRANCH  27  28
ATOM     28  C   LIG    1      -22.937  81.042  15.508  0.00  0.00    +0.009 C 
ATOM     29  C   LIG    1      -22.412  82.035  16.518  0.00  0.00    +0.005 C 
ATOM     30  C   LIG    1      -22.404  80.568  16.840  0.00  0.00    +0.005 C 
ENDBRANCH  27  28
ENDBRANCH  22  27
ENDBRANCH   1  24
TORSDOF 5
ENDMDL
MODEL 7
REMARK VINA RESULT:      -5.0      2.939      6.956
REMARK  Name = pdb/CHEMBL3675997.pdb
REMARK                            x       y       z     vdW  Elec       q    Type
REMARK                         _______ _______ _______ _____ _____    ______ ____
ROOT
ATOM      1  C   LIG    1      -25.018  78.562  34.956  0.00  0.00    +0.100 A 
ATOM      2  C   LIG    1      -24.669  77.970  33.749  0.00  0.00    +0.170 A 
ATOM      3  N   LIG    1      -23.476  77.855  33.069  0.00  0.00    -0.212 NA
ATOM      4  C   LIG    1      -23.479  77.215  31.914  0.00  0.00    +0.126 A 
ATOM      5  C   LIG    1      -24.755  76.693  31.297  0.00  0.00    +0.063 A 
ATOM      6  C   LIG    1      -25.879  76.811  32.006  0.00  0.00    +0.118 A 
ATOM      7  N   LIG    1      -25.855  77.423  33.244  0.00  0.00    -0.221 N 
ATOM      8  N   LIG    1      -26.897  77.574  34.087  0.00  0.00    -0.173 NA
ATOM      9  C   LIG    1      -26.387  78.253  35.112  0.00  0.00    +0.150 A 
ENDROOT
BRANCH   4  10
ATOM     10  N   LIG    1      -22.283  77.008  31.234  0.00  0.00    -0.308 N 
ATOM     11  C   LIG    1      -21.181  77.986  31.257  0.00  0.00    +0.107 C 
ATOM     12  C   LIG    1      -20.544  77.882  29.863  0.00  0.00    +0.029 C 
ATOM     13  C   LIG    1      -20.830  76.451  29.448  0.00  0.00    +0.021 C 
ATOM     14  C   LIG    1      -22.237  76.237  29.990  0.00  0.00    +0.107 C 
BRANCH  11  15
ATOM     15  C   LIG    1      -20.187  77.719  32.364  0.00  0.00    -0.006 A 
ATOM     16  C   LIG    1      -19.071  78.553  32.525  0.00  0.00    +0.046 A 
ATOM     17  C   LIG    1      -18.154  78.288  33.534  0.00  0.00    +0.142 A 
ATOM     18  F   LIG    1      -17.083  79.074  33.695  0.00  0.00    -0.204 F 
ATOM     19  C   LIG    1      -18.365  77.203  34.363  0.00  0.00    +0.149 A 
ATOM     20  N   LIG    1      -19.429  76.377  34.248  0.00  0.00    -0.260 NA
ATOM     21  C   LIG    1      -20.313  76.654  33.258  0.00  0.00    +0.116 A 
ENDBRANCH  11  15
ENDBRANCH   4  10
BRANCH   1  24
ATOM     22  N   LIG    1      -23.830  80.564  35.523  0.00  0.00    -0.308 N 
ATOM     23  H   LIG    1      -24.185  80.898  34.634  0.00  0.00    +0.149 HD
ATOM     24  C   LIG    1      -24.218  79.306  35.909  0.00  0.00    +0.249 C 
ATOM     25  O   LIG    1      -23.904  78.815  36.996  0.00  0.00    -0.270 OA
BRANCH  22  27
ATOM     26  C   LIG    1      -23.463  82.763  36.590  0.00  0.00    +0.028 C 
ATOM     27  C   LIG    1      -22.910  81.364  36.311  0.00  0.00    +0.073 C 
BRANCH  27  28
ATOM     28  C   LIG    1      -21.534  81.438  35.688  0.00  0.00    +0.009 C 
ATOM     29  C   LIG    1      -20.773  80.277  35.092  0.00  0.00    +0.005 C 
ATOM     30  C   LIG    1      -20.360  80.834  36.424  0.00  0.00    +0.005 C 
ENDBRANCH  27  28
ENDBRANCH  22  27
ENDBRANCH   1  24
TORSDOF 5
ENDMDL
MODEL 8
REMARK VINA RESULT:      -5.0      2.660      7.106
REMARK  Name = pdb/CHEMBL3675997.pdb
REMARK                            x       y       z     vdW  Elec       q    Type
REMARK                         _______ _______ _______ _____ _____    ______ ____
ROOT
ATOM      1  C   LIG    1      -23.224  79.791  35.101  0.00  0.00    +0.100 A 
ATOM      2  C   LIG    1      -23.954  78.708  34.629  0.00  0.00    +0.170 A 
ATOM      3  N   LIG    1      -23.618  77.602  33.881  0.00  0.00    -0.212 NA
ATOM      4  C   LIG    1      -24.570  76.733  33.594  0.00  0.00    +0.126 A 
ATOM      5  C   LIG    1      -26.009  76.971  33.988  0.00  0.00    +0.063 A 
ATOM      6  C   LIG    1      -26.277  78.046  34.730  0.00  0.00    +0.118 A 
ATOM      7  N   LIG    1      -25.263  78.914  35.084  0.00  0.00    -0.221 N 
ATOM      8  N   LIG    1      -25.377  80.011  35.861  0.00  0.00    -0.173 NA
ATOM      9  C   LIG    1      -24.151  80.528  35.871  0.00  0.00    +0.150 A 
ENDROOT
BRANCH   4  10
ATOM     10  N   LIG    1      -24.256  75.564  32.907  0.00  0.00    -0.308 N 
ATOM     11  C   LIG    1      -24.211  75.498  31.435  0.00  0.00    +0.107 C 
ATOM     12  C   LIG    1      -24.704  74.084  31.097  0.00  0.00    +0.029 C 
ATOM     13  C   LIG    1      -24.315  73.271  32.318  0.00  0.00    +0.021 C 
ATOM     14  C   LIG    1      -24.592  74.247  33.453  0.00  0.00    +0.107 C 
BRANCH  11  15
ATOM     15  C   LIG    1      -22.831  75.774  30.883  0.00  0.00    -0.006 A 
ATOM     16  C   LIG    1      -21.693  75.440  31.631  0.00  0.00    +0.046 A 
ATOM     17  C   LIG    1      -20.431  75.714  31.122  0.00  0.00    +0.142 A 
ATOM     18  F   LIG    1      -19.337  75.403  31.829  0.00  0.00    -0.204 F 
ATOM     19  C   LIG    1      -20.324  76.313  29.882  0.00  0.00    +0.149 A 
ATOM     20  N   LIG    1      -21.392  76.647  29.124  0.00  0.00    -0.260 NA
ATOM     21  C   LIG    1      -22.615  76.369  29.638  0.00  0.00    +0.116 A 
ENDBRANCH  11  15
ENDBRANCH   4  10
BRANCH   1  24
ATOM     22  N   LIG    1      -21.044  79.197  34.303  0.00  0.00    -0.308 N 
ATOM     23  H   LIG    1      -21.513  78.366  33.962  0.00  0.00    +0.149 HD
ATOM     24  C   LIG    1      -21.827  80.137  34.922  0.00  0.00    +0.249 C 
ATOM     25  O   LIG    1      -21.384  81.217  35.323  0.00  0.00    -0.270 OA
BRANCH  22  27
ATOM     26  C   LIG    1      -19.108  79.022  32.777  0.00  0.00    +0.028 C 
ATOM     27  C   LIG    1      -19.605  79.346  34.187  0.00  0.00    +0.073 C 
BRANCH  27  28
ATOM     28  C   LIG    1      -18.858  78.538  35.226  0.00  0.00    +0.009 C 
ATOM     29  C   LIG    1      -18.917  78.755  36.719  0.00  0.00    +0.005 C 
ATOM     30  C   LIG    1      -17.695  79.172  35.953  0.00  0.00    +0.005 C 
ENDBRANCH  27  28
ENDBRANCH  22  27
ENDBRANCH   1  24
TORSDOF 5
ENDMDL
MODEL 9
REMARK VINA RESULT:      -4.9      2.385      5.345
REMARK  Name = pdb/CHEMBL3675997.pdb
REMARK                            x       y       z     vdW  Elec       q    Type
REMARK                         _______ _______ _______ _____ _____    ______ ____
ROOT
ATOM      1  C   LIG    1      -24.224  79.390  35.149  0.00  0.00    +0.100 A 
ATOM      2  C   LIG    1      -22.864  79.520  34.901  0.00  0.00    +0.170 A 
ATOM      3  N   LIG    1      -21.959  78.753  34.201  0.00  0.00    -0.212 NA
ATOM      4  C   LIG    1      -20.705  79.163  34.152  0.00  0.00    +0.126 A 
ATOM      5  C   LIG    1      -20.237  80.385  34.906  0.00  0.00    +0.063 A 
ATOM      6  C   LIG    1      -21.157  81.104  35.550  0.00  0.00    +0.118 A 
ATOM      7  N   LIG    1      -22.479  80.705  35.540  0.00  0.00    -0.221 N 
ATOM      8  N   LIG    1      -23.520  81.351  36.106  0.00  0.00    -0.173 NA
ATOM      9  C   LIG    1      -24.561  80.560  35.864  0.00  0.00    +0.150 A 
ENDROOT
BRANCH   4  10
ATOM     10  N   LIG    1      -19.775  78.459  33.391  0.00  0.00    -0.308 N 
ATOM     11  C   LIG    1      -19.921  77.023  33.094  0.00  0.00    +0.107 C 
ATOM     12  C   LIG    1      -18.483  76.486  33.072  0.00  0.00    +0.029 C 
ATOM     13  C   LIG    1      -17.660  77.690  32.653  0.00  0.00    +0.021 C 
ATOM     14  C   LIG    1      -18.357  78.824  33.392  0.00  0.00    +0.107 C 
BRANCH  11  15
ATOM     15  C   LIG    1      -20.650  76.768  31.794  0.00  0.00    -0.006 A 
ATOM     16  C   LIG    1      -21.660  75.798  31.732  0.00  0.00    +0.046 A 
ATOM     17  C   LIG    1      -22.311  75.558  30.529  0.00  0.00    +0.142 A 
ATOM     18  F   LIG    1      -23.274  74.632  30.457  0.00  0.00    -0.204 F 
ATOM     19  C   LIG    1      -21.947  76.288  29.414  0.00  0.00    +0.149 A 
ATOM     20  N   LIG    1      -20.984  77.236  29.428  0.00  0.00    -0.260 NA
ATOM     21  C   LIG    1      -20.362  77.455  30.614  0.00  0.00    +0.116 A 
ENDBRANCH  11  15
ENDBRANCH   4  10
BRANCH   1  24
ATOM     22  N   LIG    1      -24.612  77.213  34.225  0.00  0.00    -0.308 N 
ATOM     23  H   LIG    1      -23.600  77.164  34.193  0.00  0.00    +0.149 HD
ATOM     24  C   LIG    1      -25.158  78.348  34.768  0.00  0.00    +0.249 C 
ATOM     25  O   LIG    1      -26.374  78.497  34.919  0.00  0.00    -0.270 OA
BRANCH  22  27
ATOM     26  C   LIG    1      -24.949  74.768  34.104  0.00  0.00    +0.028 C 
ATOM     27  C   LIG    1      -25.430  76.152  33.667  0.00  0.00    +0.073 C 
BRANCH  27  28
ATOM     28  C   LIG    1      -25.536  76.240  32.161  0.00  0.00    +0.009 C 
ATOM     29  C   LIG    1      -25.369  77.496  31.338  0.00  0.00    +0.005 C 
ATOM     30  C   LIG    1      -26.740  76.918  31.547  0.00  0.00    +0.005 C 
ENDBRANCH  27  28
ENDBRANCH  22  27
ENDBRANCH   1  24
TORSDOF 5
ENDMDL
