MODEL 1
REMARK VINA RESULT:      -7.6      0.000      0.000
REMARK  Name = pdb/CHEMBL3408947.pdb
REMARK                            x       y       z     vdW  Elec       q    Type
REMARK                         _______ _______ _______ _____ _____    ______ ____
ROOT
ATOM      1  C   LIG    1      -22.744  85.424  13.561  0.00  0.00    -0.041 A 
ATOM      2  C   LIG    1      -22.650  85.515  14.961  0.00  0.00    +0.031 A 
ATOM      3  C   LIG    1      -22.571  84.335  15.709  0.00  0.00    +0.067 A 
ATOM      4  N   LIG    1      -22.436  84.122  17.051  0.00  0.00    -0.276 N 
ATOM      5  H   LIG    1      -22.347  84.818  17.782  0.00  0.00    +0.189 HD
ATOM      6  N   LIG    1      -22.422  82.829  17.406  0.00  0.00    -0.173 NA
ATOM      7  C   LIG    1      -22.527  82.167  16.244  0.00  0.00    +0.093 A 
ATOM      8  C   LIG    1      -22.608  83.069  15.141  0.00  0.00    +0.027 A 
ATOM      9  C   LIG    1      -22.704  82.965  13.743  0.00  0.00    +0.012 A 
ATOM     10  C   LIG    1      -22.740  84.141  12.980  0.00  0.00    +0.005 A 
ENDROOT
BRANCH   1  15
ATOM     11  C   LIG    1      -18.408  85.012  12.239  0.00  0.00    +0.120 A 
ATOM     12  C   LIG    1      -19.740  85.296  11.930  0.00  0.00    +0.052 A 
ATOM     13  C   LIG    1      -20.195  86.598  12.084  0.00  0.00    -0.007 A 
ATOM     14  C   LIG    1      -21.557  87.215  11.971  0.00  0.00    +0.081 C 
ATOM     15  C   LIG    1      -22.769  86.681  12.720  0.00  0.00    +0.040 C 
ATOM     16  C   LIG    1      -22.692  86.603  11.208  0.00  0.00    +0.031 C 
ATOM     17  C   LIG    1      -21.300  88.705  12.097  0.00  0.00    +0.228 C 
ATOM     18  O   LIG    1      -22.121  89.576  11.952  0.00  0.00    -0.274 OA
ATOM     19  N   LIG    1      -19.964  88.839  12.446  0.00  0.00    -0.284 N 
ATOM     20  H   LIG    1      -19.536  89.735  12.630  0.00  0.00    +0.155 HD
ATOM     21  C   LIG    1      -19.296  87.608  12.453  0.00  0.00    +0.038 A 
ATOM     22  C   LIG    1      -17.976  87.364  12.752  0.00  0.00    +0.027 A 
ATOM     23  C   LIG    1      -17.537  86.041  12.648  0.00  0.00    +0.047 A 
BRANCH  11  25
ATOM     24  C   LIG    1      -17.909  82.992  13.357  0.00  0.00    +0.277 C 
ATOM     25  O   LIG    1      -17.845  83.765  12.161  0.00  0.00    -0.495 OA
ENDBRANCH  11  25
ENDBRANCH   1  15
BRANCH   7  26
ATOM     26  C   LIG    1      -22.579  80.737  16.143  0.00  0.00    +0.031 C 
ATOM     27  C   LIG    1      -21.859  80.021  15.263  0.00  0.00    +0.010 C 
BRANCH  27  28
ATOM     28  C   LIG    1      -21.861  78.562  15.252  0.00  0.00    -0.025 A 
ATOM     29  C   LIG    1      -20.646  77.871  15.246  0.00  0.00    +0.008 A 
ATOM     30  C   LIG    1      -20.628  76.473  15.218  0.00  0.00    +0.005 A 
ATOM     31  C   LIG    1      -21.825  75.746  15.190  0.00  0.00    -0.033 A 
ATOM     32  C   LIG    1      -23.042  76.450  15.185  0.00  0.00    +0.005 A 
ATOM     33  C   LIG    1      -23.061  77.848  15.229  0.00  0.00    +0.008 A 
BRANCH  31  34
ATOM     34  C   LIG    1      -21.811  74.229  15.139  0.00  0.00    +0.119 C 
BRANCH  34  35
ATOM     35  N   LIG    1      -21.629  73.563  16.449  0.00  0.00    -0.293 NA
ATOM     36  C   LIG    1      -22.686  72.557  16.687  0.00  0.00    +0.116 C 
ATOM     37  C   LIG    1      -22.474  71.779  18.001  0.00  0.00    +0.130 C 
ATOM     38  C   LIG    1      -22.762  72.619  19.242  0.00  0.00    +0.039 C 
ATOM     39  O   LIG    1      -21.191  71.140  18.051  0.00  0.00    -0.371 OA
ATOM     40  C   LIG    1      -20.072  71.967  17.703  0.00  0.00    +0.130 C 
ATOM     41  C   LIG    1      -19.538  72.722  18.915  0.00  0.00    +0.039 C 
ATOM     42  C   LIG    1      -20.324  72.858  16.462  0.00  0.00    +0.116 C 
ENDBRANCH  34  35
ENDBRANCH  31  34
ENDBRANCH  27  28
ENDBRANCH   7  26
TORSDOF 6
ENDMDL
MODEL 2
REMARK VINA RESULT:      -7.3     19.566     22.301
REMARK  Name = pdb/CHEMBL3408947.pdb
REMARK                            x       y       z     vdW  Elec       q    Type
REMARK                         _______ _______ _______ _____ _____    ______ ____
ROOT
ATOM      1  C   LIG    1      -32.313  75.680  29.010  0.00  0.00    -0.041 A 
ATOM      2  C   LIG    1      -32.829  76.950  28.696  0.00  0.00    +0.031 A 
ATOM      3  C   LIG    1      -34.094  77.035  28.104  0.00  0.00    +0.067 A 
ATOM      4  N   LIG    1      -34.849  78.110  27.732  0.00  0.00    -0.276 N 
ATOM      5  H   LIG    1      -34.623  79.092  27.840  0.00  0.00    +0.189 HD
ATOM      6  N   LIG    1      -36.020  77.792  27.162  0.00  0.00    -0.173 NA
ATOM      7  C   LIG    1      -36.045  76.451  27.184  0.00  0.00    +0.093 A 
ATOM      8  C   LIG    1      -34.861  75.923  27.782  0.00  0.00    +0.027 A 
ATOM      9  C   LIG    1      -34.354  74.649  28.089  0.00  0.00    +0.012 A 
ATOM     10  C   LIG    1      -33.106  74.554  28.723  0.00  0.00    +0.005 A 
ENDROOT
BRANCH   1  15
ATOM     11  C   LIG    1      -34.114  75.806  33.188  0.00  0.00    +0.120 A 
ATOM     12  C   LIG    1      -33.208  75.249  32.283  0.00  0.00    +0.052 A 
ATOM     13  C   LIG    1      -31.953  75.830  32.158  0.00  0.00    -0.007 A 
ATOM     14  C   LIG    1      -30.810  75.580  31.219  0.00  0.00    +0.081 C 
ATOM     15  C   LIG    1      -30.975  75.558  29.707  0.00  0.00    +0.040 C 
ATOM     16  C   LIG    1      -30.610  74.299  30.468  0.00  0.00    +0.031 C 
ATOM     17  C   LIG    1      -29.694  76.454  31.756  0.00  0.00    +0.228 C 
ATOM     18  O   LIG    1      -28.557  76.470  31.353  0.00  0.00    -0.274 OA
ATOM     19  N   LIG    1      -30.259  77.238  32.751  0.00  0.00    -0.284 N 
ATOM     20  H   LIG    1      -29.737  77.941  33.252  0.00  0.00    +0.155 HD
ATOM     21  C   LIG    1      -31.594  76.892  32.998  0.00  0.00    +0.038 A 
ATOM     22  C   LIG    1      -32.458  77.454  33.908  0.00  0.00    +0.027 A 
ATOM     23  C   LIG    1      -33.738  76.901  33.991  0.00  0.00    +0.047 A 
BRANCH  11  25
ATOM     24  C   LIG    1      -36.417  76.127  32.773  0.00  0.00    +0.277 C 
ATOM     25  O   LIG    1      -35.391  75.348  33.383  0.00  0.00    -0.495 OA
ENDBRANCH  11  25
ENDBRANCH   1  15
BRANCH   7  26
ATOM     26  C   LIG    1      -37.115  75.664  26.647  0.00  0.00    +0.031 C 
ATOM     27  C   LIG    1      -37.540  75.743  25.374  0.00  0.00    +0.010 C 
BRANCH  27  28
ATOM     28  C   LIG    1      -38.566  74.858  24.833  0.00  0.00    -0.025 A 
ATOM     29  C   LIG    1      -39.748  75.403  24.324  0.00  0.00    +0.008 A 
ATOM     30  C   LIG    1      -40.750  74.570  23.817  0.00  0.00    +0.005 A 
ATOM     31  C   LIG    1      -40.586  73.179  23.817  0.00  0.00    -0.033 A 
ATOM     32  C   LIG    1      -39.399  72.638  24.343  0.00  0.00    +0.005 A 
ATOM     33  C   LIG    1      -38.390  73.473  24.835  0.00  0.00    +0.008 A 
BRANCH  31  34
ATOM     34  C   LIG    1      -41.680  72.269  23.287  0.00  0.00    +0.119 C 
BRANCH  34  35
ATOM     35  N   LIG    1      -41.274  70.858  23.088  0.00  0.00    -0.293 NA
ATOM     36  C   LIG    1      -42.106  69.945  23.900  0.00  0.00    +0.116 C 
ATOM     37  C   LIG    1      -41.773  68.461  23.645  0.00  0.00    +0.130 C 
ATOM     38  C   LIG    1      -40.434  68.042  24.245  0.00  0.00    +0.039 C 
ATOM     39  O   LIG    1      -41.893  68.109  22.260  0.00  0.00    -0.371 OA
ATOM     40  C   LIG    1      -41.247  68.995  21.336  0.00  0.00    +0.130 C 
ATOM     41  C   LIG    1      -39.789  68.607  21.118  0.00  0.00    +0.039 C 
ATOM     42  C   LIG    1      -41.461  70.493  21.662  0.00  0.00    +0.116 C 
ENDBRANCH  34  35
ENDBRANCH  31  34
ENDBRANCH  27  28
ENDBRANCH   7  26
TORSDOF 6
ENDMDL
MODEL 3
REMARK VINA RESULT:      -7.1     19.547     22.925
REMARK  Name = pdb/CHEMBL3408947.pdb
REMARK                            x       y       z     vdW  Elec       q    Type
REMARK                         _______ _______ _______ _____ _____    ______ ____
ROOT
ATOM      1  C   LIG    1      -32.630  76.021  28.793  0.00  0.00    -0.041 A 
ATOM      2  C   LIG    1      -33.122  77.331  28.647  0.00  0.00    +0.031 A 
ATOM      3  C   LIG    1      -34.399  77.513  28.106  0.00  0.00    +0.067 A 
ATOM      4  N   LIG    1      -35.137  78.642  27.887  0.00  0.00    -0.276 N 
ATOM      5  H   LIG    1      -34.883  79.598  28.105  0.00  0.00    +0.189 HD
ATOM      6  N   LIG    1      -36.330  78.420  27.318  0.00  0.00    -0.173 NA
ATOM      7  C   LIG    1      -36.388  77.087  27.182  0.00  0.00    +0.093 A 
ATOM      8  C   LIG    1      -35.203  76.465  27.678  0.00  0.00    +0.027 A 
ATOM      9  C   LIG    1      -34.721  75.152  27.816  0.00  0.00    +0.012 A 
ATOM     10  C   LIG    1      -33.459  74.955  28.397  0.00  0.00    +0.005 A 
ENDROOT
BRANCH   1  15
ATOM     11  C   LIG    1      -34.318  75.670  33.005  0.00  0.00    +0.120 A 
ATOM     12  C   LIG    1      -33.448  75.210  32.013  0.00  0.00    +0.052 A 
ATOM     13  C   LIG    1      -32.184  75.776  31.923  0.00  0.00    -0.007 A 
ATOM     14  C   LIG    1      -31.073  75.620  30.928  0.00  0.00    +0.081 C 
ATOM     15  C   LIG    1      -31.277  75.787  29.430  0.00  0.00    +0.040 C 
ATOM     16  C   LIG    1      -30.923  74.437  30.021  0.00  0.00    +0.031 C 
ATOM     17  C   LIG    1      -29.922  76.399  31.535  0.00  0.00    +0.228 C 
ATOM     18  O   LIG    1      -28.796  76.442  31.104  0.00  0.00    -0.274 OA
ATOM     19  N   LIG    1      -30.442  77.066  32.634  0.00  0.00    -0.284 N 
ATOM     20  H   LIG    1      -29.890  77.692  33.203  0.00  0.00    +0.155 HD
ATOM     21  C   LIG    1      -31.778  76.720  32.876  0.00  0.00    +0.038 A 
ATOM     22  C   LIG    1      -32.604  77.184  33.872  0.00  0.00    +0.027 A 
ATOM     23  C   LIG    1      -33.895  76.650  33.924  0.00  0.00    +0.047 A 
BRANCH  11  25
ATOM     24  C   LIG    1      -35.945  74.869  34.518  0.00  0.00    +0.277 C 
ATOM     25  O   LIG    1      -35.599  75.218  33.180  0.00  0.00    -0.495 OA
ENDBRANCH  11  25
ENDBRANCH   1  15
BRANCH   7  26
ATOM     26  C   LIG    1      -37.493  76.393  26.586  0.00  0.00    +0.031 C 
ATOM     27  C   LIG    1      -37.502  75.943  25.321  0.00  0.00    +0.010 C 
BRANCH  27  28
ATOM     28  C   LIG    1      -38.603  75.154  24.776  0.00  0.00    -0.025 A 
ATOM     29  C   LIG    1      -39.761  75.800  24.335  0.00  0.00    +0.008 A 
ATOM     30  C   LIG    1      -40.832  75.061  23.826  0.00  0.00    +0.005 A 
ATOM     31  C   LIG    1      -40.764  73.663  23.757  0.00  0.00    -0.033 A 
ATOM     32  C   LIG    1      -39.599  73.021  24.214  0.00  0.00    +0.005 A 
ATOM     33  C   LIG    1      -38.520  73.762  24.708  0.00  0.00    +0.008 A 
BRANCH  31  34
ATOM     34  C   LIG    1      -41.932  72.854  23.225  0.00  0.00    +0.119 C 
BRANCH  34  35
ATOM     35  N   LIG    1      -43.038  73.658  22.654  0.00  0.00    -0.293 NA
ATOM     36  C   LIG    1      -43.599  73.012  21.448  0.00  0.00    +0.116 C 
ATOM     37  C   LIG    1      -44.814  73.775  20.882  0.00  0.00    +0.130 C 
ATOM     38  C   LIG    1      -44.428  75.086  20.202  0.00  0.00    +0.039 C 
ATOM     39  O   LIG    1      -45.851  73.942  21.858  0.00  0.00    -0.371 OA
ATOM     40  C   LIG    1      -45.427  74.434  23.136  0.00  0.00    +0.130 C 
ATOM     41  C   LIG    1      -45.405  75.958  23.168  0.00  0.00    +0.039 C 
ATOM     42  C   LIG    1      -44.127  73.771  23.654  0.00  0.00    +0.116 C 
ENDBRANCH  34  35
ENDBRANCH  31  34
ENDBRANCH  27  28
ENDBRANCH   7  26
TORSDOF 6
ENDMDL
MODEL 4
REMARK VINA RESULT:      -7.0     18.575     21.194
REMARK  Name = pdb/CHEMBL3408947.pdb
REMARK                            x       y       z     vdW  Elec       q    Type
REMARK                         _______ _______ _______ _____ _____    ______ ____
ROOT
ATOM      1  C   LIG    1      -39.151  80.717  27.072  0.00  0.00    -0.041 A 
ATOM      2  C   LIG    1      -39.326  80.810  25.680  0.00  0.00    +0.031 A 
ATOM      3  C   LIG    1      -39.397  79.630  24.931  0.00  0.00    +0.067 A 
ATOM      4  N   LIG    1      -39.597  79.416  23.597  0.00  0.00    -0.276 N 
ATOM      5  H   LIG    1      -39.754  80.110  22.876  0.00  0.00    +0.189 HD
ATOM      6  N   LIG    1      -39.578  78.125  23.236  0.00  0.00    -0.173 NA
ATOM      7  C   LIG    1      -39.383  77.464  24.387  0.00  0.00    +0.093 A 
ATOM      8  C   LIG    1      -39.279  78.364  25.489  0.00  0.00    +0.027 A 
ATOM      9  C   LIG    1      -39.102  78.260  26.879  0.00  0.00    +0.012 A 
ATOM     10  C   LIG    1      -39.072  79.434  27.646  0.00  0.00    +0.005 A 
ENDROOT
BRANCH   1  15
ATOM     11  C   LIG    1      -34.650  80.582  27.737  0.00  0.00    +0.120 A 
ATOM     12  C   LIG    1      -35.804  81.314  27.448  0.00  0.00    +0.052 A 
ATOM     13  C   LIG    1      -36.547  81.827  28.503  0.00  0.00    -0.007 A 
ATOM     14  C   LIG    1      -37.870  82.530  28.562  0.00  0.00    +0.081 C 
ATOM     15  C   LIG    1      -39.130  81.972  27.918  0.00  0.00    +0.040 C 
ATOM     16  C   LIG    1      -38.490  83.245  27.400  0.00  0.00    +0.031 C 
ATOM     17  C   LIG    1      -37.996  82.959  30.011  0.00  0.00    +0.228 C 
ATOM     18  O   LIG    1      -38.871  83.653  30.466  0.00  0.00    -0.274 OA
ATOM     19  N   LIG    1      -36.942  82.361  30.685  0.00  0.00    -0.284 N 
ATOM     20  H   LIG    1      -36.810  82.454  31.682  0.00  0.00    +0.155 HD
ATOM     21  C   LIG    1      -36.080  81.681  29.816  0.00  0.00    +0.038 A 
ATOM     22  C   LIG    1      -34.941  80.978  30.133  0.00  0.00    +0.027 A 
ATOM     23  C   LIG    1      -34.227  80.416  29.071  0.00  0.00    +0.047 A 
BRANCH  11  25
ATOM     24  C   LIG    1      -32.837  79.132  27.301  0.00  0.00    +0.277 C 
ATOM     25  O   LIG    1      -33.849  79.997  26.792  0.00  0.00    -0.495 OA
ENDBRANCH  11  25
ENDBRANCH   1  15
BRANCH   7  26
ATOM     26  C   LIG    1      -39.268  76.037  24.477  0.00  0.00    +0.031 C 
ATOM     27  C   LIG    1      -40.200  75.179  24.029  0.00  0.00    +0.010 C 
BRANCH  27  28
ATOM     28  C   LIG    1      -40.008  73.733  24.048  0.00  0.00    -0.025 A 
ATOM     29  C   LIG    1      -40.987  72.900  23.498  0.00  0.00    +0.008 A 
ATOM     30  C   LIG    1      -40.829  71.512  23.521  0.00  0.00    +0.005 A 
ATOM     31  C   LIG    1      -39.691  70.935  24.101  0.00  0.00    -0.033 A 
ATOM     32  C   LIG    1      -38.717  71.779  24.662  0.00  0.00    +0.005 A 
ATOM     33  C   LIG    1      -38.868  73.169  24.624  0.00  0.00    +0.008 A 
BRANCH  31  34
ATOM     34  C   LIG    1      -39.524  69.427  24.147  0.00  0.00    +0.119 C 
BRANCH  34  35
ATOM     35  N   LIG    1      -38.544  68.878  23.182  0.00  0.00    -0.293 NA
ATOM     36  C   LIG    1      -37.967  67.608  23.672  0.00  0.00    +0.116 C 
ATOM     37  C   LIG    1      -37.012  66.961  22.649  0.00  0.00    +0.130 C 
ATOM     38  C   LIG    1      -35.686  67.705  22.522  0.00  0.00    +0.039 C 
ATOM     39  O   LIG    1      -37.646  66.738  21.383  0.00  0.00    -0.371 OA
ATOM     40  C   LIG    1      -38.369  67.853  20.845  0.00  0.00    +0.130 C 
ATOM     41  C   LIG    1      -37.462  68.763  20.024  0.00  0.00    +0.039 C 
ATOM     42  C   LIG    1      -39.228  68.597  21.897  0.00  0.00    +0.116 C 
ENDBRANCH  34  35
ENDBRANCH  31  34
ENDBRANCH  27  28
ENDBRANCH   7  26
TORSDOF 6
ENDMDL
MODEL 5
REMARK VINA RESULT:      -6.9     17.407     22.497
REMARK  Name = pdb/CHEMBL3408947.pdb
REMARK                            x       y       z     vdW  Elec       q    Type
REMARK                         _______ _______ _______ _____ _____    ______ ____
ROOT
ATOM      1  C   LIG    1      -36.285  66.045  22.318  0.00  0.00    -0.041 A 
ATOM      2  C   LIG    1      -35.806  65.248  23.372  0.00  0.00    +0.031 A 
ATOM      3  C   LIG    1      -35.220  65.874  24.477  0.00  0.00    +0.067 A 
ATOM      4  N   LIG    1      -34.713  65.369  25.641  0.00  0.00    -0.276 N 
ATOM      5  H   LIG    1      -34.683  64.399  25.933  0.00  0.00    +0.189 HD
ATOM      6  N   LIG    1      -34.204  66.293  26.468  0.00  0.00    -0.173 NA
ATOM      7  C   LIG    1      -34.410  67.456  25.832  0.00  0.00    +0.093 A 
ATOM      8  C   LIG    1      -35.063  67.250  24.579  0.00  0.00    +0.027 A 
ATOM      9  C   LIG    1      -35.536  68.057  23.531  0.00  0.00    +0.012 A 
ATOM     10  C   LIG    1      -36.164  67.443  22.437  0.00  0.00    +0.005 A 
ENDROOT
BRANCH   1  15
ATOM     11  C   LIG    1      -32.675  66.443  19.574  0.00  0.00    +0.120 A 
ATOM     12  C   LIG    1      -33.740  65.682  20.062  0.00  0.00    +0.052 A 
ATOM     13  C   LIG    1      -34.976  65.792  19.440  0.00  0.00    -0.007 A 
ATOM     14  C   LIG    1      -36.329  65.237  19.770  0.00  0.00    +0.081 C 
ATOM     15  C   LIG    1      -36.978  65.402  21.136  0.00  0.00    +0.040 C 
ATOM     16  C   LIG    1      -36.551  64.035  20.638  0.00  0.00    +0.031 C 
ATOM     17  C   LIG    1      -37.184  65.614  18.576  0.00  0.00    +0.228 C 
ATOM     18  O   LIG    1      -38.323  65.263  18.386  0.00  0.00    -0.274 OA
ATOM     19  N   LIG    1      -36.409  66.459  17.796  0.00  0.00    -0.284 N 
ATOM     20  H   LIG    1      -36.755  66.889  16.950  0.00  0.00    +0.155 HD
ATOM     21  C   LIG    1      -35.106  66.585  18.292  0.00  0.00    +0.038 A 
ATOM     22  C   LIG    1      -34.074  67.337  17.779  0.00  0.00    +0.027 A 
ATOM     23  C   LIG    1      -32.846  67.264  18.442  0.00  0.00    +0.047 A 
BRANCH  11  25
ATOM     24  C   LIG    1      -30.384  65.961  19.264  0.00  0.00    +0.277 C 
ATOM     25  O   LIG    1      -31.417  66.449  20.116  0.00  0.00    -0.495 OA
ENDBRANCH  11  25
ENDBRANCH   1  15
BRANCH   7  26
ATOM     26  C   LIG    1      -33.997  68.730  26.344  0.00  0.00    +0.031 C 
ATOM     27  C   LIG    1      -34.584  69.347  27.382  0.00  0.00    +0.010 C 
BRANCH  27  28
ATOM     28  C   LIG    1      -34.077  70.597  27.941  0.00  0.00    -0.025 A 
ATOM     29  C   LIG    1      -34.551  71.815  27.447  0.00  0.00    +0.008 A 
ATOM     30  C   LIG    1      -34.065  73.022  27.958  0.00  0.00    +0.005 A 
ATOM     31  C   LIG    1      -33.093  73.028  28.966  0.00  0.00    -0.033 A 
ATOM     32  C   LIG    1      -32.613  71.798  29.449  0.00  0.00    +0.005 A 
ATOM     33  C   LIG    1      -33.111  70.590  28.949  0.00  0.00    +0.008 A 
BRANCH  31  34
ATOM     34  C   LIG    1      -32.546  74.336  29.509  0.00  0.00    +0.119 C 
BRANCH  34  35
ATOM     35  N   LIG    1      -33.030  75.551  28.814  0.00  0.00    -0.293 NA
ATOM     36  C   LIG    1      -34.051  76.254  29.618  0.00  0.00    +0.116 C 
ATOM     37  C   LIG    1      -34.509  77.574  28.965  0.00  0.00    +0.130 C 
ATOM     38  C   LIG    1      -35.389  77.355  27.738  0.00  0.00    +0.039 C 
ATOM     39  O   LIG    1      -33.411  78.460  28.709  0.00  0.00    -0.371 OA
ATOM     40  C   LIG    1      -32.280  77.874  28.051  0.00  0.00    +0.130 C 
ATOM     41  C   LIG    1      -32.431  77.918  26.535  0.00  0.00    +0.039 C 
ATOM     42  C   LIG    1      -31.894  76.482  28.609  0.00  0.00    +0.116 C 
ENDBRANCH  34  35
ENDBRANCH  31  34
ENDBRANCH  27  28
ENDBRANCH   7  26
TORSDOF 6
ENDMDL
MODEL 6
REMARK VINA RESULT:      -6.9     19.296     23.589
REMARK  Name = pdb/CHEMBL3408947.pdb
REMARK                            x       y       z     vdW  Elec       q    Type
REMARK                         _______ _______ _______ _____ _____    ______ ____
ROOT
ATOM      1  C   LIG    1      -24.075  78.537  34.255  0.00  0.00    -0.041 A 
ATOM      2  C   LIG    1      -23.919  78.028  35.556  0.00  0.00    +0.031 A 
ATOM      3  C   LIG    1      -23.275  78.817  36.515  0.00  0.00    +0.067 A 
ATOM      4  N   LIG    1      -23.020  78.605  37.840  0.00  0.00    -0.276 N 
ATOM      5  H   LIG    1      -23.282  77.801  38.399  0.00  0.00    +0.189 HD
ATOM      6  N   LIG    1      -22.346  79.596  38.439  0.00  0.00    -0.173 NA
ATOM      7  C   LIG    1      -22.173  80.509  37.472  0.00  0.00    +0.093 A 
ATOM      8  C   LIG    1      -22.754  80.076  36.242  0.00  0.00    +0.027 A 
ATOM      9  C   LIG    1      -22.902  80.594  34.945  0.00  0.00    +0.012 A 
ATOM     10  C   LIG    1      -23.584  79.829  33.986  0.00  0.00    +0.005 A 
ENDROOT
BRANCH   1  15
ATOM     11  C   LIG    1      -20.285  77.123  32.170  0.00  0.00    +0.120 A 
ATOM     12  C   LIG    1      -21.560  76.847  32.670  0.00  0.00    +0.052 A 
ATOM     13  C   LIG    1      -22.656  77.047  31.842  0.00  0.00    -0.007 A 
ATOM     14  C   LIG    1      -24.134  76.979  32.084  0.00  0.00    +0.081 C 
ATOM     15  C   LIG    1      -24.821  77.734  33.211  0.00  0.00    +0.040 C 
ATOM     16  C   LIG    1      -24.762  76.219  33.212  0.00  0.00    +0.031 C 
ATOM     17  C   LIG    1      -24.742  77.143  30.704  0.00  0.00    +0.228 C 
ATOM     18  O   LIG    1      -25.913  77.039  30.434  0.00  0.00    -0.274 OA
ATOM     19  N   LIG    1      -23.695  77.471  29.856  0.00  0.00    -0.284 N 
ATOM     20  H   LIG    1      -23.830  77.672  28.875  0.00  0.00    +0.155 HD
ATOM     21  C   LIG    1      -22.456  77.429  30.508  0.00  0.00    +0.038 A 
ATOM     22  C   LIG    1      -21.214  77.695  29.981  0.00  0.00    +0.027 A 
ATOM     23  C   LIG    1      -20.118  77.545  30.836  0.00  0.00    +0.047 A 
BRANCH  11  25
ATOM     24  C   LIG    1      -18.088  77.908  32.542  0.00  0.00    +0.277 C 
ATOM     25  O   LIG    1      -19.127  76.997  32.893  0.00  0.00    -0.495 OA
ENDBRANCH  11  25
ENDBRANCH   1  15
BRANCH   7  26
ATOM     26  C   LIG    1      -21.468  81.744  37.657  0.00  0.00    +0.031 C 
ATOM     27  C   LIG    1      -21.651  82.562  38.707  0.00  0.00    +0.010 C 
BRANCH  27  28
ATOM     28  C   LIG    1      -20.847  83.762  38.915  0.00  0.00    -0.025 A 
ATOM     29  C   LIG    1      -19.689  83.956  38.158  0.00  0.00    +0.008 A 
ATOM     30  C   LIG    1      -18.897  85.091  38.355  0.00  0.00    +0.005 A 
ATOM     31  C   LIG    1      -19.249  86.046  39.318  0.00  0.00    -0.033 A 
ATOM     32  C   LIG    1      -20.409  85.837  40.084  0.00  0.00    +0.005 A 
ATOM     33  C   LIG    1      -21.210  84.709  39.875  0.00  0.00    +0.008 A 
BRANCH  31  34
ATOM     34  C   LIG    1      -18.381  87.270  39.551  0.00  0.00    +0.119 C 
BRANCH  34  35
ATOM     35  N   LIG    1      -18.647  88.405  38.637  0.00  0.00    -0.293 NA
ATOM     36  C   LIG    1      -19.252  89.542  39.363  0.00  0.00    +0.116 C 
ATOM     37  C   LIG    1      -19.457  90.776  38.460  0.00  0.00    +0.130 C 
ATOM     38  C   LIG    1      -20.593  90.596  37.457  0.00  0.00    +0.039 C 
ATOM     39  O   LIG    1      -18.235  91.202  37.843  0.00  0.00    -0.371 OA
ATOM     40  C   LIG    1      -17.464  90.170  37.213  0.00  0.00    +0.130 C 
ATOM     41  C   LIG    1      -17.901  89.948  35.770  0.00  0.00    +0.039 C 
ATOM     42  C   LIG    1      -17.367  88.872  38.053  0.00  0.00    +0.116 C 
ENDBRANCH  34  35
ENDBRANCH  31  34
ENDBRANCH  27  28
ENDBRANCH   7  26
TORSDOF 6
ENDMDL
MODEL 7
REMARK VINA RESULT:      -6.9      4.435      6.151
REMARK  Name = pdb/CHEMBL3408947.pdb
REMARK                            x       y       z     vdW  Elec       q    Type
REMARK                         _______ _______ _______ _____ _____    ______ ____
ROOT
ATOM      1  C   LIG    1      -18.912  84.813  12.406  0.00  0.00    -0.041 A 
ATOM      2  C   LIG    1      -18.205  84.100  13.390  0.00  0.00    +0.031 A 
ATOM      3  C   LIG    1      -18.731  82.889  13.853  0.00  0.00    +0.067 A 
ATOM      4  N   LIG    1      -18.256  81.981  14.756  0.00  0.00    -0.276 N 
ATOM      5  H   LIG    1      -17.381  82.017  15.266  0.00  0.00    +0.189 HD
ATOM      6  N   LIG    1      -19.066  80.933  14.964  0.00  0.00    -0.173 NA
ATOM      7  C   LIG    1      -20.105  81.151  14.144  0.00  0.00    +0.093 A 
ATOM      8  C   LIG    1      -19.937  82.362  13.408  0.00  0.00    +0.027 A 
ATOM      9  C   LIG    1      -20.654  83.067  12.427  0.00  0.00    +0.012 A 
ATOM     10  C   LIG    1      -20.114  84.261  11.924  0.00  0.00    +0.005 A 
ENDROOT
BRANCH   1  15
ATOM     11  C   LIG    1      -21.562  87.498  14.952  0.00  0.00    +0.120 A 
ATOM     12  C   LIG    1      -20.308  87.207  14.411  0.00  0.00    +0.052 A 
ATOM     13  C   LIG    1      -19.997  87.698  13.151  0.00  0.00    -0.007 A 
ATOM     14  C   LIG    1      -18.828  87.480  12.238  0.00  0.00    +0.081 C 
ATOM     15  C   LIG    1      -18.339  86.095  11.841  0.00  0.00    +0.040 C 
ATOM     16  C   LIG    1      -17.484  87.005  12.700  0.00  0.00    +0.031 C 
ATOM     17  C   LIG    1      -19.060  88.456  11.100  0.00  0.00    +0.228 C 
ATOM     18  O   LIG    1      -18.292  88.681  10.198  0.00  0.00    -0.274 OA
ATOM     19  N   LIG    1      -20.327  88.984  11.295  0.00  0.00    -0.284 N 
ATOM     20  H   LIG    1      -20.749  89.640  10.654  0.00  0.00    +0.155 HD
ATOM     21  C   LIG    1      -20.902  88.544  12.494  0.00  0.00    +0.038 A 
ATOM     22  C   LIG    1      -22.139  88.861  13.005  0.00  0.00    +0.027 A 
ATOM     23  C   LIG    1      -22.468  88.318  14.251  0.00  0.00    +0.047 A 
BRANCH  11  25
ATOM     24  C   LIG    1      -22.530  85.724  16.175  0.00  0.00    +0.277 C 
ATOM     25  O   LIG    1      -22.002  87.048  16.170  0.00  0.00    -0.495 OA
ENDBRANCH  11  25
ENDBRANCH   1  15
BRANCH   7  26
ATOM     26  C   LIG    1      -21.243  80.284  14.052  0.00  0.00    +0.031 C 
ATOM     27  C   LIG    1      -22.340  80.401  14.819  0.00  0.00    +0.010 C 
BRANCH  27  28
ATOM     28  C   LIG    1      -23.520  79.564  14.633  0.00  0.00    -0.025 A 
ATOM     29  C   LIG    1      -23.434  78.418  13.837  0.00  0.00    +0.008 A 
ATOM     30  C   LIG    1      -24.559  77.613  13.633  0.00  0.00    +0.005 A 
ATOM     31  C   LIG    1      -25.788  77.946  14.217  0.00  0.00    -0.033 A 
ATOM     32  C   LIG    1      -25.868  79.107  15.006  0.00  0.00    +0.005 A 
ATOM     33  C   LIG    1      -24.739  79.904  15.224  0.00  0.00    +0.008 A 
BRANCH  31  34
ATOM     34  C   LIG    1      -27.017  77.087  13.982  0.00  0.00    +0.119 C 
BRANCH  34  35
ATOM     35  N   LIG    1      -27.524  77.092  12.589  0.00  0.00    -0.293 NA
ATOM     36  C   LIG    1      -28.078  75.772  12.220  0.00  0.00    +0.116 C 
ATOM     37  C   LIG    1      -28.698  75.768  10.808  0.00  0.00    +0.130 C 
ATOM     38  C   LIG    1      -27.652  75.824   9.699  0.00  0.00    +0.039 C 
ATOM     39  O   LIG    1      -29.715  76.769  10.661  0.00  0.00    -0.371 OA
ATOM     40  C   LIG    1      -29.362  78.083  11.113  0.00  0.00    +0.130 C 
ATOM     41  C   LIG    1      -28.671  78.885  10.016  0.00  0.00    +0.039 C 
ATOM     42  C   LIG    1      -28.614  78.090  12.469  0.00  0.00    +0.116 C 
ENDBRANCH  34  35
ENDBRANCH  31  34
ENDBRANCH  27  28
ENDBRANCH   7  26
TORSDOF 6
ENDMDL
MODEL 8
REMARK VINA RESULT:      -6.9     19.332     21.155
REMARK  Name = pdb/CHEMBL3408947.pdb
REMARK                            x       y       z     vdW  Elec       q    Type
REMARK                         _______ _______ _______ _____ _____    ______ ____
ROOT
ATOM      1  C   LIG    1      -37.092  80.536  29.118  0.00  0.00    -0.041 A 
ATOM      2  C   LIG    1      -35.893  79.940  28.689  0.00  0.00    +0.031 A 
ATOM      3  C   LIG    1      -35.957  78.742  27.969  0.00  0.00    +0.067 A 
ATOM      4  N   LIG    1      -34.980  77.973  27.403  0.00  0.00    -0.276 N 
ATOM      5  H   LIG    1      -33.983  78.151  27.390  0.00  0.00    +0.189 HD
ATOM      6  N   LIG    1      -35.431  76.861  26.804  0.00  0.00    -0.173 NA
ATOM      7  C   LIG    1      -36.762  76.918  26.962  0.00  0.00    +0.093 A 
ATOM      8  C   LIG    1      -37.148  78.092  27.675  0.00  0.00    +0.027 A 
ATOM      9  C   LIG    1      -38.352  78.677  28.101  0.00  0.00    +0.012 A 
ATOM     10  C   LIG    1      -38.303  79.900  28.786  0.00  0.00    +0.005 A 
ENDROOT
BRANCH   1  15
ATOM     11  C   LIG    1      -37.790  82.989  25.348  0.00  0.00    +0.120 A 
ATOM     12  C   LIG    1      -38.065  82.746  26.696  0.00  0.00    +0.052 A 
ATOM     13  C   LIG    1      -37.262  83.345  27.656  0.00  0.00    -0.007 A 
ATOM     14  C   LIG    1      -37.192  83.207  29.148  0.00  0.00    +0.081 C 
ATOM     15  C   LIG    1      -37.060  81.863  29.847  0.00  0.00    +0.040 C 
ATOM     16  C   LIG    1      -38.318  82.696  29.994  0.00  0.00    +0.031 C 
ATOM     17  C   LIG    1      -36.206  84.279  29.572  0.00  0.00    +0.228 C 
ATOM     18  O   LIG    1      -35.941  84.582  30.709  0.00  0.00    -0.274 OA
ATOM     19  N   LIG    1      -35.660  84.787  28.403  0.00  0.00    -0.284 N 
ATOM     20  H   LIG    1      -34.941  85.497  28.401  0.00  0.00    +0.155 HD
ATOM     21  C   LIG    1      -36.262  84.244  27.261  0.00  0.00    +0.038 A 
ATOM     22  C   LIG    1      -35.975  84.515  25.944  0.00  0.00    +0.027 A 
ATOM     23  C   LIG    1      -36.751  83.866  24.980  0.00  0.00    +0.047 A 
BRANCH  11  25
ATOM     24  C   LIG    1      -39.130  83.365  23.440  0.00  0.00    +0.277 C 
ATOM     25  O   LIG    1      -38.485  82.434  24.305  0.00  0.00    -0.495 OA
ENDBRANCH  11  25
ENDBRANCH   1  15
BRANCH   7  26
ATOM     26  C   LIG    1      -37.664  75.907  26.493  0.00  0.00    +0.031 C 
ATOM     27  C   LIG    1      -37.704  75.466  25.224  0.00  0.00    +0.010 C 
BRANCH  27  28
ATOM     28  C   LIG    1      -38.566  74.367  24.803  0.00  0.00    -0.025 A 
ATOM     29  C   LIG    1      -38.117  73.050  24.932  0.00  0.00    +0.008 A 
ATOM     30  C   LIG    1      -38.922  71.985  24.518  0.00  0.00    +0.005 A 
ATOM     31  C   LIG    1      -40.186  72.222  23.962  0.00  0.00    -0.033 A 
ATOM     32  C   LIG    1      -40.625  73.550  23.824  0.00  0.00    +0.005 A 
ATOM     33  C   LIG    1      -39.826  74.616  24.254  0.00  0.00    +0.008 A 
BRANCH  31  34
ATOM     34  C   LIG    1      -41.055  71.070  23.492  0.00  0.00    +0.119 C 
BRANCH  34  35
ATOM     35  N   LIG    1      -40.311  69.876  23.028  0.00  0.00    -0.293 NA
ATOM     36  C   LIG    1      -40.851  68.642  23.636  0.00  0.00    +0.116 C 
ATOM     37  C   LIG    1      -40.159  67.371  23.103  0.00  0.00    +0.130 C 
ATOM     38  C   LIG    1      -38.736  67.205  23.628  0.00  0.00    +0.039 C 
ATOM     39  O   LIG    1      -40.237  67.271  21.675  0.00  0.00    -0.371 OA
ATOM     40  C   LIG    1      -39.873  68.452  20.949  0.00  0.00    +0.130 C 
ATOM     41  C   LIG    1      -38.373  68.502  20.680  0.00  0.00    +0.039 C 
ATOM     42  C   LIG    1      -40.451  69.754  21.556  0.00  0.00    +0.116 C 
ENDBRANCH  34  35
ENDBRANCH  31  34
ENDBRANCH  27  28
ENDBRANCH   7  26
TORSDOF 6
ENDMDL
MODEL 9
REMARK VINA RESULT:      -6.9      2.048      3.522
REMARK  Name = pdb/CHEMBL3408947.pdb
REMARK                            x       y       z     vdW  Elec       q    Type
REMARK                         _______ _______ _______ _____ _____    ______ ____
ROOT
ATOM      1  C   LIG    1      -21.766  85.978  13.909  0.00  0.00    -0.041 A 
ATOM      2  C   LIG    1      -22.360  85.880  15.180  0.00  0.00    +0.031 A 
ATOM      3  C   LIG    1      -22.363  84.640  15.827  0.00  0.00    +0.067 A 
ATOM      4  N   LIG    1      -22.822  84.261  17.057  0.00  0.00    -0.276 N 
ATOM      5  H   LIG    1      -23.252  84.847  17.763  0.00  0.00    +0.189 HD
ATOM      6  N   LIG    1      -22.670  82.956  17.326  0.00  0.00    -0.173 NA
ATOM      7  C   LIG    1      -22.061  82.464  16.236  0.00  0.00    +0.093 A 
ATOM      8  C   LIG    1      -21.829  83.486  15.268  0.00  0.00    +0.027 A 
ATOM      9  C   LIG    1      -21.235  83.572  13.997  0.00  0.00    +0.012 A 
ATOM     10  C   LIG    1      -21.188  84.819  13.357  0.00  0.00    +0.005 A 
ENDROOT
BRANCH   1  15
ATOM     11  C   LIG    1      -25.149  85.015  11.020  0.00  0.00    +0.120 A 
ATOM     12  C   LIG    1      -24.520  85.917  11.882  0.00  0.00    +0.052 A 
ATOM     13  C   LIG    1      -23.518  86.732  11.375  0.00  0.00    -0.007 A 
ATOM     14  C   LIG    1      -22.570  87.695  12.024  0.00  0.00    +0.081 C 
ATOM     15  C   LIG    1      -21.693  87.318  13.209  0.00  0.00    +0.040 C 
ATOM     16  C   LIG    1      -22.810  88.332  13.359  0.00  0.00    +0.031 C 
ATOM     17  C   LIG    1      -21.865  88.362  10.859  0.00  0.00    +0.228 C 
ATOM     18  O   LIG    1      -21.094  89.286  10.938  0.00  0.00    -0.274 OA
ATOM     19  N   LIG    1      -22.257  87.671   9.722  0.00  0.00    -0.284 N 
ATOM     20  H   LIG    1      -21.901  87.889   8.802  0.00  0.00    +0.155 HD
ATOM     21  C   LIG    1      -23.224  86.698  10.005  0.00  0.00    +0.038 A 
ATOM     22  C   LIG    1      -23.834  85.832   9.128  0.00  0.00    +0.027 A 
ATOM     23  C   LIG    1      -24.804  84.975   9.655  0.00  0.00    +0.047 A 
BRANCH  11  25
ATOM     24  C   LIG    1      -27.459  84.523  11.069  0.00  0.00    +0.277 C 
ATOM     25  O   LIG    1      -26.128  84.135  11.402  0.00  0.00    -0.495 OA
ENDBRANCH  11  25
ENDBRANCH   1  15
BRANCH   7  26
ATOM     26  C   LIG    1      -21.719  81.081  16.070  0.00  0.00    +0.031 C 
ATOM     27  C   LIG    1      -20.464  80.633  15.904  0.00  0.00    +0.010 C 
BRANCH  27  28
ATOM     28  C   LIG    1      -20.141  79.212  15.836  0.00  0.00    -0.025 A 
ATOM     29  C   LIG    1      -20.944  78.358  15.075  0.00  0.00    +0.008 A 
ATOM     30  C   LIG    1      -20.661  76.990  15.012  0.00  0.00    +0.005 A 
ATOM     31  C   LIG    1      -19.572  76.456  15.714  0.00  0.00    -0.033 A 
ATOM     32  C   LIG    1      -18.776  77.320  16.486  0.00  0.00    +0.005 A 
ATOM     33  C   LIG    1      -19.050  78.691  16.536  0.00  0.00    +0.008 A 
BRANCH  31  34
ATOM     34  C   LIG    1      -19.272  74.969  15.665  0.00  0.00    +0.119 C 
BRANCH  34  35
ATOM     35  N   LIG    1      -20.051  74.144  16.618  0.00  0.00    -0.293 NA
ATOM     36  C   LIG    1      -21.309  73.667  16.004  0.00  0.00    +0.116 C 
ATOM     37  C   LIG    1      -22.101  72.729  16.937  0.00  0.00    +0.130 C 
ATOM     38  C   LIG    1      -22.755  73.464  18.104  0.00  0.00    +0.039 C 
ATOM     39  O   LIG    1      -21.321  71.602  17.361  0.00  0.00    -0.371 OA
ATOM     40  C   LIG    1      -20.009  71.905  17.854  0.00  0.00    +0.130 C 
ATOM     41  C   LIG    1      -20.032  72.217  19.346  0.00  0.00    +0.039 C 
ATOM     42  C   LIG    1      -19.254  72.953  16.999  0.00  0.00    +0.116 C 
ENDBRANCH  34  35
ENDBRANCH  31  34
ENDBRANCH  27  28
ENDBRANCH   7  26
TORSDOF 6
ENDMDL
