MODEL 1
REMARK VINA RESULT:      -6.7      0.000      0.000
REMARK  Name = pdb/CHEMBL3900303.pdb
REMARK                            x       y       z     vdW  Elec       q    Type
REMARK                         _______ _______ _______ _____ _____    ______ ____
ROOT
ATOM      1  C   LIG    1      -36.721  66.955  20.062  0.00  0.00    +0.323 A 
ATOM      2  N   LIG    1      -37.094  66.445  21.251  0.00  0.00    -0.201 NA
ATOM      3  C   LIG    1      -37.815  67.256  22.061  0.00  0.00    +0.145 A 
ATOM      4  C   LIG    1      -38.229  68.537  21.746  0.00  0.00    +0.105 A 
ATOM      5  C   LIG    1      -37.853  68.904  20.458  0.00  0.00    +0.145 A 
ATOM      6  N   LIG    1      -37.092  68.163  19.607  0.00  0.00    -0.201 NA
ENDROOT
BRANCH   4   7
ATOM      7  N   LIG    1      -38.974  69.298  22.673  0.00  0.00    -0.196 NA
ATOM      8  C   LIG    1      -38.376  70.136  23.466  0.00  0.00    +0.285 C 
BRANCH   8   9
ATOM      9  N   LIG    1      -38.876  70.940  24.444  0.00  0.00    -0.267 N 
ATOM     10  H   LIG    1      -39.147  70.494  25.315  0.00  0.00    +0.157 HD
BRANCH   9  11
ATOM     11  C   LIG    1      -39.099  72.332  24.481  0.00  0.00    +0.070 A 
ATOM     12  C   LIG    1      -40.289  72.827  23.914  0.00  0.00    +0.145 A 
ATOM     13  F   LIG    1      -41.179  71.951  23.413  0.00  0.00    -0.204 F 
ATOM     14  C   LIG    1      -40.575  74.189  23.821  0.00  0.00    +0.052 A 
ATOM     15  C   LIG    1      -39.662  75.122  24.326  0.00  0.00    +0.058 A 
ATOM     16  C   LIG    1      -38.470  74.644  24.895  0.00  0.00    +0.014 A 
ATOM     17  C   LIG    1      -38.178  73.269  24.942  0.00  0.00    +0.027 A 
BRANCH  15  18
ATOM     18  C   LIG    1      -39.947  76.604  24.243  0.00  0.00    +0.418 C 
ATOM     19  F   LIG    1      -38.854  77.366  24.526  0.00  0.00    -0.166 F 
ATOM     20  F   LIG    1      -40.914  76.998  25.115  0.00  0.00    -0.166 F 
ATOM     21  F   LIG    1      -40.370  77.004  23.011  0.00  0.00    -0.166 F 
ENDBRANCH  15  18
ENDBRANCH   9  11
ENDBRANCH   8   9
BRANCH   8  22
ATOM     22  O   LIG    1      -37.044  70.283  23.390  0.00  0.00    -0.481 OA
ATOM     23  H   LIG    1      -36.727  70.980  23.998  0.00  0.00    +0.295 HD
ENDBRANCH   8  22
ENDBRANCH   4   7
BRANCH   1  24
ATOM     24  O   LIG    1      -35.917  66.187  19.214  0.00  0.00    -0.424 OA
BRANCH  24  28
ATOM     25  C   LIG    1      -31.934  67.521  18.618  0.00  0.00    -0.014 A 
ATOM     26  C   LIG    1      -32.939  67.668  17.639  0.00  0.00    +0.012 A 
ATOM     27  C   LIG    1      -34.255  67.216  17.842  0.00  0.00    +0.047 A 
ATOM     28  C   LIG    1      -34.604  66.582  19.035  0.00  0.00    +0.132 A 
ATOM     29  C   LIG    1      -33.625  66.441  20.018  0.00  0.00    +0.047 A 
ATOM     30  C   LIG    1      -32.313  66.884  19.807  0.00  0.00    +0.012 A 
BRANCH  25  32
ATOM     31  C   LIG    1      -29.433  67.287  18.066  0.00  0.00    +0.124 A 
ATOM     32  C   LIG    1      -30.564  68.064  18.398  0.00  0.00    +0.023 A 
ATOM     33  C   LIG    1      -30.336  69.451  18.525  0.00  0.00    +0.033 A 
ATOM     34  C   LIG    1      -29.071  69.993  18.332  0.00  0.00    +0.060 A 
ATOM     35 CL   LIG    1      -28.814  71.685  18.455  0.00  0.00    -0.082 Cl
ATOM     36  C   LIG    1      -28.036  69.132  18.037  0.00  0.00    +0.133 A 
ATOM     37  N   LIG    1      -28.191  67.795  17.904  0.00  0.00    -0.239 NA
BRANCH  31  38
ATOM     38  N   LIG    1      -29.491  65.910  17.864  0.00  0.00    -0.343 N 
ATOM     39  H   LIG    1      -28.575  65.541  17.633  0.00  0.00    +0.144 HD
ATOM     40  H   LIG    1      -29.857  65.503  18.723  0.00  0.00    +0.144 HD
ENDBRANCH  31  38
ENDBRANCH  25  32
ENDBRANCH  24  28
ENDBRANCH   1  24
TORSDOF 9
ENDMDL
MODEL 2
REMARK VINA RESULT:      -6.4      1.755      2.537
REMARK  Name = pdb/CHEMBL3900303.pdb
REMARK                            x       y       z     vdW  Elec       q    Type
REMARK                         _______ _______ _______ _____ _____    ______ ____
ROOT
ATOM      1  C   LIG    1      -35.715  66.706  19.900  0.00  0.00    +0.323 A 
ATOM      2  N   LIG    1      -36.557  67.637  19.414  0.00  0.00    -0.201 NA
ATOM      3  C   LIG    1      -37.419  68.198  20.295  0.00  0.00    +0.145 A 
ATOM      4  C   LIG    1      -37.471  67.920  21.648  0.00  0.00    +0.105 A 
ATOM      5  C   LIG    1      -36.491  67.010  22.032  0.00  0.00    +0.145 A 
ATOM      6  N   LIG    1      -35.623  66.373  21.199  0.00  0.00    -0.201 NA
ENDROOT
BRANCH   4   7
ATOM      7  N   LIG    1      -38.419  68.561  22.475  0.00  0.00    -0.196 NA
ATOM      8  C   LIG    1      -38.070  69.574  23.210  0.00  0.00    +0.285 C 
BRANCH   8   9
ATOM      9  N   LIG    1      -38.792  70.317  24.094  0.00  0.00    -0.267 N 
ATOM     10  H   LIG    1      -38.920  69.932  25.025  0.00  0.00    +0.157 HD
BRANCH   9  11
ATOM     11  C   LIG    1      -39.422  71.571  23.958  0.00  0.00    +0.070 A 
ATOM     12  C   LIG    1      -38.751  72.706  24.452  0.00  0.00    +0.145 A 
ATOM     13  F   LIG    1      -37.524  72.553  24.980  0.00  0.00    -0.204 F 
ATOM     14  C   LIG    1      -39.315  73.983  24.445  0.00  0.00    +0.052 A 
ATOM     15  C   LIG    1      -40.594  74.169  23.909  0.00  0.00    +0.058 A 
ATOM     16  C   LIG    1      -41.277  73.046  23.412  0.00  0.00    +0.014 A 
ATOM     17  C   LIG    1      -40.711  71.759  23.466  0.00  0.00    +0.027 A 
BRANCH  15  18
ATOM     18  C   LIG    1      -41.229  75.540  23.884  0.00  0.00    +0.418 C 
ATOM     19  F   LIG    1      -42.305  75.606  23.052  0.00  0.00    -0.166 F 
ATOM     20  F   LIG    1      -40.368  76.504  23.460  0.00  0.00    -0.166 F 
ATOM     21  F   LIG    1      -41.676  75.951  25.104  0.00  0.00    -0.166 F 
ENDBRANCH  15  18
ENDBRANCH   9  11
ENDBRANCH   8   9
BRANCH   8  22
ATOM     22  O   LIG    1      -36.803  70.016  23.169  0.00  0.00    -0.481 OA
ATOM     23  H   LIG    1      -36.219  69.382  22.707  0.00  0.00    +0.295 HD
ENDBRANCH   8  22
ENDBRANCH   4   7
BRANCH   1  24
ATOM     24  O   LIG    1      -34.850  66.044  19.023  0.00  0.00    -0.424 OA
BRANCH  24  28
ATOM     25  C   LIG    1      -30.848  67.400  18.643  0.00  0.00    -0.014 A 
ATOM     26  C   LIG    1      -31.239  66.450  19.608  0.00  0.00    +0.012 A 
ATOM     27  C   LIG    1      -32.570  66.011  19.733  0.00  0.00    +0.047 A 
ATOM     28  C   LIG    1      -33.561  66.529  18.898  0.00  0.00    +0.132 A 
ATOM     29  C   LIG    1      -33.187  67.459  17.929  0.00  0.00    +0.047 A 
ATOM     30  C   LIG    1      -31.864  67.901  17.816  0.00  0.00    +0.012 A 
BRANCH  25  32
ATOM     31  C   LIG    1      -28.912  69.089  18.771  0.00  0.00    +0.124 A 
ATOM     32  C   LIG    1      -29.420  67.801  18.494  0.00  0.00    +0.023 A 
ATOM     33  C   LIG    1      -28.474  66.855  18.045  0.00  0.00    +0.033 A 
ATOM     34  C   LIG    1      -27.136  67.193  17.890  0.00  0.00    +0.060 A 
ATOM     35 CL   LIG    1      -25.990  66.024  17.375  0.00  0.00    -0.082 Cl
ATOM     36  C   LIG    1      -26.760  68.490  18.165  0.00  0.00    +0.133 A 
ATOM     37  N   LIG    1      -27.618  69.441  18.598  0.00  0.00    -0.239 NA
BRANCH  31  38
ATOM     38  N   LIG    1      -29.701  70.127  19.261  0.00  0.00    -0.343 N 
ATOM     39  H   LIG    1      -29.791  70.065  20.270  0.00  0.00    +0.144 HD
ATOM     40  H   LIG    1      -29.254  70.995  18.974  0.00  0.00    +0.144 HD
ENDBRANCH  31  38
ENDBRANCH  25  32
ENDBRANCH  24  28
ENDBRANCH   1  24
TORSDOF 9
ENDMDL
MODEL 3
REMARK VINA RESULT:      -6.4     20.645     24.506
REMARK  Name = pdb/CHEMBL3900303.pdb
REMARK                            x       y       z     vdW  Elec       q    Type
REMARK                         _______ _______ _______ _____ _____    ______ ____
ROOT
ATOM      1  C   LIG    1      -22.486  88.816  11.067  0.00  0.00    +0.323 A 
ATOM      2  N   LIG    1      -22.961  87.619  10.675  0.00  0.00    -0.201 NA
ATOM      3  C   LIG    1      -22.547  86.540  11.381  0.00  0.00    +0.145 A 
ATOM      4  C   LIG    1      -21.717  86.578  12.486  0.00  0.00    +0.105 A 
ATOM      5  C   LIG    1      -21.374  87.881  12.835  0.00  0.00    +0.145 A 
ATOM      6  N   LIG    1      -21.713  89.007  12.149  0.00  0.00    -0.201 NA
ENDROOT
BRANCH   4   7
ATOM      7  N   LIG    1      -21.343  85.387  13.144  0.00  0.00    -0.196 NA
ATOM      8  C   LIG    1      -21.976  84.999  14.210  0.00  0.00    +0.285 C 
BRANCH   8   9
ATOM      9  N   LIG    1      -21.775  83.920  15.016  0.00  0.00    -0.267 N 
ATOM     10  H   LIG    1      -20.988  83.960  15.655  0.00  0.00    +0.157 HD
BRANCH   9  11
ATOM     11  C   LIG    1      -22.481  82.705  15.137  0.00  0.00    +0.070 A 
ATOM     12  C   LIG    1      -21.928  81.695  15.947  0.00  0.00    +0.145 A 
ATOM     13  F   LIG    1      -20.785  81.951  16.608  0.00  0.00    -0.204 F 
ATOM     14  C   LIG    1      -22.496  80.427  16.073  0.00  0.00    +0.052 A 
ATOM     15  C   LIG    1      -23.681  80.132  15.389  0.00  0.00    +0.058 A 
ATOM     16  C   LIG    1      -24.246  81.128  14.577  0.00  0.00    +0.014 A 
ATOM     17  C   LIG    1      -23.637  82.387  14.426  0.00  0.00    +0.027 A 
BRANCH  15  18
ATOM     18  C   LIG    1      -24.322  78.768  15.510  0.00  0.00    +0.418 C 
ATOM     19  F   LIG    1      -24.970  78.390  14.373  0.00  0.00    -0.166 F 
ATOM     20  F   LIG    1      -25.249  78.716  16.504  0.00  0.00    -0.166 F 
ATOM     21  F   LIG    1      -23.431  77.774  15.778  0.00  0.00    -0.166 F 
ENDBRANCH  15  18
ENDBRANCH   9  11
ENDBRANCH   8   9
BRANCH   8  22
ATOM     22  O   LIG    1      -22.999  85.733  14.676  0.00  0.00    -0.481 OA
ATOM     23  H   LIG    1      -23.848  85.255  14.593  0.00  0.00    +0.295 HD
ENDBRANCH   8  22
ENDBRANCH   4   7
BRANCH   1  24
ATOM     24  O   LIG    1      -22.825  89.957  10.333  0.00  0.00    -0.424 OA
BRANCH  24  28
ATOM     25  C   LIG    1      -25.855  92.417  11.998  0.00  0.00    -0.014 A 
ATOM     26  C   LIG    1      -25.817  91.021  12.194  0.00  0.00    +0.012 A 
ATOM     27  C   LIG    1      -24.813  90.211  11.632  0.00  0.00    +0.047 A 
ATOM     28  C   LIG    1      -23.818  90.778  10.835  0.00  0.00    +0.132 A 
ATOM     29  C   LIG    1      -23.834  92.160  10.643  0.00  0.00    +0.047 A 
ATOM     30  C   LIG    1      -24.841  92.960  11.196  0.00  0.00    +0.012 A 
BRANCH  25  32
ATOM     31  C   LIG    1      -28.248  93.322  12.257  0.00  0.00    +0.124 A 
ATOM     32  C   LIG    1      -26.896  93.256  12.655  0.00  0.00    +0.023 A 
ATOM     33  C   LIG    1      -26.545  94.062  13.760  0.00  0.00    +0.033 A 
ATOM     34  C   LIG    1      -27.487  94.861  14.395  0.00  0.00    +0.060 A 
ATOM     35 CL   LIG    1      -27.055  95.811  15.758  0.00  0.00    -0.082 Cl
ATOM     36  C   LIG    1      -28.774  94.864  13.900  0.00  0.00    +0.133 A 
ATOM     37  N   LIG    1      -29.170  94.116  12.846  0.00  0.00    -0.239 NA
BRANCH  31  38
ATOM     38  N   LIG    1      -28.769  92.561  11.212  0.00  0.00    -0.343 N 
ATOM     39  H   LIG    1      -28.055  92.366  10.518  0.00  0.00    +0.144 HD
ATOM     40  H   LIG    1      -29.136  91.707  11.628  0.00  0.00    +0.144 HD
ENDBRANCH  31  38
ENDBRANCH  25  32
ENDBRANCH  24  28
ENDBRANCH   1  24
TORSDOF 9
ENDMDL
MODEL 4
REMARK VINA RESULT:      -6.3     19.952     22.308
REMARK  Name = pdb/CHEMBL3900303.pdb
REMARK                            x       y       z     vdW  Elec       q    Type
REMARK                         _______ _______ _______ _____ _____    ______ ____
ROOT
ATOM      1  C   LIG    1      -32.410  93.862  23.381  0.00  0.00    +0.323 A 
ATOM      2  N   LIG    1      -33.281  94.289  24.315  0.00  0.00    -0.201 NA
ATOM      3  C   LIG    1      -33.374  93.548  25.444  0.00  0.00    +0.145 A 
ATOM      4  C   LIG    1      -32.622  92.423  25.726  0.00  0.00    +0.105 A 
ATOM      5  C   LIG    1      -31.702  92.145  24.719  0.00  0.00    +0.145 A 
ATOM      6  N   LIG    1      -31.582  92.816  23.540  0.00  0.00    -0.201 NA
ENDROOT
BRANCH   4   7
ATOM      7  N   LIG    1      -32.807  91.721  26.936  0.00  0.00    -0.196 NA
ATOM      8  C   LIG    1      -33.713  90.793  27.024  0.00  0.00    +0.285 C 
BRANCH   8   9
ATOM      9  N   LIG    1      -34.086  90.018  28.080  0.00  0.00    -0.267 N 
ATOM     10  H   LIG    1      -35.052  90.086  28.384  0.00  0.00    +0.157 HD
BRANCH   9  11
ATOM     11  C   LIG    1      -33.357  89.101  28.865  0.00  0.00    +0.070 A 
ATOM     12  C   LIG    1      -33.696  87.738  28.777  0.00  0.00    +0.145 A 
ATOM     13  F   LIG    1      -34.658  87.365  27.914  0.00  0.00    -0.204 F 
ATOM     14  C   LIG    1      -33.098  86.755  29.567  0.00  0.00    +0.052 A 
ATOM     15  C   LIG    1      -32.100  87.117  30.480  0.00  0.00    +0.058 A 
ATOM     16  C   LIG    1      -31.750  88.473  30.579  0.00  0.00    +0.014 A 
ATOM     17  C   LIG    1      -32.393  89.457  29.806  0.00  0.00    +0.027 A 
BRANCH  15  18
ATOM     18  C   LIG    1      -31.431  86.074  31.346  0.00  0.00    +0.418 C 
ATOM     19  F   LIG    1      -32.236  85.632  32.352  0.00  0.00    -0.166 F 
ATOM     20  F   LIG    1      -30.304  86.543  31.947  0.00  0.00    -0.166 F 
ATOM     21  F   LIG    1      -31.051  84.962  30.657  0.00  0.00    -0.166 F 
ENDBRANCH  15  18
ENDBRANCH   9  11
ENDBRANCH   8   9
BRANCH   8  22
ATOM     22  O   LIG    1      -34.463  90.496  25.952  0.00  0.00    -0.481 OA
ATOM     23  H   LIG    1      -35.351  90.903  26.014  0.00  0.00    +0.295 HD
ENDBRANCH   8  22
ENDBRANCH   4   7
BRANCH   1  24
ATOM     24  O   LIG    1      -32.321  94.549  22.167  0.00  0.00    -0.424 OA
BRANCH  24  28
ATOM     25  C   LIG    1      -33.096  92.360  18.616  0.00  0.00    -0.014 A 
ATOM     26  C   LIG    1      -31.899  93.076  18.821  0.00  0.00    +0.012 A 
ATOM     27  C   LIG    1      -31.653  93.806  19.998  0.00  0.00    +0.047 A 
ATOM     28  C   LIG    1      -32.614  93.855  21.007  0.00  0.00    +0.132 A 
ATOM     29  C   LIG    1      -33.799  93.141  20.826  0.00  0.00    +0.047 A 
ATOM     30  C   LIG    1      -34.043  92.425  19.648  0.00  0.00    +0.012 A 
BRANCH  25  32
ATOM     31  C   LIG    1      -33.632  92.074  16.117  0.00  0.00    +0.124 A 
ATOM     32  C   LIG    1      -33.304  91.547  17.385  0.00  0.00    +0.023 A 
ATOM     33  C   LIG    1      -33.175  90.143  17.448  0.00  0.00    +0.033 A 
ATOM     34  C   LIG    1      -33.366  89.352  16.322  0.00  0.00    +0.060 A 
ATOM     35 CL   LIG    1      -33.173  87.649  16.405  0.00  0.00    -0.082 Cl
ATOM     36  C   LIG    1      -33.710  89.976  15.142  0.00  0.00    +0.133 A 
ATOM     37  N   LIG    1      -33.848  91.316  15.019  0.00  0.00    -0.239 NA
BRANCH  31  38
ATOM     38  N   LIG    1      -33.756  93.440  15.872  0.00  0.00    -0.343 N 
ATOM     39  H   LIG    1      -34.531  93.623  15.243  0.00  0.00    +0.144 HD
ATOM     40  H   LIG    1      -33.889  93.888  16.776  0.00  0.00    +0.144 HD
ENDBRANCH  31  38
ENDBRANCH  25  32
ENDBRANCH  24  28
ENDBRANCH   1  24
TORSDOF 9
ENDMDL
MODEL 5
REMARK VINA RESULT:      -6.3     17.568     20.069
REMARK  Name = pdb/CHEMBL3900303.pdb
REMARK                            x       y       z     vdW  Elec       q    Type
REMARK                         _______ _______ _______ _____ _____    ______ ____
ROOT
ATOM      1  C   LIG    1      -25.989  81.008  36.929  0.00  0.00    +0.323 A 
ATOM      2  N   LIG    1      -25.260  82.136  36.835  0.00  0.00    -0.201 NA
ATOM      3  C   LIG    1      -25.946  83.304  36.818  0.00  0.00    +0.145 A 
ATOM      4  C   LIG    1      -27.318  83.426  36.931  0.00  0.00    +0.105 A 
ATOM      5  C   LIG    1      -27.939  82.194  37.110  0.00  0.00    +0.145 A 
ATOM      6  N   LIG    1      -27.323  80.980  37.092  0.00  0.00    -0.201 NA
ENDROOT
BRANCH   4   7
ATOM      7  N   LIG    1      -27.930  84.698  36.894  0.00  0.00    -0.196 NA
ATOM      8  C   LIG    1      -28.388  85.174  35.775  0.00  0.00    +0.285 C 
BRANCH   8   9
ATOM      9  N   LIG    1      -28.978  86.369  35.496  0.00  0.00    -0.267 N 
ATOM     10  H   LIG    1      -29.103  87.014  36.270  0.00  0.00    +0.157 HD
BRANCH   9  11
ATOM     11  C   LIG    1      -29.471  86.904  34.288  0.00  0.00    +0.070 A 
ATOM     12  C   LIG    1      -30.745  86.495  33.854  0.00  0.00    +0.145 A 
ATOM     13  F   LIG    1      -31.455  85.658  34.632  0.00  0.00    -0.204 F 
ATOM     14  C   LIG    1      -31.297  86.895  32.636  0.00  0.00    +0.052 A 
ATOM     15  C   LIG    1      -30.576  87.759  31.803  0.00  0.00    +0.058 A 
ATOM     16  C   LIG    1      -29.302  88.177  32.222  0.00  0.00    +0.014 A 
ATOM     17  C   LIG    1      -28.743  87.729  33.433  0.00  0.00    +0.027 A 
BRANCH  15  18
ATOM     18  C   LIG    1      -31.148  88.213  30.480  0.00  0.00    +0.418 C 
ATOM     19  F   LIG    1      -30.227  88.204  29.478  0.00  0.00    -0.166 F 
ATOM     20  F   LIG    1      -31.633  89.483  30.532  0.00  0.00    -0.166 F 
ATOM     21  F   LIG    1      -32.180  87.437  30.044  0.00  0.00    -0.166 F 
ENDBRANCH  15  18
ENDBRANCH   9  11
ENDBRANCH   8   9
BRANCH   8  22
ATOM     22  O   LIG    1      -28.287  84.442  34.654  0.00  0.00    -0.481 OA
ATOM     23  H   LIG    1      -27.858  84.948  33.935  0.00  0.00    +0.295 HD
ENDBRANCH   8  22
ENDBRANCH   4   7
BRANCH   1  24
ATOM     24  O   LIG    1      -25.339  79.771  36.882  0.00  0.00    -0.424 OA
BRANCH  24  28
ATOM     25  C   LIG    1      -23.978  78.296  33.144  0.00  0.00    -0.014 A 
ATOM     26  C   LIG    1      -23.255  79.246  33.895  0.00  0.00    +0.012 A 
ATOM     27  C   LIG    1      -23.717  79.735  35.130  0.00  0.00    +0.047 A 
ATOM     28  C   LIG    1      -24.937  79.298  35.647  0.00  0.00    +0.132 A 
ATOM     29  C   LIG    1      -25.658  78.348  34.923  0.00  0.00    +0.047 A 
ATOM     30  C   LIG    1      -25.198  77.872  33.689  0.00  0.00    +0.012 A 
BRANCH  25  32
ATOM     31  C   LIG    1      -24.055  77.881  30.607  0.00  0.00    +0.124 A 
ATOM     32  C   LIG    1      -23.435  77.751  31.868  0.00  0.00    +0.023 A 
ATOM     33  C   LIG    1      -22.213  77.044  31.878  0.00  0.00    +0.033 A 
ATOM     34  C   LIG    1      -21.677  76.518  30.709  0.00  0.00    +0.060 A 
ATOM     35 CL   LIG    1      -20.175  75.689  30.729  0.00  0.00    -0.082 Cl
ATOM     36  C   LIG    1      -22.387  76.684  29.539  0.00  0.00    +0.133 A 
ATOM     37  N   LIG    1      -23.561  77.350  29.466  0.00  0.00    -0.239 NA
BRANCH  31  38
ATOM     38  N   LIG    1      -25.243  78.582  30.415  0.00  0.00    -0.343 N 
ATOM     39  H   LIG    1      -26.001  77.950  30.179  0.00  0.00    +0.144 HD
ATOM     40  H   LIG    1      -25.428  79.088  31.279  0.00  0.00    +0.144 HD
ENDBRANCH  31  38
ENDBRANCH  25  32
ENDBRANCH  24  28
ENDBRANCH   1  24
TORSDOF 9
ENDMDL
MODEL 6
REMARK VINA RESULT:      -6.1      1.881      2.393
REMARK  Name = pdb/CHEMBL3900303.pdb
REMARK                            x       y       z     vdW  Elec       q    Type
REMARK                         _______ _______ _______ _____ _____    ______ ____
ROOT
ATOM      1  C   LIG    1      -36.548  66.901  19.730  0.00  0.00    +0.323 A 
ATOM      2  N   LIG    1      -37.112  66.272  20.777  0.00  0.00    -0.201 NA
ATOM      3  C   LIG    1      -37.852  67.033  21.618  0.00  0.00    +0.145 A 
ATOM      4  C   LIG    1      -38.103  68.384  21.461  0.00  0.00    +0.105 A 
ATOM      5  C   LIG    1      -37.536  68.888  20.294  0.00  0.00    +0.145 A 
ATOM      6  N   LIG    1      -36.745  68.196  19.428  0.00  0.00    -0.201 NA
ENDROOT
BRANCH   4   7
ATOM      7  N   LIG    1      -38.884  69.083  22.406  0.00  0.00    -0.196 NA
ATOM      8  C   LIG    1      -40.080  69.488  22.098  0.00  0.00    +0.285 C 
BRANCH   8   9
ATOM      9  N   LIG    1      -40.989  70.195  22.824  0.00  0.00    -0.267 N 
ATOM     10  H   LIG    1      -41.756  69.675  23.238  0.00  0.00    +0.157 HD
BRANCH   9  11
ATOM     11  C   LIG    1      -41.074  71.571  23.122  0.00  0.00    +0.070 A 
ATOM     12  C   LIG    1      -42.146  72.302  22.577  0.00  0.00    +0.145 A 
ATOM     13  F   LIG    1      -43.066  71.651  21.844  0.00  0.00    -0.204 F 
ATOM     14  C   LIG    1      -42.283  73.682  22.738  0.00  0.00    +0.052 A 
ATOM     15  C   LIG    1      -41.335  74.386  23.490  0.00  0.00    +0.058 A 
ATOM     16  C   LIG    1      -40.259  73.670  24.041  0.00  0.00    +0.014 A 
ATOM     17  C   LIG    1      -40.112  72.287  23.833  0.00  0.00    +0.027 A 
BRANCH  15  18
ATOM     18  C   LIG    1      -41.458  75.879  23.685  0.00  0.00    +0.418 C 
ATOM     19  F   LIG    1      -41.808  76.216  24.957  0.00  0.00    -0.166 F 
ATOM     20  F   LIG    1      -42.404  76.433  22.878  0.00  0.00    -0.166 F 
ATOM     21  F   LIG    1      -40.305  76.555  23.425  0.00  0.00    -0.166 F 
ENDBRANCH  15  18
ENDBRANCH   9  11
ENDBRANCH   8   9
BRANCH   8  22
ATOM     22  O   LIG    1      -40.573  69.226  20.878  0.00  0.00    -0.481 OA
ATOM     23  H   LIG    1      -41.527  69.015  20.917  0.00  0.00    +0.295 HD
ENDBRANCH   8  22
ENDBRANCH   4   7
BRANCH   1  24
ATOM     24  O   LIG    1      -35.718  66.179  18.867  0.00  0.00    -0.424 OA
BRANCH  24  28
ATOM     25  C   LIG    1      -31.624  67.256  18.589  0.00  0.00    -0.014 A 
ATOM     26  C   LIG    1      -32.172  66.643  19.735  0.00  0.00    +0.012 A 
ATOM     27  C   LIG    1      -33.532  66.297  19.822  0.00  0.00    +0.047 A 
ATOM     28  C   LIG    1      -34.397  66.570  18.761  0.00  0.00    +0.132 A 
ATOM     29  C   LIG    1      -33.867  67.163  17.615  0.00  0.00    +0.047 A 
ATOM     30  C   LIG    1      -32.515  67.517  17.537  0.00  0.00    +0.012 A 
BRANCH  25  32
ATOM     31  C   LIG    1      -29.597  68.835  18.689  0.00  0.00    +0.124 A 
ATOM     32  C   LIG    1      -30.167  67.558  18.502  0.00  0.00    +0.023 A 
ATOM     33  C   LIG    1      -29.257  66.519  18.210  0.00  0.00    +0.033 A 
ATOM     34  C   LIG    1      -27.893  66.763  18.117  0.00  0.00    +0.060 A 
ATOM     35 CL   LIG    1      -26.794  65.484  17.795  0.00  0.00    -0.082 Cl
ATOM     36  C   LIG    1      -27.453  68.057  18.293  0.00  0.00    +0.133 A 
ATOM     37  N   LIG    1      -28.274  69.094  18.573  0.00  0.00    -0.239 NA
BRANCH  31  38
ATOM     38  N   LIG    1      -30.347  69.960  19.022  0.00  0.00    -0.343 N 
ATOM     39  H   LIG    1      -30.655  70.448  18.187  0.00  0.00    +0.144 HD
ATOM     40  H   LIG    1      -31.133  69.633  19.580  0.00  0.00    +0.144 HD
ENDBRANCH  31  38
ENDBRANCH  25  32
ENDBRANCH  24  28
ENDBRANCH   1  24
TORSDOF 9
ENDMDL
MODEL 7
REMARK VINA RESULT:      -6.0     14.166     17.918
REMARK  Name = pdb/CHEMBL3900303.pdb
REMARK                            x       y       z     vdW  Elec       q    Type
REMARK                         _______ _______ _______ _____ _____    ______ ____
ROOT
ATOM      1  C   LIG    1      -28.489  74.940  32.097  0.00  0.00    +0.323 A 
ATOM      2  N   LIG    1      -28.408  76.282  32.025  0.00  0.00    -0.201 NA
ATOM      3  C   LIG    1      -27.166  76.813  31.941  0.00  0.00    +0.145 A 
ATOM      4  C   LIG    1      -25.990  76.089  31.881  0.00  0.00    +0.105 A 
ATOM      5  C   LIG    1      -26.222  74.717  31.874  0.00  0.00    +0.145 A 
ATOM      6  N   LIG    1      -27.435  74.112  32.001  0.00  0.00    -0.201 NA
ENDROOT
BRANCH   4   7
ATOM      7  N   LIG    1      -24.745  76.750  31.801  0.00  0.00    -0.196 NA
ATOM      8  C   LIG    1      -24.344  77.262  30.676  0.00  0.00    +0.285 C 
BRANCH   8   9
ATOM      9  N   LIG    1      -23.187  77.906  30.359  0.00  0.00    -0.267 N 
ATOM     10  H   LIG    1      -23.270  78.843  29.975  0.00  0.00    +0.157 HD
BRANCH   9  11
ATOM     11  C   LIG    1      -21.840  77.504  30.463  0.00  0.00    +0.070 A 
ATOM     12  C   LIG    1      -21.162  77.768  31.668  0.00  0.00    +0.145 A 
ATOM     13  F   LIG    1      -21.840  78.340  32.679  0.00  0.00    -0.204 F 
ATOM     14  C   LIG    1      -19.807  77.488  31.853  0.00  0.00    +0.052 A 
ATOM     15  C   LIG    1      -19.076  76.900  30.815  0.00  0.00    +0.058 A 
ATOM     16  C   LIG    1      -19.738  76.630  29.606  0.00  0.00    +0.014 A 
ATOM     17  C   LIG    1      -21.094  76.958  29.421  0.00  0.00    +0.027 A 
BRANCH  15  18
ATOM     18  C   LIG    1      -17.609  76.582  30.987  0.00  0.00    +0.418 C 
ATOM     19  F   LIG    1      -17.381  75.666  31.969  0.00  0.00    -0.166 F 
ATOM     20  F   LIG    1      -16.875  77.679  31.320  0.00  0.00    -0.166 F 
ATOM     21  F   LIG    1      -17.031  76.075  29.863  0.00  0.00    -0.166 F 
ENDBRANCH  15  18
ENDBRANCH   9  11
ENDBRANCH   8   9
BRANCH   8  22
ATOM     22  O   LIG    1      -25.129  77.171  29.592  0.00  0.00    -0.481 OA
ATOM     23  H   LIG    1      -25.212  76.245  29.288  0.00  0.00    +0.295 HD
ENDBRANCH   8  22
ENDBRANCH   4   7
BRANCH   1  24
ATOM     24  O   LIG    1      -29.742  74.340  32.254  0.00  0.00    -0.424 OA
BRANCH  24  28
ATOM     25  C   LIG    1      -32.923  75.899  29.919  0.00  0.00    -0.014 A 
ATOM     26  C   LIG    1      -32.794  76.160  31.299  0.00  0.00    +0.012 A 
ATOM     27  C   LIG    1      -31.741  75.633  32.067  0.00  0.00    +0.047 A 
ATOM     28  C   LIG    1      -30.785  74.807  31.476  0.00  0.00    +0.132 A 
ATOM     29  C   LIG    1      -30.890  74.550  30.108  0.00  0.00    +0.047 A 
ATOM     30  C   LIG    1      -31.946  75.068  29.350  0.00  0.00    +0.012 A 
BRANCH  25  32
ATOM     31  C   LIG    1      -33.913  77.750  28.433  0.00  0.00    +0.124 A 
ATOM     32  C   LIG    1      -34.015  76.520  29.118  0.00  0.00    +0.023 A 
ATOM     33  C   LIG    1      -35.261  75.864  29.013  0.00  0.00    +0.033 A 
ATOM     34  C   LIG    1      -36.304  76.414  28.279  0.00  0.00    +0.060 A 
ATOM     35 CL   LIG    1      -37.802  75.591  28.133  0.00  0.00    -0.082 Cl
ATOM     36  C   LIG    1      -36.097  77.636  27.674  0.00  0.00    +0.133 A 
ATOM     37  N   LIG    1      -34.928  78.312  27.738  0.00  0.00    -0.239 NA
BRANCH  31  38
ATOM     38  N   LIG    1      -32.743  78.504  28.399  0.00  0.00    -0.343 N 
ATOM     39  H   LIG    1      -32.503  78.754  27.445  0.00  0.00    +0.144 HD
ATOM     40  H   LIG    1      -32.909  79.327  28.975  0.00  0.00    +0.144 HD
ENDBRANCH  31  38
ENDBRANCH  25  32
ENDBRANCH  24  28
ENDBRANCH   1  24
TORSDOF 9
ENDMDL
MODEL 8
REMARK VINA RESULT:      -6.0      2.129      3.106
REMARK  Name = pdb/CHEMBL3900303.pdb
REMARK                            x       y       z     vdW  Elec       q    Type
REMARK                         _______ _______ _______ _____ _____    ______ ____
ROOT
ATOM      1  C   LIG    1      -34.712  66.847  18.610  0.00  0.00    +0.323 A 
ATOM      2  N   LIG    1      -35.751  67.616  18.233  0.00  0.00    -0.201 NA
ATOM      3  C   LIG    1      -36.713  67.837  19.160  0.00  0.00    +0.145 A 
ATOM      4  C   LIG    1      -36.688  67.373  20.462  0.00  0.00    +0.105 A 
ATOM      5  C   LIG    1      -35.520  66.670  20.744  0.00  0.00    +0.145 A 
ATOM      6  N   LIG    1      -34.535  66.371  19.854  0.00  0.00    -0.201 NA
ENDROOT
BRANCH   4   7
ATOM      7  N   LIG    1      -37.752  67.659  21.345  0.00  0.00    -0.196 NA
ATOM      8  C   LIG    1      -37.594  68.519  22.307  0.00  0.00    +0.285 C 
BRANCH   8   9
ATOM      9  N   LIG    1      -38.453  68.924  23.282  0.00  0.00    -0.267 N 
ATOM     10  H   LIG    1      -38.620  68.279  24.048  0.00  0.00    +0.157 HD
BRANCH   9  11
ATOM     11  C   LIG    1      -39.188  70.117  23.438  0.00  0.00    +0.070 A 
ATOM     12  C   LIG    1      -40.394  70.251  22.724  0.00  0.00    +0.145 A 
ATOM     13  F   LIG    1      -40.816  69.219  21.971  0.00  0.00    -0.204 F 
ATOM     14  C   LIG    1      -41.158  71.418  22.739  0.00  0.00    +0.052 A 
ATOM     15  C   LIG    1      -40.737  72.509  23.507  0.00  0.00    +0.058 A 
ATOM     16  C   LIG    1      -39.536  72.392  24.226  0.00  0.00    +0.014 A 
ATOM     17  C   LIG    1      -38.755  71.224  24.166  0.00  0.00    +0.027 A 
BRANCH  15  18
ATOM     18  C   LIG    1      -41.546  73.785  23.545  0.00  0.00    +0.418 C 
ATOM     19  F   LIG    1      -42.247  73.928  24.704  0.00  0.00    -0.166 F 
ATOM     20  F   LIG    1      -42.464  73.849  22.543  0.00  0.00    -0.166 F 
ATOM     21  F   LIG    1      -40.787  74.910  23.428  0.00  0.00    -0.166 F 
ENDBRANCH  15  18
ENDBRANCH   9  11
ENDBRANCH   8   9
BRANCH   8  22
ATOM     22  O   LIG    1      -36.415  69.144  22.448  0.00  0.00    -0.481 OA
ATOM     23  H   LIG    1      -36.067  69.047  23.357  0.00  0.00    +0.295 HD
ENDBRANCH   8  22
ENDBRANCH   4   7
BRANCH   1  24
ATOM     24  O   LIG    1      -33.724  66.530  17.673  0.00  0.00    -0.424 OA
BRANCH  24  28
ATOM     25  C   LIG    1      -29.911  68.370  17.945  0.00  0.00    -0.014 A 
ATOM     26  C   LIG    1      -30.134  67.028  18.314  0.00  0.00    +0.012 A 
ATOM     27  C   LIG    1      -31.403  66.427  18.228  0.00  0.00    +0.047 A 
ATOM     28  C   LIG    1      -32.501  67.165  17.782  0.00  0.00    +0.132 A 
ATOM     29  C   LIG    1      -32.293  68.490  17.400  0.00  0.00    +0.047 A 
ATOM     30  C   LIG    1      -31.031  69.086  17.497  0.00  0.00    +0.012 A 
BRANCH  25  32
ATOM     31  C   LIG    1      -28.074  69.829  18.999  0.00  0.00    +0.124 A 
ATOM     32  C   LIG    1      -28.544  68.962  17.990  0.00  0.00    +0.023 A 
ATOM     33  C   LIG    1      -27.621  68.660  16.965  0.00  0.00    +0.033 A 
ATOM     34  C   LIG    1      -26.339  69.196  16.971  0.00  0.00    +0.060 A 
ATOM     35 CL   LIG    1      -25.216  68.794  15.738  0.00  0.00    -0.082 Cl
ATOM     36  C   LIG    1      -26.001  70.054  17.995  0.00  0.00    +0.133 A 
ATOM     37  N   LIG    1      -26.840  70.382  19.004  0.00  0.00    -0.239 NA
BRANCH  31  38
ATOM     38  N   LIG    1      -28.842  70.196  20.102  0.00  0.00    -0.343 N 
ATOM     39  H   LIG    1      -28.558  69.676  20.926  0.00  0.00    +0.144 HD
ATOM     40  H   LIG    1      -28.716  71.199  20.226  0.00  0.00    +0.144 HD
ENDBRANCH  31  38
ENDBRANCH  25  32
ENDBRANCH  24  28
ENDBRANCH   1  24
TORSDOF 9
ENDMDL
MODEL 9
REMARK VINA RESULT:      -6.0     14.966     18.994
REMARK  Name = pdb/CHEMBL3900303.pdb
REMARK                            x       y       z     vdW  Elec       q    Type
REMARK                         _______ _______ _______ _____ _____    ______ ____
ROOT
ATOM      1  C   LIG    1      -34.123  83.975  29.946  0.00  0.00    +0.323 A 
ATOM      2  N   LIG    1      -33.276  83.769  30.971  0.00  0.00    -0.201 NA
ATOM      3  C   LIG    1      -32.222  84.613  31.069  0.00  0.00    +0.145 A 
ATOM      4  C   LIG    1      -31.976  85.685  30.231  0.00  0.00    +0.105 A 
ATOM      5  C   LIG    1      -32.974  85.836  29.272  0.00  0.00    +0.145 A 
ATOM      6  N   LIG    1      -34.034  85.003  29.085  0.00  0.00    -0.201 NA
ENDROOT
BRANCH   4   7
ATOM      7  N   LIG    1      -30.839  86.498  30.422  0.00  0.00    -0.196 NA
ATOM      8  C   LIG    1      -30.862  87.466  31.289  0.00  0.00    +0.285 C 
BRANCH   8   9
ATOM      9  N   LIG    1      -29.912  88.385  31.616  0.00  0.00    -0.267 N 
ATOM     10  H   LIG    1      -29.607  89.016  30.881  0.00  0.00    +0.157 HD
BRANCH   9  11
ATOM     11  C   LIG    1      -29.241  88.638  32.830  0.00  0.00    +0.070 A 
ATOM     12  C   LIG    1      -29.251  89.953  33.330  0.00  0.00    +0.145 A 
ATOM     13  F   LIG    1      -29.939  90.895  32.660  0.00  0.00    -0.204 F 
ATOM     14  C   LIG    1      -28.553  90.334  34.477  0.00  0.00    +0.052 A 
ATOM     15  C   LIG    1      -27.822  89.376  35.189  0.00  0.00    +0.058 A 
ATOM     16  C   LIG    1      -27.802  88.059  34.703  0.00  0.00    +0.014 A 
ATOM     17  C   LIG    1      -28.476  87.701  33.521  0.00  0.00    +0.027 A 
BRANCH  15  18
ATOM     18  C   LIG    1      -27.059  89.758  36.437  0.00  0.00    +0.418 C 
ATOM     19  F   LIG    1      -26.678  88.676  37.171  0.00  0.00    -0.166 F 
ATOM     20  F   LIG    1      -27.791  90.540  37.275  0.00  0.00    -0.166 F 
ATOM     21  F   LIG    1      -25.916  90.454  36.180  0.00  0.00    -0.166 F 
ENDBRANCH  15  18
ENDBRANCH   9  11
ENDBRANCH   8   9
BRANCH   8  22
ATOM     22  O   LIG    1      -31.972  87.680  32.012  0.00  0.00    -0.481 OA
ATOM     23  H   LIG    1      -32.743  87.861  31.437  0.00  0.00    +0.295 HD
ENDBRANCH   8  22
ENDBRANCH   4   7
BRANCH   1  24
ATOM     24  O   LIG    1      -35.191  83.092  29.756  0.00  0.00    -0.424 OA
BRANCH  24  28
ATOM     25  C   LIG    1      -34.401  79.021  28.860  0.00  0.00    -0.014 A 
ATOM     26  C   LIG    1      -34.771  79.457  30.149  0.00  0.00    +0.012 A 
ATOM     27  C   LIG    1      -35.023  80.810  30.440  0.00  0.00    +0.047 A 
ATOM     28  C   LIG    1      -34.895  81.778  29.443  0.00  0.00    +0.132 A 
ATOM     29  C   LIG    1      -34.544  81.361  28.159  0.00  0.00    +0.047 A 
ATOM     30  C   LIG    1      -34.284  80.014  27.878  0.00  0.00    +0.012 A 
BRANCH  25  32
ATOM     31  C   LIG    1      -35.047  76.789  27.757  0.00  0.00    +0.124 A 
ATOM     32  C   LIG    1      -34.199  77.574  28.568  0.00  0.00    +0.023 A 
ATOM     33  C   LIG    1      -33.091  76.899  29.126  0.00  0.00    +0.033 A 
ATOM     34  C   LIG    1      -32.872  75.550  28.879  0.00  0.00    +0.060 A 
ATOM     35 CL   LIG    1      -31.504  74.750  29.537  0.00  0.00    -0.082 Cl
ATOM     36  C   LIG    1      -33.784  74.879  28.093  0.00  0.00    +0.133 A 
ATOM     37  N   LIG    1      -34.863  75.468  27.531  0.00  0.00    -0.239 NA
BRANCH  31  38
ATOM     38  N   LIG    1      -36.160  77.307  27.099  0.00  0.00    -0.343 N 
ATOM     39  H   LIG    1      -37.001  77.165  27.648  0.00  0.00    +0.144 HD
ATOM     40  H   LIG    1      -35.973  78.296  26.942  0.00  0.00    +0.144 HD
ENDBRANCH  31  38
ENDBRANCH  25  32
ENDBRANCH  24  28
ENDBRANCH   1  24
TORSDOF 9
ENDMDL
