MODEL 1
REMARK VINA RESULT:      -5.9      0.000      0.000
REMARK  Name = pdb/CHEMBL3676079.pdb
REMARK                            x       y       z     vdW  Elec       q    Type
REMARK                         _______ _______ _______ _____ _____    ______ ____
ROOT
ATOM      1  C   LIG    1      -20.257  79.111  34.492  0.00  0.00    +0.100 A 
ATOM      2  C   LIG    1      -21.589  78.864  34.188  0.00  0.00    +0.170 A 
ATOM      3  N   LIG    1      -22.201  77.958  33.345  0.00  0.00    -0.212 NA
ATOM      4  C   LIG    1      -23.514  78.009  33.218  0.00  0.00    +0.126 A 
ATOM      5  C   LIG    1      -24.338  78.977  34.045  0.00  0.00    +0.063 A 
ATOM      6  C   LIG    1      -23.695  79.838  34.834  0.00  0.00    +0.118 A 
ATOM      7  N   LIG    1      -22.319  79.806  34.915  0.00  0.00    -0.221 N 
ATOM      8  N   LIG    1      -21.531  80.624  35.646  0.00  0.00    -0.173 NA
ATOM      9  C   LIG    1      -20.295  80.204  35.382  0.00  0.00    +0.150 A 
ENDROOT
BRANCH   4  10
ATOM     10  N   LIG    1      -24.175  77.179  32.292  0.00  0.00    -0.303 N 
ATOM     11  C   LIG    1      -24.915  75.972  32.763  0.00  0.00    +0.107 C 
ATOM     12  C   LIG    1      -24.097  74.831  32.129  0.00  0.00    +0.029 C 
ATOM     13  C   LIG    1      -23.803  75.365  30.741  0.00  0.00    +0.027 C 
ATOM     14  C   LIG    1      -23.484  76.838  31.011  0.00  0.00    +0.101 C 
BRANCH  11  15
ATOM     15  C   LIG    1      -26.381  76.010  32.348  0.00  0.00    -0.006 A 
ATOM     16  C   LIG    1      -27.223  74.887  32.430  0.00  0.00    +0.046 A 
ATOM     17  C   LIG    1      -28.566  74.990  32.091  0.00  0.00    +0.142 A 
ATOM     18  F   LIG    1      -29.361  73.914  32.161  0.00  0.00    -0.204 F 
ATOM     19  C   LIG    1      -29.064  76.212  31.691  0.00  0.00    +0.149 A 
ATOM     20  N   LIG    1      -28.303  77.327  31.614  0.00  0.00    -0.260 NA
ATOM     21  C   LIG    1      -26.993  77.202  31.954  0.00  0.00    +0.116 A 
ENDBRANCH  11  15
BRANCH  14  22
ATOM     22  C   LIG    1      -23.901  77.734  29.838  0.00  0.00    +0.178 C 
BRANCH  22  23
ATOM     23  O   LIG    1      -23.011  77.532  28.743  0.00  0.00    -0.393 OA
ATOM     24  H   LIG    1      -23.414  77.949  27.961  0.00  0.00    +0.209 HD
ENDBRANCH  22  23
ENDBRANCH  14  22
ENDBRANCH   4  10
BRANCH   1  27
ATOM     25  N   LIG    1      -19.143  78.048  32.691  0.00  0.00    -0.306 N 
ATOM     26  H   LIG    1      -19.993  78.305  32.191  0.00  0.00    +0.150 HD
ATOM     27  C   LIG    1      -19.063  78.434  34.010  0.00  0.00    +0.250 C 
ATOM     28  O   LIG    1      -18.096  78.240  34.730  0.00  0.00    -0.270 OA
BRANCH  25  30
ATOM     29  C   LIG    1      -16.875  78.225  31.696  0.00  0.00    +0.031 C 
ATOM     30  C   LIG    1      -18.105  77.387  31.948  0.00  0.00    +0.032 C 
ATOM     31  C   LIG    1      -17.893  75.892  32.041  0.00  0.00    +0.027 C 
ATOM     32  C   LIG    1      -18.578  76.463  30.840  0.00  0.00    +0.027 C 
ENDBRANCH  25  30
ENDBRANCH   1  27
TORSDOF 6
ENDMDL
MODEL 2
REMARK VINA RESULT:      -5.9     19.087     21.499
REMARK  Name = pdb/CHEMBL3676079.pdb
REMARK                            x       y       z     vdW  Elec       q    Type
REMARK                         _______ _______ _______ _____ _____    ______ ____
ROOT
ATOM      1  C   LIG    1      -18.966  82.296  13.899  0.00  0.00    +0.100 A 
ATOM      2  C   LIG    1      -18.995  83.655  13.614  0.00  0.00    +0.170 A 
ATOM      3  N   LIG    1      -20.007  84.593  13.648  0.00  0.00    -0.212 NA
ATOM      4  C   LIG    1      -19.735  85.822  13.252  0.00  0.00    +0.126 A 
ATOM      5  C   LIG    1      -18.325  86.216  12.855  0.00  0.00    +0.063 A 
ATOM      6  C   LIG    1      -17.388  85.267  12.828  0.00  0.00    +0.118 A 
ATOM      7  N   LIG    1      -17.703  83.976  13.196  0.00  0.00    -0.221 N 
ATOM      8  N   LIG    1      -16.875  82.909  13.196  0.00  0.00    -0.173 NA
ATOM      9  C   LIG    1      -17.642  81.903  13.614  0.00  0.00    +0.150 A 
ENDROOT
BRANCH   4  10
ATOM     10  N   LIG    1      -20.755  86.788  13.167  0.00  0.00    -0.303 N 
ATOM     11  C   LIG    1      -21.034  87.472  11.871  0.00  0.00    +0.107 C 
ATOM     12  C   LIG    1      -20.654  88.930  12.193  0.00  0.00    +0.029 C 
ATOM     13  C   LIG    1      -21.224  89.121  13.585  0.00  0.00    +0.027 C 
ATOM     14  C   LIG    1      -20.889  87.791  14.267  0.00  0.00    +0.101 C 
BRANCH  11  15
ATOM     15  C   LIG    1      -22.478  87.274  11.425  0.00  0.00    -0.006 A 
ATOM     16  C   LIG    1      -23.278  86.216  11.891  0.00  0.00    +0.046 A 
ATOM     17  C   LIG    1      -24.606  86.113  11.494  0.00  0.00    +0.142 A 
ATOM     18  F   LIG    1      -25.360  85.097  11.933  0.00  0.00    -0.204 F 
ATOM     19  C   LIG    1      -25.130  87.072  10.655  0.00  0.00    +0.149 A 
ATOM     20  N   LIG    1      -24.411  88.121  10.194  0.00  0.00    -0.260 NA
ATOM     21  C   LIG    1      -23.115  88.201  10.598  0.00  0.00    +0.116 A 
ENDBRANCH  11  15
BRANCH  14  22
ATOM     22  C   LIG    1      -21.943  87.409  15.315  0.00  0.00    +0.178 C 
BRANCH  22  23
ATOM     23  O   LIG    1      -21.372  87.491  16.618  0.00  0.00    -0.393 OA
ATOM     24  H   LIG    1      -21.318  88.434  16.851  0.00  0.00    +0.209 HD
ENDBRANCH  22  23
ENDBRANCH  14  22
ENDBRANCH   4  10
BRANCH   1  27
ATOM     25  N   LIG    1      -21.040  82.105  15.028  0.00  0.00    -0.306 N 
ATOM     26  H   LIG    1      -20.949  83.119  15.083  0.00  0.00    +0.150 HD
ATOM     27  C   LIG    1      -20.038  81.431  14.368  0.00  0.00    +0.250 C 
ATOM     28  O   LIG    1      -20.023  80.225  14.181  0.00  0.00    -0.270 OA
BRANCH  25  30
ATOM     29  C   LIG    1      -23.374  81.374  14.595  0.00  0.00    +0.031 C 
ATOM     30  C   LIG    1      -22.231  81.511  15.572  0.00  0.00    +0.032 C 
ATOM     31  C   LIG    1      -22.169  80.487  16.682  0.00  0.00    +0.027 C 
ATOM     32  C   LIG    1      -22.560  81.893  17.004  0.00  0.00    +0.027 C 
ENDBRANCH  25  30
ENDBRANCH   1  27
TORSDOF 6
ENDMDL
MODEL 3
REMARK VINA RESULT:      -5.9      2.156      4.117
REMARK  Name = pdb/CHEMBL3676079.pdb
REMARK                            x       y       z     vdW  Elec       q    Type
REMARK                         _______ _______ _______ _____ _____    ______ ____
ROOT
ATOM      1  C   LIG    1      -18.730  78.707  33.789  0.00  0.00    +0.100 A 
ATOM      2  C   LIG    1      -19.547  78.083  32.855  0.00  0.00    +0.170 A 
ATOM      3  N   LIG    1      -20.894  77.784  32.846  0.00  0.00    -0.212 NA
ATOM      4  C   LIG    1      -21.380  77.112  31.818  0.00  0.00    +0.126 A 
ATOM      5  C   LIG    1      -20.498  76.756  30.637  0.00  0.00    +0.063 A 
ATOM      6  C   LIG    1      -19.201  77.058  30.703  0.00  0.00    +0.118 A 
ATOM      7  N   LIG    1      -18.701  77.714  31.807  0.00  0.00    -0.221 N 
ATOM      8  N   LIG    1      -17.415  78.063  32.029  0.00  0.00    -0.173 NA
ATOM      9  C   LIG    1      -17.440  78.653  33.224  0.00  0.00    +0.150 A 
ENDROOT
BRANCH   4  10
ATOM     10  N   LIG    1      -22.723  76.691  31.810  0.00  0.00    -0.303 N 
ATOM     11  C   LIG    1      -23.237  75.805  32.895  0.00  0.00    +0.107 C 
ATOM     12  C   LIG    1      -23.568  74.515  32.122  0.00  0.00    +0.029 C 
ATOM     13  C   LIG    1      -24.208  75.044  30.853  0.00  0.00    +0.027 C 
ATOM     14  C   LIG    1      -23.332  76.254  30.518  0.00  0.00    +0.101 C 
BRANCH  11  15
ATOM     15  C   LIG    1      -24.421  76.431  33.624  0.00  0.00    -0.006 A 
ATOM     16  C   LIG    1      -25.358  75.670  34.344  0.00  0.00    +0.046 A 
ATOM     17  C   LIG    1      -26.389  76.296  35.035  0.00  0.00    +0.142 A 
ATOM     18  F   LIG    1      -27.284  75.565  35.711  0.00  0.00    -0.204 F 
ATOM     19  C   LIG    1      -26.465  77.672  35.020  0.00  0.00    +0.149 A 
ATOM     20  N   LIG    1      -25.579  78.452  34.360  0.00  0.00    -0.260 NA
ATOM     21  C   LIG    1      -24.579  77.817  33.693  0.00  0.00    +0.116 A 
ENDBRANCH  11  15
BRANCH  14  22
ATOM     22  C   LIG    1      -24.134  77.359  29.818  0.00  0.00    +0.178 C 
BRANCH  22  23
ATOM     23  O   LIG    1      -23.279  78.084  28.937  0.00  0.00    -0.393 OA
ATOM     24  H   LIG    1      -23.588  77.915  28.029  0.00  0.00    +0.209 HD
ENDBRANCH  22  23
ENDBRANCH  14  22
ENDBRANCH   4  10
BRANCH   1  27
ATOM     25  N   LIG    1      -20.334  79.853  35.104  0.00  0.00    -0.306 N 
ATOM     26  H   LIG    1      -20.887  79.779  34.251  0.00  0.00    +0.150 HD
ATOM     27  C   LIG    1      -19.082  79.283  35.078  0.00  0.00    +0.250 C 
ATOM     28  O   LIG    1      -18.317  79.250  36.030  0.00  0.00    -0.270 OA
BRANCH  25  30
ATOM     29  C   LIG    1      -21.539  79.502  37.247  0.00  0.00    +0.031 C 
ATOM     30  C   LIG    1      -20.950  80.469  36.248  0.00  0.00    +0.032 C 
ATOM     31  C   LIG    1      -20.458  81.788  36.798  0.00  0.00    +0.027 C 
ATOM     32  C   LIG    1      -21.704  81.757  35.973  0.00  0.00    +0.027 C 
ENDBRANCH  25  30
ENDBRANCH   1  27
TORSDOF 6
ENDMDL
MODEL 4
REMARK VINA RESULT:      -5.8      3.078      7.163
REMARK  Name = pdb/CHEMBL3676079.pdb
REMARK                            x       y       z     vdW  Elec       q    Type
REMARK                         _______ _______ _______ _____ _____    ______ ____
ROOT
ATOM      1  C   LIG    1      -23.227  76.974  30.876  0.00  0.00    +0.100 A 
ATOM      2  C   LIG    1      -22.371  77.570  31.793  0.00  0.00    +0.170 A 
ATOM      3  N   LIG    1      -22.562  78.050  33.073  0.00  0.00    -0.212 NA
ATOM      4  C   LIG    1      -21.546  78.633  33.682  0.00  0.00    +0.126 A 
ATOM      5  C   LIG    1      -20.180  78.693  33.027  0.00  0.00    +0.063 A 
ATOM      6  C   LIG    1      -20.053  78.225  31.785  0.00  0.00    +0.118 A 
ATOM      7  N   LIG    1      -21.138  77.667  31.144  0.00  0.00    -0.221 N 
ATOM      8  N   LIG    1      -21.173  77.176  29.887  0.00  0.00    -0.173 NA
ATOM      9  C   LIG    1      -22.431  76.768  29.731  0.00  0.00    +0.150 A 
ENDROOT
BRANCH   4  10
ATOM     10  N   LIG    1      -21.718  79.232  34.944  0.00  0.00    -0.303 N 
ATOM     11  C   LIG    1      -21.932  80.705  35.051  0.00  0.00    +0.107 C 
ATOM     12  C   LIG    1      -20.662  81.157  35.797  0.00  0.00    +0.029 C 
ATOM     13  C   LIG    1      -20.492  80.076  36.846  0.00  0.00    +0.027 C 
ATOM     14  C   LIG    1      -20.836  78.802  36.071  0.00  0.00    +0.101 C 
BRANCH  11  15
ATOM     15  C   LIG    1      -23.239  81.037  35.762  0.00  0.00    -0.006 A 
ATOM     16  C   LIG    1      -23.454  82.256  36.427  0.00  0.00    +0.046 A 
ATOM     17  C   LIG    1      -24.684  82.530  37.014  0.00  0.00    +0.142 A 
ATOM     18  F   LIG    1      -24.879  83.689  37.655  0.00  0.00    -0.204 F 
ATOM     19  C   LIG    1      -25.694  81.597  36.915  0.00  0.00    +0.149 A 
ATOM     20  N   LIG    1      -25.547  80.417  36.271  0.00  0.00    -0.260 NA
ATOM     21  C   LIG    1      -24.336  80.174  35.704  0.00  0.00    +0.116 A 
ENDBRANCH  11  15
BRANCH  14  22
ATOM     22  C   LIG    1      -21.478  77.742  36.976  0.00  0.00    +0.178 C 
BRANCH  22  23
ATOM     23  O   LIG    1      -22.533  77.090  36.273  0.00  0.00    -0.393 OA
ATOM     24  H   LIG    1      -22.130  76.604  35.532  0.00  0.00    +0.209 HD
ENDBRANCH  22  23
ENDBRANCH  14  22
ENDBRANCH   4  10
BRANCH   1  27
ATOM     25  N   LIG    1      -24.951  76.085  32.238  0.00  0.00    -0.306 N 
ATOM     26  H   LIG    1      -24.192  76.006  32.913  0.00  0.00    +0.150 HD
ATOM     27  C   LIG    1      -24.636  76.639  31.018  0.00  0.00    +0.250 C 
ATOM     28  O   LIG    1      -25.440  76.840  30.121  0.00  0.00    -0.270 OA
BRANCH  25  30
ATOM     29  C   LIG    1      -27.184  76.823  33.034  0.00  0.00    +0.031 C 
ATOM     30  C   LIG    1      -26.265  75.685  32.661  0.00  0.00    +0.032 C 
ATOM     31  C   LIG    1      -26.925  74.437  32.121  0.00  0.00    +0.027 C 
ATOM     32  C   LIG    1      -26.329  74.416  33.492  0.00  0.00    +0.027 C 
ENDBRANCH  25  30
ENDBRANCH   1  27
TORSDOF 6
ENDMDL
MODEL 5
REMARK VINA RESULT:      -5.7     17.918     20.215
REMARK  Name = pdb/CHEMBL3676079.pdb
REMARK                            x       y       z     vdW  Elec       q    Type
REMARK                         _______ _______ _______ _____ _____    ______ ____
ROOT
ATOM      1  C   LIG    1      -18.819  85.807  13.175  0.00  0.00    +0.100 A 
ATOM      2  C   LIG    1      -19.042  84.469  13.473  0.00  0.00    +0.170 A 
ATOM      3  N   LIG    1      -20.139  83.794  13.969  0.00  0.00    -0.212 NA
ATOM      4  C   LIG    1      -20.023  82.502  14.212  0.00  0.00    +0.126 A 
ATOM      5  C   LIG    1      -18.745  81.759  13.869  0.00  0.00    +0.063 A 
ATOM      6  C   LIG    1      -17.712  82.462  13.403  0.00  0.00    +0.118 A 
ATOM      7  N   LIG    1      -17.834  83.821  13.205  0.00  0.00    -0.221 N 
ATOM      8  N   LIG    1      -16.877  84.665  12.766  0.00  0.00    -0.173 NA
ATOM      9  C   LIG    1      -17.473  85.856  12.756  0.00  0.00    +0.150 A 
ENDROOT
BRANCH   4  10
ATOM     10  N   LIG    1      -21.076  81.791  14.817  0.00  0.00    -0.303 N 
ATOM     11  C   LIG    1      -22.471  82.316  14.749  0.00  0.00    +0.107 C 
ATOM     12  C   LIG    1      -22.768  82.619  16.230  0.00  0.00    +0.029 C 
ATOM     13  C   LIG    1      -22.167  81.422  16.940  0.00  0.00    +0.027 C 
ATOM     14  C   LIG    1      -20.860  81.201  16.173  0.00  0.00    +0.101 C 
BRANCH  11  15
ATOM     15  C   LIG    1      -23.421  81.316  14.101  0.00  0.00    -0.006 A 
ATOM     16  C   LIG    1      -24.482  80.714  14.799  0.00  0.00    +0.046 A 
ATOM     17  C   LIG    1      -25.353  79.849  14.146  0.00  0.00    +0.142 A 
ATOM     18  F   LIG    1      -26.356  79.271  14.819  0.00  0.00    -0.204 F 
ATOM     19  C   LIG    1      -25.171  79.608  12.801  0.00  0.00    +0.149 A 
ATOM     20  N   LIG    1      -24.180  80.175  12.078  0.00  0.00    -0.260 NA
ATOM     21  C   LIG    1      -23.343  81.018  12.738  0.00  0.00    +0.116 A 
ENDBRANCH  11  15
BRANCH  14  22
ATOM     22  C   LIG    1      -20.466  79.719  16.137  0.00  0.00    +0.178 C 
BRANCH  22  23
ATOM     23  O   LIG    1      -19.327  79.507  16.967  0.00  0.00    -0.393 OA
ATOM     24  H   LIG    1      -19.653  79.337  17.868  0.00  0.00    +0.209 HD
ENDBRANCH  22  23
ENDBRANCH  14  22
ENDBRANCH   4  10
BRANCH   1  27
ATOM     25  N   LIG    1      -21.057  86.584  13.163  0.00  0.00    -0.306 N 
ATOM     26  H   LIG    1      -21.259  85.590  13.064  0.00  0.00    +0.150 HD
ATOM     27  C   LIG    1      -19.731  86.935  13.275  0.00  0.00    +0.250 C 
ATOM     28  O   LIG    1      -19.330  88.076  13.442  0.00  0.00    -0.270 OA
BRANCH  25  30
ATOM     29  C   LIG    1      -22.483  87.974  14.646  0.00  0.00    +0.031 C 
ATOM     30  C   LIG    1      -22.173  87.486  13.251  0.00  0.00    +0.032 C 
ATOM     31  C   LIG    1      -22.527  88.421  12.117  0.00  0.00    +0.027 C 
ATOM     32  C   LIG    1      -23.338  87.182  12.327  0.00  0.00    +0.027 C 
ENDBRANCH  25  30
ENDBRANCH   1  27
TORSDOF 6
ENDMDL
MODEL 6
REMARK VINA RESULT:      -5.5     13.071     16.678
REMARK  Name = pdb/CHEMBL3676079.pdb
REMARK                            x       y       z     vdW  Elec       q    Type
REMARK                         _______ _______ _______ _____ _____    ______ ____
ROOT
ATOM      1  C   LIG    1      -37.548  76.309  25.819  0.00  0.00    +0.100 A 
ATOM      2  C   LIG    1      -38.041  75.048  25.510  0.00  0.00    +0.170 A 
ATOM      3  N   LIG    1      -37.651  73.778  25.881  0.00  0.00    -0.212 NA
ATOM      4  C   LIG    1      -38.293  72.748  25.361  0.00  0.00    +0.126 A 
ATOM      5  C   LIG    1      -39.487  72.957  24.449  0.00  0.00    +0.063 A 
ATOM      6  C   LIG    1      -39.813  74.206  24.113  0.00  0.00    +0.118 A 
ATOM      7  N   LIG    1      -39.098  75.268  24.625  0.00  0.00    -0.221 N 
ATOM      8  N   LIG    1      -39.292  76.578  24.360  0.00  0.00    -0.173 NA
ATOM      9  C   LIG    1      -38.353  77.196  25.076  0.00  0.00    +0.150 A 
ENDROOT
BRANCH   4  10
ATOM     10  N   LIG    1      -37.867  71.433  25.624  0.00  0.00    -0.303 N 
ATOM     11  C   LIG    1      -36.727  70.847  24.859  0.00  0.00    +0.107 C 
ATOM     12  C   LIG    1      -37.418  69.712  24.080  0.00  0.00    +0.029 C 
ATOM     13  C   LIG    1      -38.356  69.123  25.115  0.00  0.00    +0.027 C 
ATOM     14  C   LIG    1      -38.897  70.368  25.822  0.00  0.00    +0.101 C 
BRANCH  11  15
ATOM     15  C   LIG    1      -35.601  70.393  25.781  0.00  0.00    -0.006 A 
ATOM     16  C   LIG    1      -35.319  71.025  27.004  0.00  0.00    +0.046 A 
ATOM     17  C   LIG    1      -34.315  70.537  27.832  0.00  0.00    +0.142 A 
ATOM     18  F   LIG    1      -34.044  71.150  28.992  0.00  0.00    -0.204 F 
ATOM     19  C   LIG    1      -33.616  69.415  27.445  0.00  0.00    +0.149 A 
ATOM     20  N   LIG    1      -33.860  68.756  26.289  0.00  0.00    -0.260 NA
ATOM     21  C   LIG    1      -34.848  69.252  25.497  0.00  0.00    +0.116 A 
ENDBRANCH  11  15
BRANCH  14  22
ATOM     22  C   LIG    1      -39.212  70.093  27.298  0.00  0.00    +0.178 C 
BRANCH  22  23
ATOM     23  O   LIG    1      -40.271  70.945  27.727  0.00  0.00    -0.393 OA
ATOM     24  H   LIG    1      -39.974  71.388  28.541  0.00  0.00    +0.209 HD
ENDBRANCH  22  23
ENDBRANCH  14  22
ENDBRANCH   4  10
BRANCH   1  27
ATOM     25  N   LIG    1      -35.507  75.677  26.844  0.00  0.00    -0.306 N 
ATOM     26  H   LIG    1      -35.663  74.821  26.313  0.00  0.00    +0.150 HD
ATOM     27  C   LIG    1      -36.442  76.675  26.691  0.00  0.00    +0.250 C 
ATOM     28  O   LIG    1      -36.376  77.772  27.223  0.00  0.00    -0.270 OA
BRANCH  25  30
ATOM     29  C   LIG    1      -33.292  76.766  27.108  0.00  0.00    +0.031 C 
ATOM     30  C   LIG    1      -34.303  75.770  27.623  0.00  0.00    +0.032 C 
ATOM     31  C   LIG    1      -34.302  75.521  29.114  0.00  0.00    +0.027 C 
ATOM     32  C   LIG    1      -33.787  74.462  28.194  0.00  0.00    +0.027 C 
ENDBRANCH  25  30
ENDBRANCH   1  27
TORSDOF 6
ENDMDL
MODEL 7
REMARK VINA RESULT:      -5.5     13.256     17.114
REMARK  Name = pdb/CHEMBL3676079.pdb
REMARK                            x       y       z     vdW  Elec       q    Type
REMARK                         _______ _______ _______ _____ _____    ______ ____
ROOT
ATOM      1  C   LIG    1      -37.559  76.241  25.850  0.00  0.00    +0.100 A 
ATOM      2  C   LIG    1      -37.993  74.963  25.524  0.00  0.00    +0.170 A 
ATOM      3  N   LIG    1      -37.543  73.707  25.875  0.00  0.00    -0.212 NA
ATOM      4  C   LIG    1      -38.136  72.656  25.342  0.00  0.00    +0.126 A 
ATOM      5  C   LIG    1      -39.341  72.821  24.436  0.00  0.00    +0.063 A 
ATOM      6  C   LIG    1      -39.728  74.058  24.118  0.00  0.00    +0.118 A 
ATOM      7  N   LIG    1      -39.062  75.145  24.644  0.00  0.00    -0.221 N 
ATOM      8  N   LIG    1      -39.318  76.448  24.399  0.00  0.00    -0.173 NA
ATOM      9  C   LIG    1      -38.408  77.099  25.122  0.00  0.00    +0.150 A 
ENDROOT
BRANCH   4  10
ATOM     10  N   LIG    1      -37.647  71.358  25.585  0.00  0.00    -0.303 N 
ATOM     11  C   LIG    1      -38.491  70.168  25.272  0.00  0.00    +0.107 C 
ATOM     12  C   LIG    1      -38.732  69.574  26.673  0.00  0.00    +0.029 C 
ATOM     13  C   LIG    1      -37.373  69.711  27.329  0.00  0.00    +0.027 C 
ATOM     14  C   LIG    1      -36.913  71.094  26.859  0.00  0.00    +0.101 C 
BRANCH  11  15
ATOM     15  C   LIG    1      -37.802  69.227  24.292  0.00  0.00    -0.006 A 
ATOM     16  C   LIG    1      -37.594  67.864  24.566  0.00  0.00    +0.046 A 
ATOM     17  C   LIG    1      -37.008  67.037  23.615  0.00  0.00    +0.142 A 
ATOM     18  F   LIG    1      -36.804  65.742  23.885  0.00  0.00    -0.204 F 
ATOM     19  C   LIG    1      -36.653  67.570  22.394  0.00  0.00    +0.149 A 
ATOM     20  N   LIG    1      -36.848  68.868  22.071  0.00  0.00    -0.260 NA
ATOM     21  C   LIG    1      -37.425  69.656  23.017  0.00  0.00    +0.116 A 
ENDBRANCH  11  15
BRANCH  14  22
ATOM     22  C   LIG    1      -35.388  71.165  26.709  0.00  0.00    +0.178 C 
BRANCH  22  23
ATOM     23  O   LIG    1      -35.040  71.104  25.328  0.00  0.00    -0.393 OA
ATOM     24  H   LIG    1      -34.928  72.019  25.017  0.00  0.00    +0.209 HD
ENDBRANCH  22  23
ENDBRANCH  14  22
ENDBRANCH   4  10
BRANCH   1  27
ATOM     25  N   LIG    1      -35.511  75.675  26.898  0.00  0.00    -0.306 N 
ATOM     26  H   LIG    1      -35.641  74.808  26.377  0.00  0.00    +0.150 HD
ATOM     27  C   LIG    1      -36.470  76.647  26.725  0.00  0.00    +0.250 C 
ATOM     28  O   LIG    1      -36.436  77.752  27.243  0.00  0.00    -0.270 OA
BRANCH  25  30
ATOM     29  C   LIG    1      -33.295  76.771  27.125  0.00  0.00    +0.031 C 
ATOM     30  C   LIG    1      -34.315  75.809  27.684  0.00  0.00    +0.032 C 
ATOM     31  C   LIG    1      -34.332  75.645  29.187  0.00  0.00    +0.027 C 
ATOM     32  C   LIG    1      -33.810  74.533  28.335  0.00  0.00    +0.027 C 
ENDBRANCH  25  30
ENDBRANCH   1  27
TORSDOF 6
ENDMDL
MODEL 8
REMARK VINA RESULT:      -5.4     19.168     21.705
REMARK  Name = pdb/CHEMBL3676079.pdb
REMARK                            x       y       z     vdW  Elec       q    Type
REMARK                         _______ _______ _______ _____ _____    ______ ____
ROOT
ATOM      1  C   LIG    1      -21.149  82.016  14.582  0.00  0.00    +0.100 A 
ATOM      2  C   LIG    1      -20.683  83.264  14.188  0.00  0.00    +0.170 A 
ATOM      3  N   LIG    1      -21.322  84.461  13.936  0.00  0.00    -0.212 NA
ATOM      4  C   LIG    1      -20.600  85.479  13.506  0.00  0.00    +0.126 A 
ATOM      5  C   LIG    1      -19.093  85.363  13.379  0.00  0.00    +0.063 A 
ATOM      6  C   LIG    1      -18.528  84.180  13.624  0.00  0.00    +0.118 A 
ATOM      7  N   LIG    1      -19.305  83.113  14.022  0.00  0.00    -0.221 N 
ATOM      8  N   LIG    1      -18.885  81.856  14.281  0.00  0.00    -0.173 NA
ATOM      9  C   LIG    1      -19.998  81.203  14.611  0.00  0.00    +0.150 A 
ENDROOT
BRANCH   4  10
ATOM     10  N   LIG    1      -21.218  86.687  13.134  0.00  0.00    -0.303 N 
ATOM     11  C   LIG    1      -21.033  87.230  11.756  0.00  0.00    +0.107 C 
ATOM     12  C   LIG    1      -20.258  88.533  12.031  0.00  0.00    +0.029 C 
ATOM     13  C   LIG    1      -20.962  89.086  13.254  0.00  0.00    +0.027 C 
ATOM     14  C   LIG    1      -21.202  87.830  14.097  0.00  0.00    +0.101 C 
BRANCH  11  15
ATOM     15  C   LIG    1      -22.364  87.421  11.039  0.00  0.00    -0.006 A 
ATOM     16  C   LIG    1      -23.547  86.783  11.452  0.00  0.00    +0.046 A 
ATOM     17  C   LIG    1      -24.746  87.033  10.795  0.00  0.00    +0.142 A 
ATOM     18  F   LIG    1      -25.868  86.414  11.186  0.00  0.00    -0.204 F 
ATOM     19  C   LIG    1      -24.761  87.930   9.748  0.00  0.00    +0.149 A 
ATOM     20  N   LIG    1      -23.657  88.586   9.324  0.00  0.00    -0.260 NA
ATOM     21  C   LIG    1      -22.497  88.325   9.983  0.00  0.00    +0.116 A 
ENDBRANCH  11  15
BRANCH  14  22
ATOM     22  C   LIG    1      -22.485  87.942  14.931  0.00  0.00    +0.178 C 
BRANCH  22  23
ATOM     23  O   LIG    1      -22.311  88.929  15.944  0.00  0.00    -0.393 OA
ATOM     24  H   LIG    1      -23.125  88.943  16.477  0.00  0.00    +0.209 HD
ENDBRANCH  22  23
ENDBRANCH  14  22
ENDBRANCH   4  10
BRANCH   1  27
ATOM     25  N   LIG    1      -22.855  80.394  14.315  0.00  0.00    -0.306 N 
ATOM     26  H   LIG    1      -22.129  79.915  13.783  0.00  0.00    +0.150 HD
ATOM     27  C   LIG    1      -22.508  81.597  14.887  0.00  0.00    +0.250 C 
ATOM     28  O   LIG    1      -23.249  82.269  15.587  0.00  0.00    -0.270 OA
BRANCH  25  30
ATOM     29  C   LIG    1      -24.348  79.109  15.826  0.00  0.00    +0.031 C 
ATOM     30  C   LIG    1      -24.119  79.727  14.468  0.00  0.00    +0.032 C 
ATOM     31  C   LIG    1      -25.352  80.184  13.721  0.00  0.00    +0.027 C 
ATOM     32  C   LIG    1      -24.616  78.972  13.249  0.00  0.00    +0.027 C 
ENDBRANCH  25  30
ENDBRANCH   1  27
TORSDOF 6
ENDMDL
MODEL 9
REMARK VINA RESULT:      -5.3     18.208     20.929
REMARK  Name = pdb/CHEMBL3676079.pdb
REMARK                            x       y       z     vdW  Elec       q    Type
REMARK                         _______ _______ _______ _____ _____    ______ ____
ROOT
ATOM      1  C   LIG    1      -23.806  85.421  11.658  0.00  0.00    +0.100 A 
ATOM      2  C   LIG    1      -23.746  84.109  12.110  0.00  0.00    +0.170 A 
ATOM      3  N   LIG    1      -23.110  83.520  13.184  0.00  0.00    -0.212 NA
ATOM      4  C   LIG    1      -23.190  82.210  13.319  0.00  0.00    +0.126 A 
ATOM      5  C   LIG    1      -24.034  81.382  12.369  0.00  0.00    +0.063 A 
ATOM      6  C   LIG    1      -24.618  81.999  11.341  0.00  0.00    +0.118 A 
ATOM      7  N   LIG    1      -24.480  83.362  11.186  0.00  0.00    -0.221 N 
ATOM      8  N   LIG    1      -24.987  84.120  10.190  0.00  0.00    -0.173 NA
ATOM      9  C   LIG    1      -24.573  85.353  10.477  0.00  0.00    +0.150 A 
ENDROOT
BRANCH   4  10
ATOM     10  N   LIG    1      -22.473  81.551  14.335  0.00  0.00    -0.303 N 
ATOM     11  C   LIG    1      -21.862  80.215  14.075  0.00  0.00    +0.107 C 
ATOM     12  C   LIG    1      -22.662  79.309  15.030  0.00  0.00    +0.029 C 
ATOM     13  C   LIG    1      -22.760  80.154  16.284  0.00  0.00    +0.027 C 
ATOM     14  C   LIG    1      -23.026  81.553  15.723  0.00  0.00    +0.101 C 
BRANCH  11  15
ATOM     15  C   LIG    1      -20.357  80.224  14.318  0.00  0.00    -0.006 A 
ATOM     16  C   LIG    1      -19.573  81.383  14.186  0.00  0.00    +0.046 A 
ATOM     17  C   LIG    1      -18.214  81.349  14.472  0.00  0.00    +0.142 A 
ATOM     18  F   LIG    1      -17.470  82.454  14.334  0.00  0.00    -0.204 F 
ATOM     19  C   LIG    1      -17.651  80.167  14.905  0.00  0.00    +0.149 A 
ATOM     20  N   LIG    1      -18.362  79.029  15.068  0.00  0.00    -0.260 NA
ATOM     21  C   LIG    1      -19.690  79.088  14.784  0.00  0.00    +0.116 A 
ENDBRANCH  11  15
BRANCH  14  22
ATOM     22  C   LIG    1      -22.425  82.647  16.616  0.00  0.00    +0.178 C 
BRANCH  22  23
ATOM     23  O   LIG    1      -21.947  83.717  15.804  0.00  0.00    -0.393 OA
ATOM     24  H   LIG    1      -22.459  84.510  16.040  0.00  0.00    +0.209 HD
ENDBRANCH  22  23
ENDBRANCH  14  22
ENDBRANCH   4  10
BRANCH   1  27
ATOM     25  N   LIG    1      -22.456  86.375  13.355  0.00  0.00    -0.306 N 
ATOM     26  H   LIG    1      -22.361  85.400  13.639  0.00  0.00    +0.150 HD
ATOM     27  C   LIG    1      -23.212  86.618  12.231  0.00  0.00    +0.250 C 
ATOM     28  O   LIG    1      -23.385  87.723  11.740  0.00  0.00    -0.270 OA
BRANCH  25  30
ATOM     29  C   LIG    1      -20.374  87.714  13.553  0.00  0.00    +0.031 C 
ATOM     30  C   LIG    1      -21.733  87.363  14.109  0.00  0.00    +0.032 C 
ATOM     31  C   LIG    1      -22.448  88.452  14.877  0.00  0.00    +0.027 C 
ATOM     32  C   LIG    1      -21.887  87.280  15.617  0.00  0.00    +0.027 C 
ENDBRANCH  25  30
ENDBRANCH   1  27
TORSDOF 6
ENDMDL
