MODEL 1
REMARK VINA RESULT:      -6.1      0.000      0.000
REMARK  Name = pdb/CHEMBL3673483.pdb
REMARK                            x       y       z     vdW  Elec       q    Type
REMARK                         _______ _______ _______ _____ _____    ______ ____
ROOT
ATOM      1  C   LIG    1      -23.301  76.164  30.776  0.00  0.00    +0.161 C 
ENDROOT
BRANCH   1   2
ATOM      2  N   LIG    1      -23.811  77.186  31.651  0.00  0.00    -0.293 N 
ATOM      3  C   LIG    1      -22.969  77.881  32.498  0.00  0.00    +0.162 A 
ATOM      4  N   LIG    1      -21.627  77.810  32.509  0.00  0.00    -0.235 NA
ATOM      5  C   LIG    1      -21.093  78.605  33.471  0.00  0.00    +0.123 A 
ATOM      6  C   LIG    1      -21.791  79.374  34.399  0.00  0.00    +0.022 A 
ATOM      7  C   LIG    1      -23.199  79.372  34.328  0.00  0.00    +0.043 A 
ATOM      8  C   LIG    1      -23.818  78.600  33.322  0.00  0.00    +0.110 A 
ATOM      9  N   LIG    1      -25.103  78.405  33.001  0.00  0.00    -0.213 NA
ATOM     10  C   LIG    1      -25.104  77.595  31.961  0.00  0.00    +0.195 A 
BRANCH   6  11
ATOM     11  C   LIG    1      -21.109  80.149  35.417  0.00  0.00    +0.094 A 
ATOM     12  N   LIG    1      -21.481  81.411  35.701  0.00  0.00    -0.171 NA
ATOM     13  N   LIG    1      -20.655  81.798  36.679  0.00  0.00    -0.274 N 
ATOM     14  C   LIG    1      -20.785  83.131  37.216  0.00  0.00    +0.172 C 
ATOM     15  C   LIG    1      -19.748  80.846  37.035  0.00  0.00    +0.108 A 
ATOM     16  C   LIG    1      -20.017  79.763  36.240  0.00  0.00    +0.049 A 
ENDBRANCH   6  11
BRANCH  10  17
ATOM     17  N   LIG    1      -26.238  77.251  31.319  0.00  0.00    -0.329 N 
ATOM     18  H   LIG    1      -26.087  76.640  30.534  0.00  0.00    +0.145 HD
ATOM     19  H   LIG    1      -26.992  76.933  31.865  0.00  0.00    +0.145 HD
ENDBRANCH  10  17
ENDBRANCH   1   2
BRANCH   1  23
ATOM     20  C   LIG    1      -24.022  72.030  31.736  0.00  0.00    +0.162 A 
ATOM     21  C   LIG    1      -25.085  72.853  31.298  0.00  0.00    +0.162 A 
ATOM     22  C   LIG    1      -24.831  74.218  31.126  0.00  0.00    +0.054 A 
ATOM     23  C   LIG    1      -23.556  74.762  31.296  0.00  0.00    -0.024 A 
ATOM     24  C   LIG    1      -22.515  73.960  31.711  0.00  0.00    +0.009 A 
ATOM     25  C   LIG    1      -22.739  72.596  31.877  0.00  0.00    +0.050 A 
BRANCH  21  26
ATOM     26  O   LIG    1      -26.286  72.300  30.921  0.00  0.00    -0.491 OA
ATOM     27  C   LIG    1      -27.409  72.429  31.809  0.00  0.00    +0.277 C 
ENDBRANCH  21  26
BRANCH  20  28
ATOM     28  O   LIG    1      -24.288  70.732  32.119  0.00  0.00    -0.484 OA
BRANCH  28  29
ATOM     29  C   LIG    1      -23.918  69.619  31.262  0.00  0.00    +0.266 C 
BRANCH  29  33
ATOM     30  C   LIG    1      -24.882  69.819  27.101  0.00  0.00    +0.214 A 
ATOM     31  N   LIG    1      -25.878  69.550  27.978  0.00  0.00    -0.221 NA
ATOM     32  C   LIG    1      -25.522  69.498  29.292  0.00  0.00    +0.121 A 
ATOM     33  C   LIG    1      -24.228  69.691  29.768  0.00  0.00    +0.008 A 
ATOM     34  C   LIG    1      -23.248  69.960  28.804  0.00  0.00    +0.013 A 
ATOM     35  C   LIG    1      -23.588  70.070  27.462  0.00  0.00    +0.067 A 
BRANCH  30  37
ATOM     36  C   LIG    1      -24.966  70.992  25.076  0.00  0.00    +0.279 C 
ATOM     37  O   LIG    1      -25.095  69.747  25.732  0.00  0.00    -0.480 OA
ENDBRANCH  30  37
ENDBRANCH  29  33
ENDBRANCH  28  29
ENDBRANCH  20  28
ENDBRANCH   1  23
TORSDOF 9
ENDMDL
MODEL 2
REMARK VINA RESULT:      -5.9     17.423     21.956
REMARK  Name = pdb/CHEMBL3673483.pdb
REMARK                            x       y       z     vdW  Elec       q    Type
REMARK                         _______ _______ _______ _____ _____    ______ ____
ROOT
ATOM      1  C   LIG    1      -29.070  77.266  10.338  0.00  0.00    +0.161 C 
ENDROOT
BRANCH   1   2
ATOM      2  N   LIG    1      -30.501  77.414  10.392  0.00  0.00    -0.293 N 
ATOM      3  C   LIG    1      -31.086  78.665  10.425  0.00  0.00    +0.162 A 
ATOM      4  N   LIG    1      -30.448  79.838  10.267  0.00  0.00    -0.235 NA
ATOM      5  C   LIG    1      -31.301  80.888  10.368  0.00  0.00    +0.123 A 
ATOM      6  C   LIG    1      -32.663  80.831  10.658  0.00  0.00    +0.022 A 
ATOM      7  C   LIG    1      -33.245  79.559  10.830  0.00  0.00    +0.043 A 
ATOM      8  C   LIG    1      -32.421  78.421  10.695  0.00  0.00    +0.110 A 
ATOM      9  N   LIG    1      -32.675  77.110  10.791  0.00  0.00    -0.213 NA
ATOM     10  C   LIG    1      -31.532  76.495  10.557  0.00  0.00    +0.195 A 
BRANCH   6  11
ATOM     11  C   LIG    1      -33.467  82.029  10.789  0.00  0.00    +0.094 A 
ATOM     12  N   LIG    1      -34.794  82.010  10.559  0.00  0.00    -0.171 NA
ATOM     13  N   LIG    1      -35.197  83.265  10.786  0.00  0.00    -0.274 N 
ATOM     14  C   LIG    1      -36.592  83.591  10.617  0.00  0.00    +0.172 C 
ATOM     15  C   LIG    1      -34.187  84.107  11.141  0.00  0.00    +0.108 A 
ATOM     16  C   LIG    1      -33.052  83.339  11.157  0.00  0.00    +0.049 A 
ENDBRANCH   6  11
BRANCH  10  17
ATOM     17  N   LIG    1      -31.440  75.152  10.490  0.00  0.00    -0.329 N 
ATOM     18  H   LIG    1      -32.329  74.693  10.389  0.00  0.00    +0.145 HD
ATOM     19  H   LIG    1      -30.781  74.772   9.867  0.00  0.00    +0.145 HD
ENDBRANCH  10  17
ENDBRANCH   1   2
BRANCH   1  23
ATOM     20  C   LIG    1      -26.782  77.634  13.966  0.00  0.00    +0.162 A 
ATOM     21  C   LIG    1      -27.587  76.493  13.746  0.00  0.00    +0.162 A 
ATOM     22  C   LIG    1      -28.413  76.478  12.618  0.00  0.00    +0.054 A 
ATOM     23  C   LIG    1      -28.402  77.511  11.678  0.00  0.00    -0.024 A 
ATOM     24  C   LIG    1      -27.610  78.620  11.882  0.00  0.00    +0.009 A 
ATOM     25  C   LIG    1      -26.769  78.653  12.991  0.00  0.00    +0.050 A 
BRANCH  21  26
ATOM     26  O   LIG    1      -27.452  75.381  14.544  0.00  0.00    -0.491 OA
ATOM     27  C   LIG    1      -27.154  74.121  13.919  0.00  0.00    +0.277 C 
ENDBRANCH  21  26
BRANCH  20  28
ATOM     28  O   LIG    1      -26.122  77.774  15.168  0.00  0.00    -0.484 OA
BRANCH  28  29
ATOM     29  C   LIG    1      -25.505  79.039  15.529  0.00  0.00    +0.266 C 
BRANCH  29  33
ATOM     30  C   LIG    1      -21.236  79.263  15.540  0.00  0.00    +0.214 A 
ATOM     31  N   LIG    1      -21.817  78.136  15.065  0.00  0.00    -0.221 NA
ATOM     32  C   LIG    1      -23.180  78.112  15.082  0.00  0.00    +0.121 A 
ATOM     33  C   LIG    1      -23.983  79.148  15.553  0.00  0.00    +0.008 A 
ATOM     34  C   LIG    1      -23.312  80.280  16.033  0.00  0.00    +0.013 A 
ATOM     35  C   LIG    1      -21.927  80.356  15.984  0.00  0.00    +0.067 A 
BRANCH  30  37
ATOM     36  C   LIG    1      -19.401  80.647  15.990  0.00  0.00    +0.279 C 
ATOM     37  O   LIG    1      -19.862  79.339  15.714  0.00  0.00    -0.480 OA
ENDBRANCH  30  37
ENDBRANCH  29  33
ENDBRANCH  28  29
ENDBRANCH  20  28
ENDBRANCH   1  23
TORSDOF 9
ENDMDL
MODEL 3
REMARK VINA RESULT:      -5.8     18.179     22.485
REMARK  Name = pdb/CHEMBL3673483.pdb
REMARK                            x       y       z     vdW  Elec       q    Type
REMARK                         _______ _______ _______ _____ _____    ______ ____
ROOT
ATOM      1  C   LIG    1      -28.385  77.715  10.432  0.00  0.00    +0.161 C 
ENDROOT
BRANCH   1   2
ATOM      2  N   LIG    1      -28.040  77.538  11.819  0.00  0.00    -0.293 N 
ATOM      3  C   LIG    1      -27.144  78.385  12.442  0.00  0.00    +0.162 A 
ATOM      4  N   LIG    1      -26.623  79.507  11.916  0.00  0.00    -0.235 NA
ATOM      5  C   LIG    1      -25.761  80.108  12.775  0.00  0.00    +0.123 A 
ATOM      6  C   LIG    1      -25.375  79.642  14.030  0.00  0.00    +0.022 A 
ATOM      7  C   LIG    1      -25.955  78.445  14.493  0.00  0.00    +0.043 A 
ATOM      8  C   LIG    1      -26.893  77.791  13.666  0.00  0.00    +0.110 A 
ATOM      9  N   LIG    1      -27.605  76.668  13.827  0.00  0.00    -0.213 NA
ATOM     10  C   LIG    1      -28.338  76.538  12.738  0.00  0.00    +0.195 A 
BRANCH   6  11
ATOM     11  C   LIG    1      -24.404  80.349  14.841  0.00  0.00    +0.094 A 
ATOM     12  N   LIG    1      -24.189  81.669  14.685  0.00  0.00    -0.171 NA
ATOM     13  N   LIG    1      -23.256  81.973  15.593  0.00  0.00    -0.274 N 
ATOM     14  C   LIG    1      -22.787  83.334  15.684  0.00  0.00    +0.172 C 
ATOM     15  C   LIG    1      -22.841  80.903  16.327  0.00  0.00    +0.108 A 
ATOM     16  C   LIG    1      -23.567  79.835  15.869  0.00  0.00    +0.049 A 
ENDBRANCH   6  11
BRANCH  10  17
ATOM     17  N   LIG    1      -29.245  75.552  12.597  0.00  0.00    -0.329 N 
ATOM     18  H   LIG    1      -29.179  74.840  13.305  0.00  0.00    +0.145 HD
ATOM     19  H   LIG    1      -30.183  75.813  12.456  0.00  0.00    +0.145 HD
ENDBRANCH  10  17
ENDBRANCH   1   2
BRANCH   1  23
ATOM     20  C   LIG    1      -32.308  79.487  10.417  0.00  0.00    +0.162 A 
ATOM     21  C   LIG    1      -32.164  78.080  10.417  0.00  0.00    +0.162 A 
ATOM     22  C   LIG    1      -30.875  77.552  10.288  0.00  0.00    +0.054 A 
ATOM     23  C   LIG    1      -29.741  78.366  10.241  0.00  0.00    -0.024 A 
ATOM     24  C   LIG    1      -29.877  79.737  10.252  0.00  0.00    +0.009 A 
ATOM     25  C   LIG    1      -31.148  80.288  10.393  0.00  0.00    +0.050 A 
BRANCH  21  26
ATOM     26  O   LIG    1      -33.243  77.269  10.677  0.00  0.00    -0.491 OA
ATOM     27  C   LIG    1      -33.851  76.564   9.582  0.00  0.00    +0.277 C 
ENDBRANCH  21  26
BRANCH  20  28
ATOM     28  O   LIG    1      -33.569  80.036  10.327  0.00  0.00    -0.484 OA
BRANCH  28  29
ATOM     29  C   LIG    1      -33.771  81.319   9.677  0.00  0.00    +0.266 C 
BRANCH  29  33
ATOM     30  C   LIG    1      -36.730  84.000  11.206  0.00  0.00    +0.214 A 
ATOM     31  N   LIG    1      -35.542  83.921  11.851  0.00  0.00    -0.221 NA
ATOM     32  C   LIG    1      -34.632  83.053  11.325  0.00  0.00    +0.121 A 
ATOM     33  C   LIG    1      -34.852  82.261  10.202  0.00  0.00    +0.008 A 
ATOM     34  C   LIG    1      -36.105  82.392   9.590  0.00  0.00    +0.013 A 
ATOM     35  C   LIG    1      -37.036  83.304  10.070  0.00  0.00    +0.067 A 
BRANCH  30  37
ATOM     36  C   LIG    1      -37.870  86.045  11.223  0.00  0.00    +0.279 C 
ATOM     37  O   LIG    1      -37.783  84.731  11.736  0.00  0.00    -0.480 OA
ENDBRANCH  30  37
ENDBRANCH  29  33
ENDBRANCH  28  29
ENDBRANCH  20  28
ENDBRANCH   1  23
TORSDOF 9
ENDMDL
MODEL 4
REMARK VINA RESULT:      -5.8      9.769     14.638
REMARK  Name = pdb/CHEMBL3673483.pdb
REMARK                            x       y       z     vdW  Elec       q    Type
REMARK                         _______ _______ _______ _____ _____    ______ ____
ROOT
ATOM      1  C   LIG    1      -30.791  87.187  33.619  0.00  0.00    +0.161 C 
ENDROOT
BRANCH   1   2
ATOM      2  N   LIG    1      -31.003  86.906  32.223  0.00  0.00    -0.293 N 
ATOM      3  C   LIG    1      -31.976  86.013  31.818  0.00  0.00    +0.162 A 
ATOM      4  N   LIG    1      -32.898  85.438  32.609  0.00  0.00    -0.235 NA
ATOM      5  C   LIG    1      -33.701  84.596  31.910  0.00  0.00    +0.123 A 
ATOM      6  C   LIG    1      -33.598  84.277  30.558  0.00  0.00    +0.022 A 
ATOM      7  C   LIG    1      -32.587  84.910  29.808  0.00  0.00    +0.043 A 
ATOM      8  C   LIG    1      -31.743  85.832  30.465  0.00  0.00    +0.110 A 
ATOM      9  N   LIG    1      -30.721  86.582  30.034  0.00  0.00    -0.213 NA
ATOM     10  C   LIG    1      -30.304  87.271  31.077  0.00  0.00    +0.195 A 
BRANCH   6  11
ATOM     11  C   LIG    1      -34.487  83.321  29.929  0.00  0.00    +0.094 A 
ATOM     12  N   LIG    1      -34.445  82.013  30.246  0.00  0.00    -0.171 NA
ATOM     13  N   LIG    1      -35.397  81.449  29.494  0.00  0.00    -0.274 N 
ATOM     14  C   LIG    1      -35.610  80.026  29.590  0.00  0.00    +0.172 C 
ATOM     15  C   LIG    1      -36.050  82.333  28.688  0.00  0.00    +0.108 A 
ATOM     16  C   LIG    1      -35.489  83.555  28.947  0.00  0.00    +0.049 A 
ENDBRANCH   6  11
BRANCH  10  17
ATOM     17  N   LIG    1      -29.332  88.200  30.983  0.00  0.00    -0.329 N 
ATOM     18  H   LIG    1      -28.866  88.205  30.091  0.00  0.00    +0.145 HD
ATOM     19  H   LIG    1      -29.550  89.117  31.265  0.00  0.00    +0.145 HD
ENDBRANCH  10  17
ENDBRANCH   1   2
BRANCH   1  23
ATOM     20  C   LIG    1      -27.419  85.472  35.673  0.00  0.00    +0.162 A 
ATOM     21  C   LIG    1      -27.340  86.782  35.148  0.00  0.00    +0.162 A 
ATOM     22  C   LIG    1      -28.409  87.246  34.375  0.00  0.00    +0.054 A 
ATOM     23  C   LIG    1      -29.567  86.490  34.181  0.00  0.00    -0.024 A 
ATOM     24  C   LIG    1      -29.652  85.217  34.701  0.00  0.00    +0.009 A 
ATOM     25  C   LIG    1      -28.607  84.736  35.485  0.00  0.00    +0.050 A 
BRANCH  21  26
ATOM     26  O   LIG    1      -26.306  87.616  35.505  0.00  0.00    -0.491 OA
ATOM     27  C   LIG    1      -26.615  88.965  35.893  0.00  0.00    +0.277 C 
ENDBRANCH  21  26
BRANCH  20  28
ATOM     28  O   LIG    1      -26.302  84.908  36.253  0.00  0.00    -0.484 OA
BRANCH  28  29
ATOM     29  C   LIG    1      -26.386  83.619  36.916  0.00  0.00    +0.266 C 
BRANCH  29  33
ATOM     30  C   LIG    1      -22.779  81.525  37.857  0.00  0.00    +0.214 A 
ATOM     31  N   LIG    1      -23.055  82.664  38.535  0.00  0.00    -0.221 NA
ATOM     32  C   LIG    1      -24.216  83.295  38.200  0.00  0.00    +0.121 A 
ATOM     33  C   LIG    1      -25.103  82.851  37.223  0.00  0.00    +0.008 A 
ATOM     34  C   LIG    1      -24.750  81.669  36.560  0.00  0.00    +0.013 A 
ATOM     35  C   LIG    1      -23.600  80.975  36.912  0.00  0.00    +0.067 A 
BRANCH  30  37
ATOM     36  C   LIG    1      -20.450  81.708  37.704  0.00  0.00    +0.279 C 
ATOM     37  O   LIG    1      -21.559  80.883  38.004  0.00  0.00    -0.480 OA
ENDBRANCH  30  37
ENDBRANCH  29  33
ENDBRANCH  28  29
ENDBRANCH  20  28
ENDBRANCH   1  23
TORSDOF 9
ENDMDL
MODEL 5
REMARK VINA RESULT:      -5.7     17.232     21.506
REMARK  Name = pdb/CHEMBL3673483.pdb
REMARK                            x       y       z     vdW  Elec       q    Type
REMARK                         _______ _______ _______ _____ _____    ______ ____
ROOT
ATOM      1  C   LIG    1      -39.942  71.375  24.620  0.00  0.00    +0.161 C 
ENDROOT
BRANCH   1   2
ATOM      2  N   LIG    1      -38.728  70.854  24.049  0.00  0.00    -0.293 N 
ATOM      3  C   LIG    1      -38.760  70.041  22.932  0.00  0.00    +0.162 A 
ATOM      4  N   LIG    1      -39.845  69.767  22.186  0.00  0.00    -0.235 NA
ATOM      5  C   LIG    1      -39.550  68.922  21.167  0.00  0.00    +0.123 A 
ATOM      6  C   LIG    1      -38.316  68.329  20.906  0.00  0.00    +0.022 A 
ATOM      7  C   LIG    1      -37.238  68.655  21.753  0.00  0.00    +0.043 A 
ATOM      8  C   LIG    1      -37.467  69.564  22.809  0.00  0.00    +0.110 A 
ATOM      9  N   LIG    1      -36.662  70.065  23.754  0.00  0.00    -0.213 NA
ATOM     10  C   LIG    1      -37.404  70.884  24.473  0.00  0.00    +0.195 A 
BRANCH   6  11
ATOM     11  C   LIG    1      -38.132  67.398  19.810  0.00  0.00    +0.094 A 
ATOM     12  N   LIG    1      -38.716  66.185  19.817  0.00  0.00    -0.171 NA
ATOM     13  N   LIG    1      -38.342  65.620  18.664  0.00  0.00    -0.274 N 
ATOM     14  C   LIG    1      -38.799  64.287  18.360  0.00  0.00    +0.172 C 
ATOM     15  C   LIG    1      -37.525  66.408  17.911  0.00  0.00    +0.108 A 
ATOM     16  C   LIG    1      -37.371  67.570  18.621  0.00  0.00    +0.049 A 
ENDBRANCH   6  11
BRANCH  10  17
ATOM     17  N   LIG    1      -36.890  71.632  25.469  0.00  0.00    -0.329 N 
ATOM     18  H   LIG    1      -35.891  71.550  25.559  0.00  0.00    +0.145 HD
ATOM     19  H   LIG    1      -37.165  72.576  25.518  0.00  0.00    +0.145 HD
ENDBRANCH  10  17
ENDBRANCH   1   2
BRANCH   1  23
ATOM     20  C   LIG    1      -41.297  75.311  23.522  0.00  0.00    +0.162 A 
ATOM     21  C   LIG    1      -42.099  74.180  23.244  0.00  0.00    +0.162 A 
ATOM     22  C   LIG    1      -41.561  72.914  23.497  0.00  0.00    +0.054 A 
ATOM     23  C   LIG    1      -40.304  72.747  24.084  0.00  0.00    -0.024 A 
ATOM     24  C   LIG    1      -39.525  73.847  24.367  0.00  0.00    +0.009 A 
ATOM     25  C   LIG    1      -40.042  75.119  24.136  0.00  0.00    +0.050 A 
BRANCH  21  26
ATOM     26  O   LIG    1      -43.413  74.333  22.869  0.00  0.00    -0.491 OA
ATOM     27  C   LIG    1      -43.847  73.744  21.632  0.00  0.00    +0.277 C 
ENDBRANCH  21  26
BRANCH  20  28
ATOM     28  O   LIG    1      -41.708  76.554  23.089  0.00  0.00    -0.484 OA
BRANCH  28  29
ATOM     29  C   LIG    1      -41.951  77.624  24.040  0.00  0.00    +0.266 C 
BRANCH  29  33
ATOM     30  C   LIG    1      -40.260  81.500  23.412  0.00  0.00    +0.214 A 
ATOM     31  N   LIG    1      -41.584  81.415  23.681  0.00  0.00    -0.221 NA
ATOM     32  C   LIG    1      -42.076  80.158  23.875  0.00  0.00    +0.121 A 
ATOM     33  C   LIG    1      -41.317  78.993  23.804  0.00  0.00    +0.008 A 
ATOM     34  C   LIG    1      -39.956  79.158  23.517  0.00  0.00    +0.013 A 
ATOM     35  C   LIG    1      -39.414  80.427  23.365  0.00  0.00    +0.067 A 
BRANCH  30  37
ATOM     36  C   LIG    1      -38.669  83.137  23.937  0.00  0.00    +0.279 C 
ATOM     37  O   LIG    1      -39.681  82.707  23.048  0.00  0.00    -0.480 OA
ENDBRANCH  30  37
ENDBRANCH  29  33
ENDBRANCH  28  29
ENDBRANCH  20  28
ENDBRANCH   1  23
TORSDOF 9
ENDMDL
MODEL 6
REMARK VINA RESULT:      -5.7     17.934     20.595
REMARK  Name = pdb/CHEMBL3673483.pdb
REMARK                            x       y       z     vdW  Elec       q    Type
REMARK                         _______ _______ _______ _____ _____    ______ ____
ROOT
ATOM      1  C   LIG    1      -22.174  82.608  14.435  0.00  0.00    +0.161 C 
ENDROOT
BRANCH   1   2
ATOM      2  N   LIG    1      -22.436  83.943  14.904  0.00  0.00    -0.293 N 
ATOM      3  C   LIG    1      -22.512  85.004  14.023  0.00  0.00    +0.162 A 
ATOM      4  N   LIG    1      -22.504  84.917  12.681  0.00  0.00    -0.235 NA
ATOM      5  C   LIG    1      -22.576  86.142  12.101  0.00  0.00    +0.123 A 
ATOM      6  C   LIG    1      -22.598  87.373  12.753  0.00  0.00    +0.022 A 
ATOM      7  C   LIG    1      -22.581  87.371  14.162  0.00  0.00    +0.043 A 
ATOM      8  C   LIG    1      -22.550  86.128  14.830  0.00  0.00    +0.110 A 
ATOM      9  N   LIG    1      -22.536  85.805  16.129  0.00  0.00    -0.213 NA
ATOM     10  C   LIG    1      -22.521  84.487  16.181  0.00  0.00    +0.195 A 
BRANCH   6  11
ATOM     11  C   LIG    1      -22.627  88.624  12.022  0.00  0.00    +0.094 A 
ATOM     12  N   LIG    1      -23.776  89.304  11.845  0.00  0.00    -0.171 NA
ATOM     13  N   LIG    1      -23.424  90.393  11.151  0.00  0.00    -0.274 N 
ATOM     14  C   LIG    1      -24.443  91.345  10.784  0.00  0.00    +0.172 C 
ATOM     15  C   LIG    1      -22.095  90.444  10.855  0.00  0.00    +0.108 A 
ATOM     16  C   LIG    1      -21.548  89.317  11.407  0.00  0.00    +0.049 A 
ENDBRANCH   6  11
BRANCH  10  17
ATOM     17  N   LIG    1      -22.589  83.814  17.347  0.00  0.00    -0.329 N 
ATOM     18  H   LIG    1      -23.406  83.233  17.428  0.00  0.00    +0.145 HD
ATOM     19  H   LIG    1      -21.787  83.325  17.637  0.00  0.00    +0.145 HD
ENDBRANCH  10  17
ENDBRANCH   1   2
BRANCH   1  23
ATOM     20  C   LIG    1      -25.315  79.666  14.533  0.00  0.00    +0.162 A 
ATOM     21  C   LIG    1      -25.277  80.630  13.499  0.00  0.00    +0.162 A 
ATOM     22  C   LIG    1      -24.318  81.645  13.583  0.00  0.00    +0.054 A 
ATOM     23  C   LIG    1      -23.363  81.680  14.601  0.00  0.00    -0.024 A 
ATOM     24  C   LIG    1      -23.390  80.736  15.604  0.00  0.00    +0.009 A 
ATOM     25  C   LIG    1      -24.326  79.708  15.537  0.00  0.00    +0.050 A 
BRANCH  21  26
ATOM     26  O   LIG    1      -26.067  80.488  12.383  0.00  0.00    -0.491 OA
ATOM     27  C   LIG    1      -25.523  80.859  11.105  0.00  0.00    +0.277 C 
ENDBRANCH  21  26
BRANCH  20  28
ATOM     28  O   LIG    1      -26.374  78.785  14.596  0.00  0.00    -0.484 OA
BRANCH  28  29
ATOM     29  C   LIG    1      -26.290  77.484  13.957  0.00  0.00    +0.266 C 
BRANCH  29  33
ATOM     30  C   LIG    1      -29.387  76.378  11.225  0.00  0.00    +0.214 A 
ATOM     31  N   LIG    1      -29.363  77.652  11.686  0.00  0.00    -0.221 NA
ATOM     32  C   LIG    1      -28.357  77.955  12.553  0.00  0.00    +0.121 A 
ATOM     33  C   LIG    1      -27.387  77.055  12.986  0.00  0.00    +0.008 A 
ATOM     34  C   LIG    1      -27.478  75.755  12.471  0.00  0.00    +0.013 A 
ATOM     35  C   LIG    1      -28.460  75.427  11.547  0.00  0.00    +0.067 A 
BRANCH  30  37
ATOM     36  C   LIG    1      -31.556  76.792  10.446  0.00  0.00    +0.279 C 
ATOM     37  O   LIG    1      -30.448  75.915  10.460  0.00  0.00    -0.480 OA
ENDBRANCH  30  37
ENDBRANCH  29  33
ENDBRANCH  28  29
ENDBRANCH  20  28
ENDBRANCH   1  23
TORSDOF 9
ENDMDL
MODEL 7
REMARK VINA RESULT:      -5.6     17.992     22.133
REMARK  Name = pdb/CHEMBL3673483.pdb
REMARK                            x       y       z     vdW  Elec       q    Type
REMARK                         _______ _______ _______ _____ _____    ______ ____
ROOT
ATOM      1  C   LIG    1      -27.882  77.560  10.903  0.00  0.00    +0.161 C 
ENDROOT
BRANCH   1   2
ATOM      2  N   LIG    1      -27.571  77.514  12.307  0.00  0.00    -0.293 N 
ATOM      3  C   LIG    1      -26.704  78.430  12.873  0.00  0.00    +0.162 A 
ATOM      4  N   LIG    1      -26.187  79.509  12.261  0.00  0.00    -0.235 NA
ATOM      5  C   LIG    1      -25.357  80.199  13.084  0.00  0.00    +0.123 A 
ATOM      6  C   LIG    1      -24.997  79.855  14.384  0.00  0.00    +0.022 A 
ATOM      7  C   LIG    1      -25.570  78.693  14.939  0.00  0.00    +0.043 A 
ATOM      8  C   LIG    1      -26.477  77.952  14.152  0.00  0.00    +0.110 A 
ATOM      9  N   LIG    1      -27.175  76.836  14.395  0.00  0.00    -0.213 NA
ATOM     10  C   LIG    1      -27.877  76.595  13.305  0.00  0.00    +0.195 A 
BRANCH   6  11
ATOM     11  C   LIG    1      -24.058  80.648  15.153  0.00  0.00    +0.094 A 
ATOM     12  N   LIG    1      -23.953  81.979  14.971  0.00  0.00    -0.171 NA
ATOM     13  N   LIG    1      -23.017  82.369  15.843  0.00  0.00    -0.274 N 
ATOM     14  C   LIG    1      -22.655  83.764  15.899  0.00  0.00    +0.172 C 
ATOM     15  C   LIG    1      -22.495  81.347  16.576  0.00  0.00    +0.108 A 
ATOM     16  C   LIG    1      -23.150  80.218  16.158  0.00  0.00    +0.049 A 
ENDBRANCH   6  11
BRANCH  10  17
ATOM     17  N   LIG    1      -28.765  75.584  13.231  0.00  0.00    -0.329 N 
ATOM     18  H   LIG    1      -29.365  75.517  14.035  0.00  0.00    +0.145 HD
ATOM     19  H   LIG    1      -29.286  75.497  12.401  0.00  0.00    +0.145 HD
ENDBRANCH  10  17
ENDBRANCH   1   2
BRANCH   1  23
ATOM     20  C   LIG    1      -31.672  79.350   9.921  0.00  0.00    +0.162 A 
ATOM     21  C   LIG    1      -30.765  79.000   8.894  0.00  0.00    +0.162 A 
ATOM     22  C   LIG    1      -29.495  78.546   9.267  0.00  0.00    +0.054 A 
ATOM     23  C   LIG    1      -29.138  78.357  10.604  0.00  0.00    -0.024 A 
ATOM     24  C   LIG    1      -30.024  78.686  11.606  0.00  0.00    +0.009 A 
ATOM     25  C   LIG    1      -31.299  79.127  11.262  0.00  0.00    +0.050 A 
BRANCH  21  26
ATOM     26  O   LIG    1      -31.172  78.977   7.581  0.00  0.00    -0.491 OA
ATOM     27  C   LIG    1      -31.708  77.754   7.050  0.00  0.00    +0.277 C 
ENDBRANCH  21  26
BRANCH  20  28
ATOM     28  O   LIG    1      -32.845  79.998   9.594  0.00  0.00    -0.484 OA
BRANCH  28  29
ATOM     29  C   LIG    1      -33.641  80.646  10.621  0.00  0.00    +0.266 C 
BRANCH  29  33
ATOM     30  C   LIG    1      -33.239  84.873  11.120  0.00  0.00    +0.214 A 
ATOM     31  N   LIG    1      -32.120  84.145  10.894  0.00  0.00    -0.221 NA
ATOM     32  C   LIG    1      -32.299  82.803  10.741  0.00  0.00    +0.121 A 
ATOM     33  C   LIG    1      -33.531  82.157  10.810  0.00  0.00    +0.008 A 
ATOM     34  C   LIG    1      -34.643  82.974  11.051  0.00  0.00    +0.013 A 
ATOM     35  C   LIG    1      -34.501  84.350  11.161  0.00  0.00    +0.067 A 
BRANCH  30  37
ATOM     36  C   LIG    1      -31.966  86.836  11.005  0.00  0.00    +0.279 C 
ATOM     37  O   LIG    1      -33.162  86.220  11.441  0.00  0.00    -0.480 OA
ENDBRANCH  30  37
ENDBRANCH  29  33
ENDBRANCH  28  29
ENDBRANCH  20  28
ENDBRANCH   1  23
TORSDOF 9
ENDMDL
MODEL 8
REMARK VINA RESULT:      -5.6     10.436     12.427
REMARK  Name = pdb/CHEMBL3673483.pdb
REMARK                            x       y       z     vdW  Elec       q    Type
REMARK                         _______ _______ _______ _____ _____    ______ ____
ROOT
ATOM      1  C   LIG    1      -36.059  82.508  30.153  0.00  0.00    +0.161 C 
ENDROOT
BRANCH   1   2
ATOM      2  N   LIG    1      -35.397  83.580  29.456  0.00  0.00    -0.293 N 
ATOM      3  C   LIG    1      -34.281  84.194  29.991  0.00  0.00    +0.162 A 
ATOM      4  N   LIG    1      -33.615  83.799  31.090  0.00  0.00    -0.235 NA
ATOM      5  C   LIG    1      -32.571  84.622  31.364  0.00  0.00    +0.123 A 
ATOM      6  C   LIG    1      -32.218  85.779  30.671  0.00  0.00    +0.022 A 
ATOM      7  C   LIG    1      -32.987  86.130  29.544  0.00  0.00    +0.043 A 
ATOM      8  C   LIG    1      -34.061  85.292  29.178  0.00  0.00    +0.110 A 
ATOM      9  N   LIG    1      -34.949  85.352  28.177  0.00  0.00    -0.213 NA
ATOM     10  C   LIG    1      -35.725  84.294  28.308  0.00  0.00    +0.195 A 
BRANCH   6  11
ATOM     11  C   LIG    1      -31.106  86.609  31.089  0.00  0.00    +0.094 A 
ATOM     12  N   LIG    1      -30.842  86.822  32.392  0.00  0.00    -0.171 NA
ATOM     13  N   LIG    1      -29.760  87.608  32.396  0.00  0.00    -0.274 N 
ATOM     14  C   LIG    1      -29.213  88.035  33.661  0.00  0.00    +0.172 C 
ATOM     15  C   LIG    1      -29.314  87.930  31.150  0.00  0.00    +0.108 A 
ATOM     16  C   LIG    1      -30.161  87.296  30.279  0.00  0.00    +0.049 A 
ENDBRANCH   6  11
BRANCH  10  17
ATOM     17  N   LIG    1      -36.685  83.992  27.413  0.00  0.00    -0.329 N 
ATOM     18  H   LIG    1      -37.607  83.944  27.812  0.00  0.00    +0.145 HD
ATOM     19  H   LIG    1      -36.698  84.501  26.571  0.00  0.00    +0.145 HD
ENDBRANCH  10  17
ENDBRANCH   1   2
BRANCH   1  23
ATOM     20  C   LIG    1      -35.178  78.902  27.973  0.00  0.00    +0.162 A 
ATOM     21  C   LIG    1      -36.468  79.476  27.906  0.00  0.00    +0.162 A 
ATOM     22  C   LIG    1      -36.746  80.569  28.734  0.00  0.00    +0.054 A 
ATOM     23  C   LIG    1      -35.771  81.147  29.550  0.00  0.00    -0.024 A 
ATOM     24  C   LIG    1      -34.509  80.597  29.609  0.00  0.00    +0.009 A 
ATOM     25  C   LIG    1      -34.204  79.517  28.786  0.00  0.00    +0.050 A 
BRANCH  21  26
ATOM     26  O   LIG    1      -37.369  79.056  26.956  0.00  0.00    -0.491 OA
ATOM     27  C   LIG    1      -38.440  78.187  27.361  0.00  0.00    +0.277 C 
ENDBRANCH  21  26
BRANCH  20  28
ATOM     28  O   LIG    1      -34.938  77.703  27.337  0.00  0.00    -0.484 OA
BRANCH  28  29
ATOM     29  C   LIG    1      -33.583  77.201  27.194  0.00  0.00    +0.266 C 
BRANCH  29  33
ATOM     30  C   LIG    1      -32.229  74.007  29.693  0.00  0.00    +0.214 A 
ATOM     31  N   LIG    1      -31.582  75.194  29.763  0.00  0.00    -0.221 NA
ATOM     32  C   LIG    1      -32.051  76.181  28.948  0.00  0.00    +0.121 A 
ATOM     33  C   LIG    1      -33.120  76.038  28.068  0.00  0.00    +0.008 A 
ATOM     34  C   LIG    1      -33.738  74.781  28.047  0.00  0.00    +0.013 A 
ATOM     35  C   LIG    1      -33.317  73.771  28.900  0.00  0.00    +0.067 A 
BRANCH  30  37
ATOM     36  C   LIG    1      -30.438  73.058  30.866  0.00  0.00    +0.279 C 
ATOM     37  O   LIG    1      -31.748  72.890  30.360  0.00  0.00    -0.480 OA
ENDBRANCH  30  37
ENDBRANCH  29  33
ENDBRANCH  28  29
ENDBRANCH  20  28
ENDBRANCH   1  23
TORSDOF 9
ENDMDL
MODEL 9
REMARK VINA RESULT:      -5.6     15.600     17.435
REMARK  Name = pdb/CHEMBL3673483.pdb
REMARK                            x       y       z     vdW  Elec       q    Type
REMARK                         _______ _______ _______ _____ _____    ______ ____
ROOT
ATOM      1  C   LIG    1      -40.930  78.611  23.859  0.00  0.00    +0.161 C 
ENDROOT
BRANCH   1   2
ATOM      2  N   LIG    1      -40.669  79.533  24.933  0.00  0.00    -0.293 N 
ATOM      3  C   LIG    1      -39.938  80.686  24.718  0.00  0.00    +0.162 A 
ATOM      4  N   LIG    1      -39.530  81.149  23.524  0.00  0.00    -0.235 NA
ATOM      5  C   LIG    1      -38.819  82.298  23.652  0.00  0.00    +0.123 A 
ATOM      6  C   LIG    1      -38.470  82.935  24.840  0.00  0.00    +0.022 A 
ATOM      7  C   LIG    1      -38.923  82.367  26.048  0.00  0.00    +0.043 A 
ATOM      8  C   LIG    1      -39.705  81.193  25.984  0.00  0.00    +0.110 A 
ATOM      9  N   LIG    1      -40.275  80.440  26.933  0.00  0.00    -0.213 NA
ATOM     10  C   LIG    1      -40.902  79.466  26.303  0.00  0.00    +0.195 A 
BRANCH   6  11
ATOM     11  C   LIG    1      -37.662  84.138  24.854  0.00  0.00    +0.094 A 
ATOM     12  N   LIG    1      -38.032  85.238  24.170  0.00  0.00    -0.171 NA
ATOM     13  N   LIG    1      -37.072  86.135  24.421  0.00  0.00    -0.274 N 
ATOM     14  C   LIG    1      -37.165  87.442  23.820  0.00  0.00    +0.172 C 
ATOM     15  C   LIG    1      -36.082  85.662  25.229  0.00  0.00    +0.108 A 
ATOM     16  C   LIG    1      -36.434  84.373  25.532  0.00  0.00    +0.049 A 
ENDBRANCH   6  11
BRANCH  10  17
ATOM     17  N   LIG    1      -41.661  78.562  26.953  0.00  0.00    -0.329 N 
ATOM     18  H   LIG    1      -41.239  78.217  27.798  0.00  0.00    +0.145 HD
ATOM     19  H   LIG    1      -42.607  78.786  27.104  0.00  0.00    +0.145 HD
ENDBRANCH  10  17
ENDBRANCH   1   2
BRANCH   1  23
ATOM     20  C   LIG    1      -38.655  75.054  24.698  0.00  0.00    +0.162 A 
ATOM     21  C   LIG    1      -38.037  76.324  24.764  0.00  0.00    +0.162 A 
ATOM     22  C   LIG    1      -38.779  77.437  24.355  0.00  0.00    +0.054 A 
ATOM     23  C   LIG    1      -40.117  77.335  23.967  0.00  0.00    -0.024 A 
ATOM     24  C   LIG    1      -40.725  76.100  23.913  0.00  0.00    +0.009 A 
ATOM     25  C   LIG    1      -40.013  74.978  24.327  0.00  0.00    +0.050 A 
BRANCH  21  26
ATOM     26  O   LIG    1      -36.799  76.468  25.343  0.00  0.00    -0.491 OA
ATOM     27  C   LIG    1      -36.719  76.581  26.774  0.00  0.00    +0.277 C 
ENDBRANCH  21  26
BRANCH  20  28
ATOM     28  O   LIG    1      -37.891  73.921  24.888  0.00  0.00    -0.484 OA
BRANCH  28  29
ATOM     29  C   LIG    1      -38.508  72.679  25.319  0.00  0.00    +0.266 C 
BRANCH  29  33
ATOM     30  C   LIG    1      -38.213  69.231  22.809  0.00  0.00    +0.214 A 
ATOM     31  N   LIG    1      -37.080  69.713  23.372  0.00  0.00    -0.221 NA
ATOM     32  C   LIG    1      -37.225  70.812  24.164  0.00  0.00    +0.121 A 
ATOM     33  C   LIG    1      -38.436  71.453  24.412  0.00  0.00    +0.008 A 
ATOM     34  C   LIG    1      -39.565  70.902  23.792  0.00  0.00    +0.013 A 
ATOM     35  C   LIG    1      -39.459  69.754  23.020  0.00  0.00    +0.067 A 
BRANCH  30  37
ATOM     36  C   LIG    1      -39.038  68.420  20.772  0.00  0.00    +0.279 C 
ATOM     37  O   LIG    1      -38.166  68.214  21.866  0.00  0.00    -0.480 OA
ENDBRANCH  30  37
ENDBRANCH  29  33
ENDBRANCH  28  29
ENDBRANCH  20  28
ENDBRANCH   1  23
TORSDOF 9
ENDMDL
