MODEL 1
REMARK VINA RESULT:      -6.0      0.000      0.000
REMARK  Name = pdb/CHEMBL3675915.pdb
REMARK                            x       y       z     vdW  Elec       q    Type
REMARK                         _______ _______ _______ _____ _____    ______ ____
ROOT
ATOM      1  C   LIG    1      -23.534  79.561  34.947  0.00  0.00    +0.126 A 
ATOM      2  N   LIG    1      -23.631  78.984  33.763  0.00  0.00    -0.212 NA
ATOM      3  C   LIG    1      -24.775  78.273  33.478  0.00  0.00    +0.170 A 
ATOM      4  C   LIG    1      -25.206  77.591  32.351  0.00  0.00    +0.100 A 
ATOM      5  C   LIG    1      -26.469  77.070  32.711  0.00  0.00    +0.150 A 
ATOM      6  N   LIG    1      -26.832  77.384  33.952  0.00  0.00    -0.173 NA
ATOM      7  N   LIG    1      -25.807  78.133  34.413  0.00  0.00    -0.221 N 
ATOM      8  C   LIG    1      -25.720  78.735  35.652  0.00  0.00    +0.118 A 
ATOM      9  C   LIG    1      -24.644  79.456  35.972  0.00  0.00    +0.063 A 
ENDROOT
BRANCH   1  11
ATOM     10  C   LIG    1      -21.193  79.704  35.894  0.00  0.00    +0.105 C 
ATOM     11  N   LIG    1      -22.397  80.291  35.277  0.00  0.00    -0.308 N 
ATOM     12  C   LIG    1      -22.348  81.747  35.370  0.00  0.00    +0.107 C 
ATOM     13  C   LIG    1      -21.422  82.008  36.543  0.00  0.00    +0.021 C 
ATOM     14  C   LIG    1      -20.378  80.919  36.385  0.00  0.00    +0.029 C 
BRANCH  10  18
ATOM     15  F   LIG    1      -19.036  75.494  34.554  0.00  0.00    -0.205 F 
ATOM     16  C   LIG    1      -19.318  76.776  34.284  0.00  0.00    +0.124 A 
ATOM     17  C   LIG    1      -20.083  77.511  35.183  0.00  0.00    +0.043 A 
ATOM     18  C   LIG    1      -20.377  78.861  34.930  0.00  0.00    -0.024 A 
ATOM     19  C   LIG    1      -19.916  79.424  33.728  0.00  0.00    +0.005 A 
ATOM     20  C   LIG    1      -19.148  78.676  32.828  0.00  0.00    +0.003 A 
ATOM     21  C   LIG    1      -18.843  77.348  33.111  0.00  0.00    +0.038 A 
ENDBRANCH  10  18
ENDBRANCH   1  11
BRANCH   4  22
ATOM     22  C   LIG    1      -24.577  77.405  31.060  0.00  0.00    +0.249 C 
ATOM     23  N   LIG    1      -23.210  77.594  31.023  0.00  0.00    -0.308 N 
ATOM     24  H   LIG    1      -22.750  77.863  31.890  0.00  0.00    +0.149 HD
ATOM     25  O   LIG    1      -25.237  77.096  30.074  0.00  0.00    -0.270 OA
BRANCH  23  26
ATOM     26  C   LIG    1      -22.466  77.459  29.811  0.00  0.00    +0.073 C 
ATOM     27  C   LIG    1      -21.799  76.165  29.442  0.00  0.00    +0.024 C 
ATOM     28  C   LIG    1      -20.967  77.349  29.841  0.00  0.00    +0.024 C 
ENDBRANCH  23  26
ENDBRANCH   4  22
TORSDOF 4
ENDMDL
MODEL 2
REMARK VINA RESULT:      -5.8      2.612      5.067
REMARK  Name = pdb/CHEMBL3675915.pdb
REMARK                            x       y       z     vdW  Elec       q    Type
REMARK                         _______ _______ _______ _____ _____    ______ ____
ROOT
ATOM      1  C   LIG    1      -20.013  79.015  33.933  0.00  0.00    +0.126 A 
ATOM      2  N   LIG    1      -20.568  78.556  32.826  0.00  0.00    -0.212 NA
ATOM      3  C   LIG    1      -19.781  77.836  31.954  0.00  0.00    +0.170 A 
ATOM      4  C   LIG    1      -20.045  77.199  30.752  0.00  0.00    +0.100 A 
ATOM      5  C   LIG    1      -18.804  76.650  30.360  0.00  0.00    +0.150 A 
ATOM      6  N   LIG    1      -17.823  76.899  31.224  0.00  0.00    -0.173 NA
ATOM      7  N   LIG    1      -18.424  77.608  32.205  0.00  0.00    -0.221 N 
ATOM      8  C   LIG    1      -17.833  78.077  33.360  0.00  0.00    +0.118 A 
ATOM      9  C   LIG    1      -18.554  78.761  34.251  0.00  0.00    +0.063 A 
ENDROOT
BRANCH   1  11
ATOM     10  C   LIG    1      -22.187  80.097  34.639  0.00  0.00    +0.105 C 
ATOM     11  N   LIG    1      -20.769  79.745  34.843  0.00  0.00    -0.308 N 
ATOM     12  C   LIG    1      -20.211  80.532  35.938  0.00  0.00    +0.107 C 
ATOM     13  C   LIG    1      -21.106  81.756  36.005  0.00  0.00    +0.021 C 
ATOM     14  C   LIG    1      -22.474  81.176  35.704  0.00  0.00    +0.029 C 
BRANCH  10  18
ATOM     15  F   LIG    1      -26.315  77.648  33.576  0.00  0.00    -0.205 F 
ATOM     16  C   LIG    1      -25.168  77.719  34.265  0.00  0.00    +0.124 A 
ATOM     17  C   LIG    1      -24.325  78.810  34.077  0.00  0.00    +0.043 A 
ATOM     18  C   LIG    1      -23.126  78.915  34.801  0.00  0.00    -0.024 A 
ATOM     19  C   LIG    1      -22.788  77.870  35.678  0.00  0.00    +0.005 A 
ATOM     20  C   LIG    1      -23.642  76.776  35.859  0.00  0.00    +0.003 A 
ATOM     21  C   LIG    1      -24.841  76.704  35.154  0.00  0.00    +0.038 A 
ENDBRANCH  10  18
ENDBRANCH   1  11
BRANCH   4  22
ATOM     22  C   LIG    1      -21.276  77.070  30.001  0.00  0.00    +0.249 C 
ATOM     23  N   LIG    1      -22.421  77.499  30.641  0.00  0.00    -0.308 N 
ATOM     24  H   LIG    1      -22.322  77.855  31.590  0.00  0.00    +0.149 HD
ATOM     25  O   LIG    1      -21.278  76.610  28.864  0.00  0.00    -0.270 OA
BRANCH  23  26
ATOM     26  C   LIG    1      -23.705  77.414  30.021  0.00  0.00    +0.073 C 
ATOM     27  C   LIG    1      -24.856  78.261  30.485  0.00  0.00    +0.024 C 
ATOM     28  C   LIG    1      -24.863  76.782  30.741  0.00  0.00    +0.024 C 
ENDBRANCH  23  26
ENDBRANCH   4  22
TORSDOF 4
ENDMDL
MODEL 3
REMARK VINA RESULT:      -5.5      2.202      5.173
REMARK  Name = pdb/CHEMBL3675915.pdb
REMARK                            x       y       z     vdW  Elec       q    Type
REMARK                         _______ _______ _______ _____ _____    ______ ____
ROOT
ATOM      1  C   LIG    1      -21.166  76.838  31.108  0.00  0.00    +0.126 A 
ATOM      2  N   LIG    1      -22.064  77.121  32.033  0.00  0.00    -0.212 NA
ATOM      3  C   LIG    1      -23.379  77.259  31.644  0.00  0.00    +0.170 A 
ATOM      4  C   LIG    1      -24.548  77.514  32.343  0.00  0.00    +0.100 A 
ATOM      5  C   LIG    1      -25.555  77.541  31.353  0.00  0.00    +0.150 A 
ATOM      6  N   LIG    1      -25.092  77.321  30.126  0.00  0.00    -0.173 NA
ATOM      7  N   LIG    1      -23.766  77.132  30.306  0.00  0.00    -0.221 N 
ATOM      8  C   LIG    1      -22.839  76.831  29.329  0.00  0.00    +0.118 A 
ATOM      9  C   LIG    1      -21.555  76.664  29.654  0.00  0.00    +0.063 A 
ENDROOT
BRANCH   1  11
ATOM     10  C   LIG    1      -18.956  77.803  31.870  0.00  0.00    +0.105 C 
ATOM     11  N   LIG    1      -19.828  76.688  31.455  0.00  0.00    -0.308 N 
ATOM     12  C   LIG    1      -19.024  75.509  31.153  0.00  0.00    +0.107 C 
ATOM     13  C   LIG    1      -17.655  76.073  30.822  0.00  0.00    +0.021 C 
ATOM     14  C   LIG    1      -17.528  77.222  31.804  0.00  0.00    +0.029 C 
BRANCH  10  18
ATOM     15  F   LIG    1      -21.080  80.986  34.957  0.00  0.00    -0.205 F 
ATOM     16  C   LIG    1      -20.320  79.897  34.775  0.00  0.00    +0.124 A 
ATOM     17  C   LIG    1      -20.073  79.446  33.482  0.00  0.00    +0.043 A 
ATOM     18  C   LIG    1      -19.265  78.318  33.264  0.00  0.00    -0.024 A 
ATOM     19  C   LIG    1      -18.758  77.641  34.387  0.00  0.00    +0.005 A 
ATOM     20  C   LIG    1      -19.013  78.102  35.684  0.00  0.00    +0.003 A 
ATOM     21  C   LIG    1      -19.792  79.239  35.877  0.00  0.00    +0.038 A 
ENDBRANCH  10  18
ENDBRANCH   1  11
BRANCH   4  22
ATOM     22  C   LIG    1      -24.779  77.714  33.758  0.00  0.00    +0.249 C 
ATOM     23  N   LIG    1      -23.778  77.274  34.600  0.00  0.00    -0.308 N 
ATOM     24  H   LIG    1      -22.967  76.831  34.173  0.00  0.00    +0.149 HD
ATOM     25  O   LIG    1      -25.806  78.249  34.162  0.00  0.00    -0.270 OA
BRANCH  23  26
ATOM     26  C   LIG    1      -23.883  77.395  36.020  0.00  0.00    +0.073 C 
ATOM     27  C   LIG    1      -23.288  78.564  36.752  0.00  0.00    +0.024 C 
ATOM     28  C   LIG    1      -22.677  77.201  36.897  0.00  0.00    +0.024 C 
ENDBRANCH  23  26
ENDBRANCH   4  22
TORSDOF 4
ENDMDL
MODEL 4
REMARK VINA RESULT:      -5.5      2.467      5.418
REMARK  Name = pdb/CHEMBL3675915.pdb
REMARK                            x       y       z     vdW  Elec       q    Type
REMARK                         _______ _______ _______ _____ _____    ______ ____
ROOT
ATOM      1  C   LIG    1      -25.309  76.600  33.973  0.00  0.00    +0.126 A 
ATOM      2  N   LIG    1      -24.260  77.396  34.070  0.00  0.00    -0.212 NA
ATOM      3  C   LIG    1      -24.393  78.562  34.791  0.00  0.00    +0.170 A 
ATOM      4  C   LIG    1      -23.508  79.579  35.112  0.00  0.00    +0.100 A 
ATOM      5  C   LIG    1      -24.275  80.492  35.870  0.00  0.00    +0.150 A 
ATOM      6  N   LIG    1      -25.538  80.109  36.032  0.00  0.00    -0.173 NA
ATOM      7  N   LIG    1      -25.606  78.923  35.389  0.00  0.00    -0.221 N 
ATOM      8  C   LIG    1      -26.708  78.098  35.299  0.00  0.00    +0.118 A 
ATOM      9  C   LIG    1      -26.628  76.944  34.633  0.00  0.00    +0.063 A 
ENDROOT
BRANCH   1  11
ATOM     10  C   LIG    1      -25.327  75.326  31.788  0.00  0.00    +0.105 C 
ATOM     11  N   LIG    1      -25.219  75.411  33.256  0.00  0.00    -0.308 N 
ATOM     12  C   LIG    1      -25.336  74.081  33.846  0.00  0.00    +0.107 C 
ATOM     13  C   LIG    1      -26.091  73.282  32.800  0.00  0.00    +0.021 C 
ATOM     14  C   LIG    1      -25.522  73.822  31.502  0.00  0.00    +0.029 C 
BRANCH  10  18
ATOM     15  F   LIG    1      -20.527  75.247  30.731  0.00  0.00    -0.205 F 
ATOM     16  C   LIG    1      -21.732  75.806  30.555  0.00  0.00    +0.124 A 
ATOM     17  C   LIG    1      -22.833  75.279  31.221  0.00  0.00    +0.043 A 
ATOM     18  C   LIG    1      -24.103  75.858  31.066  0.00  0.00    -0.024 A 
ATOM     19  C   LIG    1      -24.230  76.949  30.188  0.00  0.00    +0.005 A 
ATOM     20  C   LIG    1      -23.116  77.471  29.521  0.00  0.00    +0.003 A 
ATOM     21  C   LIG    1      -21.860  76.901  29.711  0.00  0.00    +0.038 A 
ENDBRANCH  10  18
ENDBRANCH   1  11
BRANCH   4  22
ATOM     22  C   LIG    1      -22.106  79.748  34.794  0.00  0.00    +0.249 C 
ATOM     23  N   LIG    1      -21.580  78.845  33.892  0.00  0.00    -0.308 N 
ATOM     24  H   LIG    1      -22.203  78.125  33.532  0.00  0.00    +0.149 HD
ATOM     25  O   LIG    1      -21.445  80.647  35.302  0.00  0.00    -0.270 OA
BRANCH  23  26
ATOM     26  C   LIG    1      -20.206  78.887  33.501  0.00  0.00    +0.073 C 
ATOM     27  C   LIG    1      -19.786  78.602  32.087  0.00  0.00    +0.024 C 
ATOM     28  C   LIG    1      -19.463  77.621  33.176  0.00  0.00    +0.024 C 
ENDBRANCH  23  26
ENDBRANCH   4  22
TORSDOF 4
ENDMDL
MODEL 5
REMARK VINA RESULT:      -5.4      1.981      4.829
REMARK  Name = pdb/CHEMBL3675915.pdb
REMARK                            x       y       z     vdW  Elec       q    Type
REMARK                         _______ _______ _______ _____ _____    ______ ____
ROOT
ATOM      1  C   LIG    1      -20.835  77.836  32.773  0.00  0.00    +0.126 A 
ATOM      2  N   LIG    1      -22.154  77.771  32.782  0.00  0.00    -0.212 NA
ATOM      3  C   LIG    1      -22.806  77.608  31.580  0.00  0.00    +0.170 A 
ATOM      4  C   LIG    1      -24.143  77.471  31.242  0.00  0.00    +0.100 A 
ATOM      5  C   LIG    1      -24.144  77.348  29.835  0.00  0.00    +0.150 A 
ATOM      6  N   LIG    1      -22.926  77.394  29.303  0.00  0.00    -0.173 NA
ATOM      7  N   LIG    1      -22.108  77.535  30.369  0.00  0.00    -0.221 N 
ATOM      8  C   LIG    1      -20.730  77.596  30.346  0.00  0.00    +0.118 A 
ATOM      9  C   LIG    1      -20.046  77.730  31.484  0.00  0.00    +0.063 A 
ENDROOT
BRANCH   1  11
ATOM     10  C   LIG    1      -19.928  79.301  34.625  0.00  0.00    +0.105 C 
ATOM     11  N   LIG    1      -20.135  77.998  33.964  0.00  0.00    -0.308 N 
ATOM     12  C   LIG    1      -19.248  76.996  34.544  0.00  0.00    +0.107 C 
ATOM     13  C   LIG    1      -18.111  77.809  35.135  0.00  0.00    +0.021 C 
ATOM     14  C   LIG    1      -18.830  79.031  35.675  0.00  0.00    +0.029 C 
BRANCH  10  18
ATOM     15  F   LIG    1      -23.862  78.832  37.535  0.00  0.00    -0.205 F 
ATOM     16  C   LIG    1      -23.121  79.597  36.722  0.00  0.00    +0.124 A 
ATOM     17  C   LIG    1      -21.968  79.068  36.151  0.00  0.00    +0.043 A 
ATOM     18  C   LIG    1      -21.183  79.844  35.283  0.00  0.00    -0.024 A 
ATOM     19  C   LIG    1      -21.575  81.174  35.048  0.00  0.00    +0.005 A 
ATOM     20  C   LIG    1      -22.736  81.697  35.628  0.00  0.00    +0.003 A 
ATOM     21  C   LIG    1      -23.516  80.902  36.464  0.00  0.00    +0.038 A 
ENDBRANCH  10  18
ENDBRANCH   1  11
BRANCH   4  22
ATOM     22  C   LIG    1      -25.329  77.445  32.072  0.00  0.00    +0.249 C 
ATOM     23  N   LIG    1      -25.114  77.293  33.427  0.00  0.00    -0.308 N 
ATOM     24  H   LIG    1      -24.151  77.194  33.740  0.00  0.00    +0.149 HD
ATOM     25  O   LIG    1      -26.447  77.558  31.581  0.00  0.00    -0.270 OA
BRANCH  23  26
ATOM     26  C   LIG    1      -26.197  77.235  34.357  0.00  0.00    +0.073 C 
ATOM     27  C   LIG    1      -26.365  78.274  35.428  0.00  0.00    +0.024 C 
ATOM     28  C   LIG    1      -25.950  76.880  35.797  0.00  0.00    +0.024 C 
ENDBRANCH  23  26
ENDBRANCH   4  22
TORSDOF 4
ENDMDL
MODEL 6
REMARK VINA RESULT:      -5.4     20.917     22.937
REMARK  Name = pdb/CHEMBL3675915.pdb
REMARK                            x       y       z     vdW  Elec       q    Type
REMARK                         _______ _______ _______ _____ _____    ______ ____
ROOT
ATOM      1  C   LIG    1      -33.906  92.328  19.834  0.00  0.00    +0.126 A 
ATOM      2  N   LIG    1      -33.495  92.570  21.065  0.00  0.00    -0.212 NA
ATOM      3  C   LIG    1      -32.380  93.361  21.234  0.00  0.00    +0.170 A 
ATOM      4  C   LIG    1      -31.717  93.829  22.358  0.00  0.00    +0.100 A 
ATOM      5  C   LIG    1      -30.640  94.585  21.846  0.00  0.00    +0.150 A 
ATOM      6  N   LIG    1      -30.603  94.614  20.517  0.00  0.00    -0.173 NA
ATOM      7  N   LIG    1      -31.675  93.882  20.144  0.00  0.00    -0.221 N 
ATOM      8  C   LIG    1      -32.096  93.641  18.852  0.00  0.00    +0.118 A 
ATOM      9  C   LIG    1      -33.185  92.900  18.631  0.00  0.00    +0.063 A 
ENDROOT
BRANCH   1  11
ATOM     10  C   LIG    1      -35.564  91.221  18.278  0.00  0.00    +0.105 C 
ATOM     11  N   LIG    1      -35.028  91.536  19.615  0.00  0.00    -0.308 N 
ATOM     12  C   LIG    1      -36.004  91.185  20.642  0.00  0.00    +0.107 C 
ATOM     13  C   LIG    1      -37.333  91.209  19.908  0.00  0.00    +0.021 C 
ATOM     14  C   LIG    1      -36.967  90.639  18.551  0.00  0.00    +0.029 C 
BRANCH  10  18
ATOM     15  F   LIG    1      -33.503  89.557  14.137  0.00  0.00    -0.205 F 
ATOM     16  C   LIG    1      -33.699  89.422  15.455  0.00  0.00    +0.124 A 
ATOM     17  C   LIG    1      -34.476  90.360  16.129  0.00  0.00    +0.043 A 
ATOM     18  C   LIG    1      -34.710  90.231  17.508  0.00  0.00    -0.024 A 
ATOM     19  C   LIG    1      -34.102  89.159  18.184  0.00  0.00    +0.005 A 
ATOM     20  C   LIG    1      -33.322  88.221  17.498  0.00  0.00    +0.003 A 
ATOM     21  C   LIG    1      -33.126  88.351  16.126  0.00  0.00    +0.038 A 
ENDBRANCH  10  18
ENDBRANCH   1  11
BRANCH   4  22
ATOM     22  C   LIG    1      -31.995  93.640  23.766  0.00  0.00    +0.249 C 
ATOM     23  N   LIG    1      -33.296  93.305  24.084  0.00  0.00    -0.308 N 
ATOM     24  H   LIG    1      -33.962  93.232  23.318  0.00  0.00    +0.149 HD
ATOM     25  O   LIG    1      -31.113  93.771  24.608  0.00  0.00    -0.270 OA
BRANCH  23  26
ATOM     26  C   LIG    1      -33.711  93.106  25.437  0.00  0.00    +0.073 C 
ATOM     27  C   LIG    1      -33.565  91.772  26.112  0.00  0.00    +0.024 C 
ATOM     28  C   LIG    1      -34.929  92.283  25.750  0.00  0.00    +0.024 C 
ENDBRANCH  23  26
ENDBRANCH   4  22
TORSDOF 4
ENDMDL
MODEL 7
REMARK VINA RESULT:      -5.2     12.933     17.017
REMARK  Name = pdb/CHEMBL3675915.pdb
REMARK                            x       y       z     vdW  Elec       q    Type
REMARK                         _______ _______ _______ _____ _____    ______ ____
ROOT
ATOM      1  C   LIG    1      -37.602  75.402  27.485  0.00  0.00    +0.126 A 
ATOM      2  N   LIG    1      -36.343  75.695  27.750  0.00  0.00    -0.212 NA
ATOM      3  C   LIG    1      -35.729  75.043  28.796  0.00  0.00    +0.170 A 
ATOM      4  C   LIG    1      -34.443  75.086  29.310  0.00  0.00    +0.100 A 
ATOM      5  C   LIG    1      -34.462  74.180  30.394  0.00  0.00    +0.150 A 
ATOM      6  N   LIG    1      -35.644  73.596  30.569  0.00  0.00    -0.173 NA
ATOM      7  N   LIG    1      -36.412  74.110  29.584  0.00  0.00    -0.221 N 
ATOM      8  C   LIG    1      -37.727  73.790  29.315  0.00  0.00    +0.118 A 
ATOM      9  C   LIG    1      -38.364  74.375  28.298  0.00  0.00    +0.063 A 
ENDROOT
BRANCH   1  11
ATOM     10  C   LIG    1      -38.089  75.671  25.018  0.00  0.00    +0.105 C 
ATOM     11  N   LIG    1      -38.262  76.034  26.437  0.00  0.00    -0.308 N 
ATOM     12  C   LIG    1      -38.941  77.321  26.545  0.00  0.00    +0.107 C 
ATOM     13  C   LIG    1      -38.656  78.000  25.219  0.00  0.00    +0.021 C 
ATOM     14  C   LIG    1      -38.721  76.844  24.239  0.00  0.00    +0.029 C 
BRANCH  10  18
ATOM     15  F   LIG    1      -38.118  70.771  24.632  0.00  0.00    -0.205 F 
ATOM     16  C   LIG    1      -38.754  71.938  24.466  0.00  0.00    +0.124 A 
ATOM     17  C   LIG    1      -38.117  73.120  24.831  0.00  0.00    +0.043 A 
ATOM     18  C   LIG    1      -38.755  74.358  24.650  0.00  0.00    -0.024 A 
ATOM     19  C   LIG    1      -40.063  74.359  24.137  0.00  0.00    +0.005 A 
ATOM     20  C   LIG    1      -40.697  73.164  23.774  0.00  0.00    +0.003 A 
ATOM     21  C   LIG    1      -40.036  71.950  23.933  0.00  0.00    +0.038 A 
ENDBRANCH  10  18
ENDBRANCH   1  11
BRANCH   4  22
ATOM     22  C   LIG    1      -33.283  75.848  28.895  0.00  0.00    +0.249 C 
ATOM     23  N   LIG    1      -33.545  77.061  28.292  0.00  0.00    -0.308 N 
ATOM     24  H   LIG    1      -34.521  77.323  28.169  0.00  0.00    +0.149 HD
ATOM     25  O   LIG    1      -32.148  75.424  29.082  0.00  0.00    -0.270 OA
BRANCH  23  26
ATOM     26  C   LIG    1      -32.494  77.907  27.820  0.00  0.00    +0.073 C 
ATOM     27  C   LIG    1      -32.788  79.188  27.092  0.00  0.00    +0.024 C 
ATOM     28  C   LIG    1      -32.205  78.021  26.349  0.00  0.00    +0.024 C 
ENDBRANCH  23  26
ENDBRANCH   4  22
TORSDOF 4
ENDMDL
MODEL 8
REMARK VINA RESULT:      -5.2      2.367      4.306
REMARK  Name = pdb/CHEMBL3675915.pdb
REMARK                            x       y       z     vdW  Elec       q    Type
REMARK                         _______ _______ _______ _____ _____    ______ ____
ROOT
ATOM      1  C   LIG    1      -24.571  77.505  33.911  0.00  0.00    +0.126 A 
ATOM      2  N   LIG    1      -23.476  77.494  33.174  0.00  0.00    -0.212 NA
ATOM      3  C   LIG    1      -23.613  77.373  31.808  0.00  0.00    +0.170 A 
ATOM      4  C   LIG    1      -22.699  77.361  30.766  0.00  0.00    +0.100 A 
ATOM      5  C   LIG    1      -23.486  77.196  29.605  0.00  0.00    +0.150 A 
ATOM      6  N   LIG    1      -24.789  77.113  29.861  0.00  0.00    -0.173 NA
ATOM      7  N   LIG    1      -24.868  77.239  31.204  0.00  0.00    -0.221 N 
ATOM      8  C   LIG    1      -26.020  77.253  31.962  0.00  0.00    +0.118 A 
ATOM      9  C   LIG    1      -25.947  77.392  33.288  0.00  0.00    +0.063 A 
ENDROOT
BRANCH   1  11
ATOM     10  C   LIG    1      -23.209  77.768  36.026  0.00  0.00    +0.105 C 
ATOM     11  N   LIG    1      -24.482  77.628  35.293  0.00  0.00    -0.308 N 
ATOM     12  C   LIG    1      -25.562  77.312  36.223  0.00  0.00    +0.107 C 
ATOM     13  C   LIG    1      -24.854  76.691  37.412  0.00  0.00    +0.021 C 
ATOM     14  C   LIG    1      -23.583  77.514  37.502  0.00  0.00    +0.029 C 
BRANCH  10  18
ATOM     15  F   LIG    1      -23.420  82.677  35.877  0.00  0.00    -0.205 F 
ATOM     16  C   LIG    1      -22.691  81.557  35.788  0.00  0.00    +0.124 A 
ATOM     17  C   LIG    1      -23.310  80.324  35.964  0.00  0.00    +0.043 A 
ATOM     18  C   LIG    1      -22.570  79.135  35.859  0.00  0.00    -0.024 A 
ATOM     19  C   LIG    1      -21.189  79.234  35.617  0.00  0.00    +0.005 A 
ATOM     20  C   LIG    1      -20.575  80.480  35.442  0.00  0.00    +0.003 A 
ATOM     21  C   LIG    1      -21.332  81.646  35.522  0.00  0.00    +0.038 A 
ENDBRANCH  10  18
ENDBRANCH   1  11
BRANCH   4  22
ATOM     22  C   LIG    1      -21.257  77.486  30.772  0.00  0.00    +0.249 C 
ATOM     23  N   LIG    1      -20.667  77.606  32.014  0.00  0.00    -0.308 N 
ATOM     24  H   LIG    1      -21.282  77.614  32.826  0.00  0.00    +0.149 HD
ATOM     25  O   LIG    1      -20.617  77.479  29.726  0.00  0.00    -0.270 OA
BRANCH  23  26
ATOM     26  C   LIG    1      -19.254  77.752  32.164  0.00  0.00    +0.073 C 
ATOM     27  C   LIG    1      -18.591  77.623  33.506  0.00  0.00    +0.024 C 
ATOM     28  C   LIG    1      -18.677  78.965  32.841  0.00  0.00    +0.024 C 
ENDBRANCH  23  26
ENDBRANCH   4  22
TORSDOF 4
ENDMDL
MODEL 9
REMARK VINA RESULT:      -5.2     14.506     17.468
REMARK  Name = pdb/CHEMBL3675915.pdb
REMARK                            x       y       z     vdW  Elec       q    Type
REMARK                         _______ _______ _______ _____ _____    ______ ____
ROOT
ATOM      1  C   LIG    1      -37.373  71.184  25.141  0.00  0.00    +0.126 A 
ATOM      2  N   LIG    1      -37.200  72.488  25.255  0.00  0.00    -0.212 NA
ATOM      3  C   LIG    1      -38.223  73.317  24.850  0.00  0.00    +0.170 A 
ATOM      4  C   LIG    1      -38.383  74.693  24.861  0.00  0.00    +0.100 A 
ATOM      5  C   LIG    1      -39.660  74.908  24.298  0.00  0.00    +0.150 A 
ATOM      6  N   LIG    1      -40.279  73.782  23.954  0.00  0.00    -0.173 NA
ATOM      7  N   LIG    1      -39.410  72.810  24.308  0.00  0.00    -0.221 N 
ATOM      8  C   LIG    1      -39.605  71.450  24.188  0.00  0.00    +0.118 A 
ATOM      9  C   LIG    1      -38.656  70.600  24.587  0.00  0.00    +0.063 A 
ENDROOT
BRANCH   1  11
ATOM     10  C   LIG    1      -35.046  70.743  26.031  0.00  0.00    +0.105 C 
ATOM     11  N   LIG    1      -36.368  70.309  25.539  0.00  0.00    -0.308 N 
ATOM     12  C   LIG    1      -36.343  68.883  25.229  0.00  0.00    +0.107 C 
ATOM     13  C   LIG    1      -34.876  68.588  24.976  0.00  0.00    +0.021 C 
ATOM     14  C   LIG    1      -34.185  69.463  26.004  0.00  0.00    +0.029 C 
BRANCH  10  18
ATOM     15  F   LIG    1      -33.349  73.734  29.543  0.00  0.00    -0.205 F 
ATOM     16  C   LIG    1      -34.242  72.815  29.151  0.00  0.00    +0.124 A 
ATOM     17  C   LIG    1      -34.178  72.310  27.857  0.00  0.00    +0.043 A 
ATOM     18  C   LIG    1      -35.092  71.334  27.428  0.00  0.00    -0.024 A 
ATOM     19  C   LIG    1      -36.091  70.922  28.328  0.00  0.00    +0.005 A 
ATOM     20  C   LIG    1      -36.147  71.437  29.628  0.00  0.00    +0.003 A 
ATOM     21  C   LIG    1      -35.214  72.383  30.043  0.00  0.00    +0.038 A 
ENDBRANCH  10  18
ENDBRANCH   1  11
BRANCH   4  22
ATOM     22  C   LIG    1      -37.502  75.743  25.328  0.00  0.00    +0.249 C 
ATOM     23  N   LIG    1      -36.747  75.445  26.444  0.00  0.00    -0.308 N 
ATOM     24  H   LIG    1      -36.873  74.526  26.864  0.00  0.00    +0.149 HD
ATOM     25  O   LIG    1      -37.442  76.823  24.749  0.00  0.00    -0.270 OA
BRANCH  23  26
ATOM     26  C   LIG    1      -35.848  76.395  27.019  0.00  0.00    +0.073 C 
ATOM     27  C   LIG    1      -34.422  76.037  27.326  0.00  0.00    +0.024 C 
ATOM     28  C   LIG    1      -35.397  76.256  28.446  0.00  0.00    +0.024 C 
ENDBRANCH  23  26
ENDBRANCH   4  22
TORSDOF 4
ENDMDL
