MODEL 1
REMARK VINA RESULT:      -6.1      0.000      0.000
REMARK  Name = pdb/CHEMBL3952175.pdb
REMARK                            x       y       z     vdW  Elec       q    Type
REMARK                         _______ _______ _______ _____ _____    ______ ____
ROOT
ATOM      1  C   LIG    1      -26.196  76.456  31.961  0.00  0.00    +0.042 A 
ATOM      2  C   LIG    1      -26.034  75.100  31.618  0.00  0.00    +0.042 A 
ATOM      3  C   LIG    1      -26.718  74.092  32.320  0.00  0.00    +0.086 A 
ATOM      4  C   LIG    1      -27.573  74.542  33.334  0.00  0.00    +0.138 A 
ATOM      5  N   LIG    1      -27.828  75.841  33.634  0.00  0.00    -0.260 NA
ATOM      6  C   LIG    1      -27.142  76.765  32.929  0.00  0.00    +0.122 A 
ENDROOT
BRANCH   1   7
ATOM      7  C   LIG    1      -25.367  77.526  31.312  0.00  0.00    +0.197 C 
ATOM      8  O   LIG    1      -25.900  78.288  30.528  0.00  0.00    -0.287 OA
BRANCH   7  17
ATOM      9  N   LIG    1      -22.034  78.147  32.755  0.00  0.00    -0.341 N 
ATOM     10  C   LIG    1      -21.645  77.693  31.509  0.00  0.00    +0.089 A 
ATOM     11  C   LIG    1      -20.399  77.628  30.876  0.00  0.00    +0.165 A 
ATOM     12  F   LIG    1      -19.286  78.127  31.427  0.00  0.00    -0.202 F 
ATOM     13  C   LIG    1      -20.368  77.045  29.619  0.00  0.00    +0.151 A 
ATOM     14  N   LIG    1      -21.442  76.509  28.999  0.00  0.00    -0.260 NA
ATOM     15  C   LIG    1      -22.656  76.595  29.604  0.00  0.00    +0.121 A 
ATOM     16  C   LIG    1      -22.801  77.238  30.848  0.00  0.00    +0.032 A 
ATOM     17  C   LIG    1      -23.933  77.626  31.647  0.00  0.00    +0.049 A 
ATOM     18  C   LIG    1      -23.406  78.104  32.832  0.00  0.00    +0.099 A 
BRANCH   9  20
ATOM     19  C   LIG    1      -21.863  79.618  34.742  0.00  0.00    +0.030 C 
ATOM     20  C   LIG    1      -21.150  78.616  33.833  0.00  0.00    +0.081 C 
ATOM     21  C   LIG    1      -20.561  77.484  34.693  0.00  0.00    +0.030 C 
ENDBRANCH   9  20
ENDBRANCH   7  17
ENDBRANCH   1   7
BRANCH   3  22
ATOM     22  N   LIG    1      -26.418  72.733  32.036  0.00  0.00    -0.214 NA
ATOM     23  C   LIG    1      -25.545  72.047  32.714  0.00  0.00    +0.210 C 
BRANCH  23  24
ATOM     24  O   LIG    1      -24.914  72.567  33.783  0.00  0.00    -0.494 OA
ATOM     25  H   LIG    1      -23.935  72.506  33.709  0.00  0.00    +0.293 HD
ENDBRANCH  23  24
BRANCH  23  26
ATOM     26  C   LIG    1      -25.218  70.607  32.345  0.00  0.00    +0.238 C 
BRANCH  26  27
ATOM     27  N   LIG    1      -25.149  70.319  30.914  0.00  0.00    -0.262 N 
ATOM     28  N   LIG    1      -26.228  69.813  30.275  0.00  0.00    -0.179 NA
ATOM     29  C   LIG    1      -25.829  69.676  29.010  0.00  0.00    +0.146 A 
ATOM     30  C   LIG    1      -24.502  70.100  28.812  0.00  0.00    +0.092 A 
ATOM     31  C   LIG    1      -24.091  70.516  30.070  0.00  0.00    +0.121 A 
BRANCH  30  32
ATOM     32  C   LIG    1      -23.774  70.073  27.521  0.00  0.00    +0.420 C 
ATOM     33  F   LIG    1      -23.696  71.308  26.965  0.00  0.00    -0.166 F 
ATOM     34  F   LIG    1      -24.392  69.273  26.617  0.00  0.00    -0.166 F 
ATOM     35  F   LIG    1      -22.504  69.617  27.653  0.00  0.00    -0.166 F 
ENDBRANCH  30  32
ENDBRANCH  26  27
ENDBRANCH  23  26
ENDBRANCH   3  22
TORSDOF 8
ENDMDL
MODEL 2
REMARK VINA RESULT:      -6.0     12.724     16.200
REMARK  Name = pdb/CHEMBL3952175.pdb
REMARK                            x       y       z     vdW  Elec       q    Type
REMARK                         _______ _______ _______ _____ _____    ______ ____
ROOT
ATOM      1  C   LIG    1      -36.785  70.292  25.726  0.00  0.00    +0.042 A 
ATOM      2  C   LIG    1      -35.720  71.112  26.146  0.00  0.00    +0.042 A 
ATOM      3  C   LIG    1      -35.263  71.077  27.476  0.00  0.00    +0.086 A 
ATOM      4  C   LIG    1      -35.916  70.161  28.310  0.00  0.00    +0.138 A 
ATOM      5  N   LIG    1      -36.881  69.287  27.922  0.00  0.00    -0.260 NA
ATOM      6  C   LIG    1      -37.280  69.367  26.636  0.00  0.00    +0.122 A 
ENDROOT
BRANCH   1   7
ATOM      7  C   LIG    1      -37.369  70.420  24.350  0.00  0.00    +0.197 C 
ATOM      8  O   LIG    1      -36.819  69.859  23.422  0.00  0.00    -0.287 OA
BRANCH   7  17
ATOM      9  N   LIG    1      -40.688  71.798  23.536  0.00  0.00    -0.341 N 
ATOM     10  C   LIG    1      -40.069  72.964  23.946  0.00  0.00    +0.089 A 
ATOM     11  C   LIG    1      -40.470  74.304  23.921  0.00  0.00    +0.165 A 
ATOM     12  F   LIG    1      -41.619  74.700  23.359  0.00  0.00    -0.202 F 
ATOM     13  C   LIG    1      -39.601  75.226  24.482  0.00  0.00    +0.151 A 
ATOM     14  N   LIG    1      -38.431  74.908  25.077  0.00  0.00    -0.260 NA
ATOM     15  C   LIG    1      -38.030  73.609  25.079  0.00  0.00    +0.121 A 
ATOM     16  C   LIG    1      -38.809  72.610  24.465  0.00  0.00    +0.032 A 
ATOM     17  C   LIG    1      -38.596  71.220  24.163  0.00  0.00    +0.049 A 
ATOM     18  C   LIG    1      -39.801  70.757  23.669  0.00  0.00    +0.099 A 
BRANCH   9  20
ATOM     19  C   LIG    1      -42.120  70.739  21.813  0.00  0.00    +0.030 C 
ATOM     20  C   LIG    1      -42.061  71.668  23.026  0.00  0.00    +0.081 C 
ATOM     21  C   LIG    1      -43.074  71.185  24.080  0.00  0.00    +0.030 C 
ENDBRANCH   9  20
ENDBRANCH   7  17
ENDBRANCH   1   7
BRANCH   3  22
ATOM     22  N   LIG    1      -34.286  72.020  27.891  0.00  0.00    -0.214 NA
ATOM     23  C   LIG    1      -34.593  73.157  28.443  0.00  0.00    +0.210 C 
BRANCH  23  24
ATOM     24  O   LIG    1      -35.868  73.485  28.723  0.00  0.00    -0.494 OA
ATOM     25  H   LIG    1      -36.222  72.995  29.500  0.00  0.00    +0.293 HD
ENDBRANCH  23  24
BRANCH  23  26
ATOM     26  C   LIG    1      -33.516  74.160  28.830  0.00  0.00    +0.238 C 
BRANCH  26  27
ATOM     27  N   LIG    1      -33.619  75.475  28.198  0.00  0.00    -0.262 N 
ATOM     28  N   LIG    1      -34.787  75.864  27.639  0.00  0.00    -0.179 NA
ATOM     29  C   LIG    1      -34.537  77.086  27.167  0.00  0.00    +0.146 A 
ATOM     30  C   LIG    1      -33.217  77.505  27.424  0.00  0.00    +0.092 A 
ATOM     31  C   LIG    1      -32.650  76.435  28.099  0.00  0.00    +0.121 A 
BRANCH  30  32
ATOM     32  C   LIG    1      -32.638  78.810  27.026  0.00  0.00    +0.420 C 
ATOM     33  F   LIG    1      -31.564  79.134  27.790  0.00  0.00    -0.166 F 
ATOM     34  F   LIG    1      -33.535  79.818  27.162  0.00  0.00    -0.166 F 
ATOM     35  F   LIG    1      -32.222  78.819  25.734  0.00  0.00    -0.166 F 
ENDBRANCH  30  32
ENDBRANCH  26  27
ENDBRANCH  23  26
ENDBRANCH   3  22
TORSDOF 8
ENDMDL
MODEL 3
REMARK VINA RESULT:      -5.9      4.895      9.258
REMARK  Name = pdb/CHEMBL3952175.pdb
REMARK                            x       y       z     vdW  Elec       q    Type
REMARK                         _______ _______ _______ _____ _____    ______ ____
ROOT
ATOM      1  C   LIG    1      -29.980  75.972  32.469  0.00  0.00    +0.042 A 
ATOM      2  C   LIG    1      -28.975  76.722  31.829  0.00  0.00    +0.042 A 
ATOM      3  C   LIG    1      -27.635  76.638  32.246  0.00  0.00    +0.086 A 
ATOM      4  C   LIG    1      -27.390  75.746  33.298  0.00  0.00    +0.138 A 
ATOM      5  N   LIG    1      -28.312  74.937  33.880  0.00  0.00    -0.260 NA
ATOM      6  C   LIG    1      -29.582  75.062  33.439  0.00  0.00    +0.122 A 
ENDROOT
BRANCH   1   7
ATOM      7  C   LIG    1      -31.428  76.157  32.124  0.00  0.00    +0.197 C 
ATOM      8  O   LIG    1      -32.152  76.739  32.911  0.00  0.00    -0.287 OA
BRANCH   7  17
ATOM      9  N   LIG    1      -32.836  75.573  28.769  0.00  0.00    -0.341 N 
ATOM     10  C   LIG    1      -32.780  74.263  29.207  0.00  0.00    +0.089 A 
ATOM     11  C   LIG    1      -33.253  73.065  28.660  0.00  0.00    +0.165 A 
ATOM     12  F   LIG    1      -33.979  73.026  27.536  0.00  0.00    -0.202 F 
ATOM     13  C   LIG    1      -32.961  71.904  29.357  0.00  0.00    +0.151 A 
ATOM     14  N   LIG    1      -32.227  71.857  30.490  0.00  0.00    -0.260 NA
ATOM     15  C   LIG    1      -31.789  73.024  31.034  0.00  0.00    +0.121 A 
ATOM     16  C   LIG    1      -32.100  74.261  30.440  0.00  0.00    +0.032 A 
ATOM     17  C   LIG    1      -31.933  75.633  30.839  0.00  0.00    +0.049 A 
ATOM     18  C   LIG    1      -32.327  76.389  29.751  0.00  0.00    +0.099 A 
BRANCH   9  20
ATOM     19  C   LIG    1      -34.862  76.317  27.552  0.00  0.00    +0.030 C 
ATOM     20  C   LIG    1      -33.360  76.044  27.478  0.00  0.00    +0.081 C 
ATOM     21  C   LIG    1      -32.646  77.295  26.935  0.00  0.00    +0.030 C 
ENDBRANCH   9  20
ENDBRANCH   7  17
ENDBRANCH   1   7
BRANCH   3  22
ATOM     22  N   LIG    1      -26.680  77.516  31.668  0.00  0.00    -0.214 NA
ATOM     23  C   LIG    1      -25.613  77.092  31.056  0.00  0.00    +0.210 C 
BRANCH  23  24
ATOM     24  O   LIG    1      -25.380  75.780  30.868  0.00  0.00    -0.494 OA
ATOM     25  H   LIG    1      -25.388  75.271  31.711  0.00  0.00    +0.293 HD
ENDBRANCH  23  24
BRANCH  23  26
ATOM     26  C   LIG    1      -24.590  78.068  30.493  0.00  0.00    +0.238 C 
BRANCH  26  27
ATOM     27  N   LIG    1      -23.246  77.529  30.290  0.00  0.00    -0.262 N 
ATOM     28  N   LIG    1      -22.932  76.922  29.124  0.00  0.00    -0.179 NA
ATOM     29  C   LIG    1      -21.656  76.560  29.272  0.00  0.00    +0.146 A 
ATOM     30  C   LIG    1      -21.129  76.936  30.523  0.00  0.00    +0.092 A 
ATOM     31  C   LIG    1      -22.188  77.568  31.157  0.00  0.00    +0.121 A 
BRANCH  30  32
ATOM     32  C   LIG    1      -19.746  76.676  30.985  0.00  0.00    +0.420 C 
ATOM     33  F   LIG    1      -18.936  76.312  29.959  0.00  0.00    -0.166 F 
ATOM     34  F   LIG    1      -19.704  75.671  31.895  0.00  0.00    -0.166 F 
ATOM     35  F   LIG    1      -19.182  77.763  31.568  0.00  0.00    -0.166 F 
ENDBRANCH  30  32
ENDBRANCH  26  27
ENDBRANCH  23  26
ENDBRANCH   3  22
TORSDOF 8
ENDMDL
MODEL 4
REMARK VINA RESULT:      -5.9      3.908      9.151
REMARK  Name = pdb/CHEMBL3952175.pdb
REMARK                            x       y       z     vdW  Elec       q    Type
REMARK                         _______ _______ _______ _____ _____    ______ ____
ROOT
ATOM      1  C   LIG    1      -20.425  76.977  30.547  0.00  0.00    +0.042 A 
ATOM      2  C   LIG    1      -20.492  77.945  31.566  0.00  0.00    +0.042 A 
ATOM      3  C   LIG    1      -19.331  78.369  32.237  0.00  0.00    +0.086 A 
ATOM      4  C   LIG    1      -18.137  77.787  31.793  0.00  0.00    +0.138 A 
ATOM      5  N   LIG    1      -18.018  76.921  30.753  0.00  0.00    -0.260 NA
ATOM      6  C   LIG    1      -19.165  76.550  30.149  0.00  0.00    +0.122 A 
ENDROOT
BRANCH   1   7
ATOM      7  C   LIG    1      -21.669  76.419  29.921  0.00  0.00    +0.197 C 
ATOM      8  O   LIG    1      -21.788  76.455  28.711  0.00  0.00    -0.287 OA
BRANCH   7  17
ATOM      9  N   LIG    1      -23.800  74.381  32.133  0.00  0.00    -0.341 N 
ATOM     10  C   LIG    1      -24.713  75.367  31.808  0.00  0.00    +0.089 A 
ATOM     11  C   LIG    1      -26.080  75.510  32.068  0.00  0.00    +0.165 A 
ATOM     12  F   LIG    1      -26.798  74.558  32.678  0.00  0.00    -0.202 F 
ATOM     13  C   LIG    1      -26.679  76.681  31.633  0.00  0.00    +0.151 A 
ATOM     14  N   LIG    1      -26.024  77.692  31.021  0.00  0.00    -0.260 NA
ATOM     15  C   LIG    1      -24.702  77.542  30.746  0.00  0.00    +0.121 A 
ATOM     16  C   LIG    1      -24.022  76.356  31.080  0.00  0.00    +0.032 A 
ATOM     17  C   LIG    1      -22.712  75.838  30.791  0.00  0.00    +0.049 A 
ATOM     18  C   LIG    1      -22.603  74.669  31.521  0.00  0.00    +0.099 A 
BRANCH   9  20
ATOM     19  C   LIG    1      -24.313  71.957  32.135  0.00  0.00    +0.030 C 
ATOM     20  C   LIG    1      -24.045  73.204  32.979  0.00  0.00    +0.081 C 
ATOM     21  C   LIG    1      -22.912  72.905  33.976  0.00  0.00    +0.030 C 
ENDBRANCH   9  20
ENDBRANCH   7  17
ENDBRANCH   1   7
BRANCH   3  22
ATOM     22  N   LIG    1      -19.461  79.239  33.352  0.00  0.00    -0.214 NA
ATOM     23  C   LIG    1      -19.618  78.807  34.569  0.00  0.00    +0.210 C 
BRANCH  23  24
ATOM     24  O   LIG    1      -19.598  77.493  34.861  0.00  0.00    -0.494 OA
ATOM     25  H   LIG    1      -20.416  77.196  35.321  0.00  0.00    +0.293 HD
ENDBRANCH  23  24
BRANCH  23  26
ATOM     26  C   LIG    1      -19.802  79.774  35.729  0.00  0.00    +0.238 C 
BRANCH  26  27
ATOM     27  N   LIG    1      -21.129  80.377  35.848  0.00  0.00    -0.262 N 
ATOM     28  N   LIG    1      -21.296  81.694  35.592  0.00  0.00    -0.179 NA
ATOM     29  C   LIG    1      -22.598  81.906  35.789  0.00  0.00    +0.146 A 
ATOM     30  C   LIG    1      -23.287  80.735  36.160  0.00  0.00    +0.092 A 
ATOM     31  C   LIG    1      -22.302  79.759  36.185  0.00  0.00    +0.121 A 
BRANCH  30  32
ATOM     32  C   LIG    1      -24.738  80.647  36.448  0.00  0.00    +0.420 C 
ATOM     33  F   LIG    1      -25.312  81.875  36.504  0.00  0.00    -0.166 F 
ATOM     34  F   LIG    1      -24.975  80.048  37.641  0.00  0.00    -0.166 F 
ATOM     35  F   LIG    1      -25.410  79.939  35.506  0.00  0.00    -0.166 F 
ENDBRANCH  30  32
ENDBRANCH  26  27
ENDBRANCH  23  26
ENDBRANCH   3  22
TORSDOF 8
ENDMDL
MODEL 5
REMARK VINA RESULT:      -5.9      4.643      5.857
REMARK  Name = pdb/CHEMBL3952175.pdb
REMARK                            x       y       z     vdW  Elec       q    Type
REMARK                         _______ _______ _______ _____ _____    ______ ____
ROOT
ATOM      1  C   LIG    1      -26.256  76.302  32.094  0.00  0.00    +0.042 A 
ATOM      2  C   LIG    1      -27.568  75.992  31.686  0.00  0.00    +0.042 A 
ATOM      3  C   LIG    1      -28.247  74.884  32.222  0.00  0.00    +0.086 A 
ATOM      4  C   LIG    1      -27.540  74.158  33.188  0.00  0.00    +0.138 A 
ATOM      5  N   LIG    1      -26.313  74.476  33.676  0.00  0.00    -0.260 NA
ATOM      6  C   LIG    1      -25.710  75.549  33.124  0.00  0.00    +0.122 A 
ENDROOT
BRANCH   1   7
ATOM      7  C   LIG    1      -25.474  77.397  31.430  0.00  0.00    +0.197 C 
ATOM      8  O   LIG    1      -26.045  78.144  30.657  0.00  0.00    -0.287 OA
BRANCH   7  17
ATOM      9  N   LIG    1      -22.133  78.124  32.803  0.00  0.00    -0.341 N 
ATOM     10  C   LIG    1      -21.754  77.671  31.553  0.00  0.00    +0.089 A 
ATOM     11  C   LIG    1      -20.520  77.636  30.896  0.00  0.00    +0.165 A 
ATOM     12  F   LIG    1      -19.411  78.171  31.423  0.00  0.00    -0.202 F 
ATOM     13  C   LIG    1      -20.496  77.045  29.644  0.00  0.00    +0.151 A 
ATOM     14  N   LIG    1      -21.566  76.474  29.049  0.00  0.00    -0.260 NA
ATOM     15  C   LIG    1      -22.770  76.530  29.676  0.00  0.00    +0.121 A 
ATOM     16  C   LIG    1      -22.910  77.178  30.918  0.00  0.00    +0.032 A 
ATOM     17  C   LIG    1      -24.037  77.540  31.736  0.00  0.00    +0.049 A 
ATOM     18  C   LIG    1      -23.501  78.043  32.907  0.00  0.00    +0.099 A 
BRANCH   9  20
ATOM     19  C   LIG    1      -21.951  79.650  34.747  0.00  0.00    +0.030 C 
ATOM     20  C   LIG    1      -21.242  78.627  33.860  0.00  0.00    +0.081 C 
ATOM     21  C   LIG    1      -20.641  77.522  34.746  0.00  0.00    +0.030 C 
ENDBRANCH   9  20
ENDBRANCH   7  17
ENDBRANCH   1   7
BRANCH   3  22
ATOM     22  N   LIG    1      -29.510  74.525  31.680  0.00  0.00    -0.214 NA
ATOM     23  C   LIG    1      -30.630  75.028  32.112  0.00  0.00    +0.210 C 
BRANCH  23  24
ATOM     24  O   LIG    1      -30.658  75.981  33.062  0.00  0.00    -0.494 OA
ATOM     25  H   LIG    1      -29.798  76.453  33.148  0.00  0.00    +0.293 HD
ENDBRANCH  23  24
BRANCH  23  26
ATOM     26  C   LIG    1      -31.966  74.581  31.536  0.00  0.00    +0.238 C 
BRANCH  26  27
ATOM     27  N   LIG    1      -32.330  75.170  30.249  0.00  0.00    -0.262 N 
ATOM     28  N   LIG    1      -33.173  74.512  29.421  0.00  0.00    -0.179 NA
ATOM     29  C   LIG    1      -33.288  75.314  28.361  0.00  0.00    +0.146 A 
ATOM     30  C   LIG    1      -32.537  76.497  28.494  0.00  0.00    +0.092 A 
ATOM     31  C   LIG    1      -31.929  76.372  29.735  0.00  0.00    +0.121 A 
BRANCH  30  32
ATOM     32  C   LIG    1      -32.459  77.583  27.488  0.00  0.00    +0.420 C 
ATOM     33  F   LIG    1      -31.922  78.713  28.013  0.00  0.00    -0.166 F 
ATOM     34  F   LIG    1      -33.686  77.913  27.015  0.00  0.00    -0.166 F 
ATOM     35  F   LIG    1      -31.698  77.243  26.418  0.00  0.00    -0.166 F 
ENDBRANCH  30  32
ENDBRANCH  26  27
ENDBRANCH  23  26
ENDBRANCH   3  22
TORSDOF 8
ENDMDL
MODEL 6
REMARK VINA RESULT:      -5.8     11.138     15.441
REMARK  Name = pdb/CHEMBL3952175.pdb
REMARK                            x       y       z     vdW  Elec       q    Type
REMARK                         _______ _______ _______ _____ _____    ______ ____
ROOT
ATOM      1  C   LIG    1      -35.400  81.995  28.923  0.00  0.00    +0.042 A 
ATOM      2  C   LIG    1      -35.220  83.330  29.331  0.00  0.00    +0.042 A 
ATOM      3  C   LIG    1      -35.541  84.396  28.472  0.00  0.00    +0.086 A 
ATOM      4  C   LIG    1      -36.069  84.027  27.230  0.00  0.00    +0.138 A 
ATOM      5  N   LIG    1      -36.346  82.757  26.833  0.00  0.00    -0.260 NA
ATOM      6  C   LIG    1      -36.016  81.775  27.698  0.00  0.00    +0.122 A 
ENDROOT
BRANCH   1   7
ATOM      7  C   LIG    1      -34.934  80.851  29.775  0.00  0.00    +0.197 C 
ATOM      8  O   LIG    1      -34.614  81.069  30.929  0.00  0.00    -0.287 OA
BRANCH   7  17
ATOM      9  N   LIG    1      -35.264  77.291  28.885  0.00  0.00    -0.341 N 
ATOM     10  C   LIG    1      -34.218  77.624  28.043  0.00  0.00    +0.089 A 
ATOM     11  C   LIG    1      -33.392  76.856  27.216  0.00  0.00    +0.165 A 
ATOM     12  F   LIG    1      -33.459  75.520  27.176  0.00  0.00    -0.202 F 
ATOM     13  C   LIG    1      -32.464  77.543  26.450  0.00  0.00    +0.151 A 
ATOM     14  N   LIG    1      -32.341  78.889  26.425  0.00  0.00    -0.260 NA
ATOM     15  C   LIG    1      -33.127  79.632  27.248  0.00  0.00    +0.121 A 
ATOM     16  C   LIG    1      -34.047  79.020  28.120  0.00  0.00    +0.032 A 
ATOM     17  C   LIG    1      -34.879  79.496  29.192  0.00  0.00    +0.049 A 
ATOM     18  C   LIG    1      -35.655  78.416  29.569  0.00  0.00    +0.099 A 
BRANCH   9  20
ATOM     19  C   LIG    1      -36.608  75.843  30.380  0.00  0.00    +0.030 C 
ATOM     20  C   LIG    1      -35.867  75.960  29.048  0.00  0.00    +0.081 C 
ATOM     21  C   LIG    1      -36.819  75.562  27.905  0.00  0.00    +0.030 C 
ENDBRANCH   9  20
ENDBRANCH   7  17
ENDBRANCH   1   7
BRANCH   3  22
ATOM     22  N   LIG    1      -35.211  85.720  28.869  0.00  0.00    -0.214 NA
ATOM     23  C   LIG    1      -33.998  86.186  28.828  0.00  0.00    +0.210 C 
BRANCH  23  24
ATOM     24  O   LIG    1      -32.977  85.459  28.336  0.00  0.00    -0.494 OA
ATOM     25  H   LIG    1      -33.087  85.255  27.379  0.00  0.00    +0.293 HD
ENDBRANCH  23  24
BRANCH  23  26
ATOM     26  C   LIG    1      -33.680  87.595  29.307  0.00  0.00    +0.238 C 
BRANCH  26  27
ATOM     27  N   LIG    1      -32.687  87.692  30.376  0.00  0.00    -0.262 N 
ATOM     28  N   LIG    1      -33.069  87.547  31.666  0.00  0.00    -0.179 NA
ATOM     29  C   LIG    1      -31.940  87.687  32.362  0.00  0.00    +0.146 A 
ATOM     30  C   LIG    1      -30.820  87.911  31.539  0.00  0.00    +0.092 A 
ATOM     31  C   LIG    1      -31.342  87.903  30.253  0.00  0.00    +0.121 A 
BRANCH  30  32
ATOM     32  C   LIG    1      -29.430  88.106  32.013  0.00  0.00    +0.420 C 
ATOM     33  F   LIG    1      -29.226  89.372  32.456  0.00  0.00    -0.166 F 
ATOM     34  F   LIG    1      -28.529  87.885  31.023  0.00  0.00    -0.166 F 
ATOM     35  F   LIG    1      -29.111  87.273  33.035  0.00  0.00    -0.166 F 
ENDBRANCH  30  32
ENDBRANCH  26  27
ENDBRANCH  23  26
ENDBRANCH   3  22
TORSDOF 8
ENDMDL
MODEL 7
REMARK VINA RESULT:      -5.8     14.392     17.276
REMARK  Name = pdb/CHEMBL3952175.pdb
REMARK                            x       y       z     vdW  Elec       q    Type
REMARK                         _______ _______ _______ _____ _____    ______ ____
ROOT
ATOM      1  C   LIG    1      -20.408  80.917  15.885  0.00  0.00    +0.042 A 
ATOM      2  C   LIG    1      -20.074  79.662  16.430  0.00  0.00    +0.042 A 
ATOM      3  C   LIG    1      -18.811  79.088  16.199  0.00  0.00    +0.086 A 
ATOM      4  C   LIG    1      -17.931  79.864  15.434  0.00  0.00    +0.138 A 
ATOM      5  N   LIG    1      -18.180  81.116  14.970  0.00  0.00    -0.260 NA
ATOM      6  C   LIG    1      -19.408  81.615  15.221  0.00  0.00    +0.122 A 
ENDROOT
BRANCH   1   7
ATOM      7  C   LIG    1      -21.795  81.474  16.009  0.00  0.00    +0.197 C 
ATOM      8  O   LIG    1      -22.062  82.185  16.959  0.00  0.00    -0.287 OA
BRANCH   7  17
ATOM      9  N   LIG    1      -24.046  81.291  13.097  0.00  0.00    -0.341 N 
ATOM     10  C   LIG    1      -24.619  80.299  13.871  0.00  0.00    +0.089 A 
ATOM     11  C   LIG    1      -25.789  79.545  13.724  0.00  0.00    +0.165 A 
ATOM     12  F   LIG    1      -26.660  79.758  12.730  0.00  0.00    -0.202 F 
ATOM     13  C   LIG    1      -26.030  78.575  14.682  0.00  0.00    +0.151 A 
ATOM     14  N   LIG    1      -25.197  78.291  15.708  0.00  0.00    -0.260 NA
ATOM     15  C   LIG    1      -24.074  79.040  15.865  0.00  0.00    +0.121 A 
ATOM     16  C   LIG    1      -23.782  80.100  14.985  0.00  0.00    +0.032 A 
ATOM     17  C   LIG    1      -22.796  81.147  14.973  0.00  0.00    +0.049 A 
ATOM     18  C   LIG    1      -22.954  81.794  13.762  0.00  0.00    +0.099 A 
BRANCH   9  20
ATOM     19  C   LIG    1      -25.563  82.859  11.923  0.00  0.00    +0.030 C 
ATOM     20  C   LIG    1      -24.513  81.757  11.783  0.00  0.00    +0.081 C 
ATOM     21  C   LIG    1      -23.385  82.249  10.858  0.00  0.00    +0.030 C 
ENDBRANCH   9  20
ENDBRANCH   7  17
ENDBRANCH   1   7
BRANCH   3  22
ATOM     22  N   LIG    1      -18.568  77.762  16.646  0.00  0.00    -0.214 NA
ATOM     23  C   LIG    1      -18.753  76.719  15.892  0.00  0.00    +0.210 C 
BRANCH  23  24
ATOM     24  O   LIG    1      -19.126  76.836  14.603  0.00  0.00    -0.494 OA
ATOM     25  H   LIG    1      -18.836  77.687  14.203  0.00  0.00    +0.293 HD
ENDBRANCH  23  24
BRANCH  23  26
ATOM     26  C   LIG    1      -18.526  75.312  16.426  0.00  0.00    +0.238 C 
BRANCH  26  27
ATOM     27  N   LIG    1      -19.730  74.585  16.826  0.00  0.00    -0.262 N 
ATOM     28  N   LIG    1      -20.892  74.790  16.166  0.00  0.00    -0.179 NA
ATOM     29  C   LIG    1      -21.764  73.984  16.774  0.00  0.00    +0.146 A 
ATOM     30  C   LIG    1      -21.179  73.244  17.819  0.00  0.00    +0.092 A 
ATOM     31  C   LIG    1      -19.854  73.656  17.823  0.00  0.00    +0.121 A 
BRANCH  30  32
ATOM     32  C   LIG    1      -21.886  72.267  18.681  0.00  0.00    +0.420 C 
ATOM     33  F   LIG    1      -21.073  71.776  19.650  0.00  0.00    -0.166 F 
ATOM     34  F   LIG    1      -22.334  71.205  17.967  0.00  0.00    -0.166 F 
ATOM     35  F   LIG    1      -22.962  72.810  19.303  0.00  0.00    -0.166 F 
ENDBRANCH  30  32
ENDBRANCH  26  27
ENDBRANCH  23  26
ENDBRANCH   3  22
TORSDOF 8
ENDMDL
MODEL 8
REMARK VINA RESULT:      -5.7     12.141     14.674
REMARK  Name = pdb/CHEMBL3952175.pdb
REMARK                            x       y       z     vdW  Elec       q    Type
REMARK                         _______ _______ _______ _____ _____    ______ ____
ROOT
ATOM      1  C   LIG    1      -35.613  82.021  28.759  0.00  0.00    +0.042 A 
ATOM      2  C   LIG    1      -36.450  81.532  27.737  0.00  0.00    +0.042 A 
ATOM      3  C   LIG    1      -37.249  82.407  26.979  0.00  0.00    +0.086 A 
ATOM      4  C   LIG    1      -37.119  83.764  27.296  0.00  0.00    +0.138 A 
ATOM      5  N   LIG    1      -36.257  84.284  28.207  0.00  0.00    -0.260 NA
ATOM      6  C   LIG    1      -35.517  83.398  28.905  0.00  0.00    +0.122 A 
ENDROOT
BRANCH   1   7
ATOM      7  C   LIG    1      -34.863  81.087  29.662  0.00  0.00    +0.197 C 
ATOM      8  O   LIG    1      -34.395  81.520  30.699  0.00  0.00    -0.287 OA
BRANCH   7  17
ATOM      9  N   LIG    1      -34.878  77.418  29.324  0.00  0.00    -0.341 N 
ATOM     10  C   LIG    1      -33.978  77.720  28.319  0.00  0.00    +0.089 A 
ATOM     11  C   LIG    1      -33.166  76.920  27.508  0.00  0.00    +0.165 A 
ATOM     12  F   LIG    1      -33.082  75.593  27.663  0.00  0.00    -0.202 F 
ATOM     13  C   LIG    1      -32.415  77.570  26.543  0.00  0.00    +0.151 A 
ATOM     14  N   LIG    1      -32.451  78.902  26.316  0.00  0.00    -0.260 NA
ATOM     15  C   LIG    1      -33.220  79.681  27.120  0.00  0.00    +0.121 A 
ATOM     16  C   LIG    1      -33.961  79.121  28.178  0.00  0.00    +0.032 A 
ATOM     17  C   LIG    1      -34.718  79.671  29.271  0.00  0.00    +0.049 A 
ATOM     18  C   LIG    1      -35.318  78.590  29.890  0.00  0.00    +0.099 A 
BRANCH   9  20
ATOM     19  C   LIG    1      -35.807  76.077  31.189  0.00  0.00    +0.030 C 
ATOM     20  C   LIG    1      -35.302  76.075  29.746  0.00  0.00    +0.081 C 
ATOM     21  C   LIG    1      -36.374  75.445  28.838  0.00  0.00    +0.030 C 
ENDBRANCH   9  20
ENDBRANCH   7  17
ENDBRANCH   1   7
BRANCH   3  22
ATOM     22  N   LIG    1      -38.181  81.860  26.057  0.00  0.00    -0.214 NA
ATOM     23  C   LIG    1      -39.306  81.322  26.428  0.00  0.00    +0.210 C 
BRANCH  23  24
ATOM     24  O   LIG    1      -39.694  81.313  27.718  0.00  0.00    -0.494 OA
ATOM     25  H   LIG    1      -39.781  80.401  28.078  0.00  0.00    +0.293 HD
ENDBRANCH  23  24
BRANCH  23  26
ATOM     26  C   LIG    1      -40.256  80.704  25.412  0.00  0.00    +0.238 C 
BRANCH  26  27
ATOM     27  N   LIG    1      -39.883  79.378  24.922  0.00  0.00    -0.262 N 
ATOM     28  N   LIG    1      -40.237  78.997  23.674  0.00  0.00    -0.179 NA
ATOM     29  C   LIG    1      -39.747  77.761  23.554  0.00  0.00    +0.146 A 
ATOM     30  C   LIG    1      -39.065  77.336  24.710  0.00  0.00    +0.092 A 
ATOM     31  C   LIG    1      -39.170  78.413  25.578  0.00  0.00    +0.121 A 
BRANCH  30  32
ATOM     32  C   LIG    1      -38.414  76.016  24.886  0.00  0.00    +0.420 C 
ATOM     33  F   LIG    1      -37.131  76.030  24.444  0.00  0.00    -0.166 F 
ATOM     34  F   LIG    1      -39.058  75.045  24.193  0.00  0.00    -0.166 F 
ATOM     35  F   LIG    1      -38.381  75.624  26.184  0.00  0.00    -0.166 F 
ENDBRANCH  30  32
ENDBRANCH  26  27
ENDBRANCH  23  26
ENDBRANCH   3  22
TORSDOF 8
ENDMDL
MODEL 9
REMARK VINA RESULT:      -5.7     17.393     19.523
REMARK  Name = pdb/CHEMBL3952175.pdb
REMARK                            x       y       z     vdW  Elec       q    Type
REMARK                         _______ _______ _______ _____ _____    ______ ____
ROOT
ATOM      1  C   LIG    1      -22.255  82.298  14.925  0.00  0.00    +0.042 A 
ATOM      2  C   LIG    1      -23.523  81.918  14.444  0.00  0.00    +0.042 A 
ATOM      3  C   LIG    1      -24.209  80.826  15.005  0.00  0.00    +0.086 A 
ATOM      4  C   LIG    1      -23.559  80.193  16.071  0.00  0.00    +0.138 A 
ATOM      5  N   LIG    1      -22.382  80.585  16.625  0.00  0.00    -0.260 NA
ATOM      6  C   LIG    1      -21.768  81.638  16.044  0.00  0.00    +0.122 A 
ENDROOT
BRANCH   1   7
ATOM      7  C   LIG    1      -21.456  83.371  14.244  0.00  0.00    +0.197 C 
ATOM      8  O   LIG    1      -20.250  83.237  14.151  0.00  0.00    -0.287 OA
BRANCH   7  17
ATOM      9  N   LIG    1      -23.257  85.908  12.271  0.00  0.00    -0.341 N 
ATOM     10  C   LIG    1      -22.891  86.696  13.347  0.00  0.00    +0.089 A 
ATOM     11  C   LIG    1      -22.995  88.070  13.589  0.00  0.00    +0.165 A 
ATOM     12  F   LIG    1      -23.451  88.929  12.668  0.00  0.00    -0.202 F 
ATOM     13  C   LIG    1      -22.570  88.520  14.828  0.00  0.00    +0.151 A 
ATOM     14  N   LIG    1      -22.109  87.719  15.814  0.00  0.00    -0.260 NA
ATOM     15  C   LIG    1      -21.984  86.388  15.570  0.00  0.00    +0.121 A 
ATOM     16  C   LIG    1      -22.318  85.847  14.313  0.00  0.00    +0.032 A 
ATOM     17  C   LIG    1      -22.154  84.554  13.705  0.00  0.00    +0.049 A 
ATOM     18  C   LIG    1      -22.814  84.627  12.492  0.00  0.00    +0.099 A 
BRANCH   9  20
ATOM     19  C   LIG    1      -23.356  85.786   9.799  0.00  0.00    +0.030 C 
ATOM     20  C   LIG    1      -23.988  86.346  11.073  0.00  0.00    +0.081 C 
ATOM     21  C   LIG    1      -25.485  85.992  11.092  0.00  0.00    +0.030 C 
ENDBRANCH   9  20
ENDBRANCH   7  17
ENDBRANCH   1   7
BRANCH   3  22
ATOM     22  N   LIG    1      -25.417  80.390  14.399  0.00  0.00    -0.214 NA
ATOM     23  C   LIG    1      -25.461  79.418  13.535  0.00  0.00    +0.210 C 
BRANCH  23  24
ATOM     24  O   LIG    1      -24.362  78.711  13.210  0.00  0.00    -0.494 OA
ATOM     25  H   LIG    1      -24.241  77.919  13.782  0.00  0.00    +0.293 HD
ENDBRANCH  23  24
BRANCH  23  26
ATOM     26  C   LIG    1      -26.770  79.013  12.872  0.00  0.00    +0.238 C 
BRANCH  26  27
ATOM     27  N   LIG    1      -27.166  77.617  13.055  0.00  0.00    -0.262 N 
ATOM     28  N   LIG    1      -26.770  76.942  14.157  0.00  0.00    -0.179 NA
ATOM     29  C   LIG    1      -27.296  75.726  14.008  0.00  0.00    +0.146 A 
ATOM     30  C   LIG    1      -28.045  75.603  12.822  0.00  0.00    +0.092 A 
ATOM     31  C   LIG    1      -27.943  76.853  12.228  0.00  0.00    +0.121 A 
BRANCH  30  32
ATOM     32  C   LIG    1      -28.751  74.379  12.375  0.00  0.00    +0.420 C 
ATOM     33  F   LIG    1      -30.098  74.547  12.385  0.00  0.00    -0.166 F 
ATOM     34  F   LIG    1      -28.480  73.323  13.182  0.00  0.00    -0.166 F 
ATOM     35  F   LIG    1      -28.407  74.015  11.114  0.00  0.00    -0.166 F 
ENDBRANCH  30  32
ENDBRANCH  26  27
ENDBRANCH  23  26
ENDBRANCH   3  22
TORSDOF 8
ENDMDL
