MODEL 1
REMARK VINA RESULT:      -6.7      0.000      0.000
REMARK  Name = pdb/CHEMBL3968810.pdb
REMARK                            x       y       z     vdW  Elec       q    Type
REMARK                         _______ _______ _______ _____ _____    ______ ____
ROOT
ATOM      1  C   LIG    1      -36.676  66.924  20.427  0.00  0.00    +0.323 A 
ATOM      2  N   LIG    1      -37.233  68.088  20.040  0.00  0.00    -0.201 NA
ATOM      3  C   LIG    1      -37.860  68.797  20.998  0.00  0.00    +0.145 A 
ATOM      4  C   LIG    1      -37.884  68.461  22.335  0.00  0.00    +0.105 A 
ATOM      5  C   LIG    1      -37.317  67.226  22.606  0.00  0.00    +0.145 A 
ATOM      6  N   LIG    1      -36.696  66.448  21.685  0.00  0.00    -0.201 NA
ENDROOT
BRANCH   4   7
ATOM      7  N   LIG    1      -38.541  69.217  23.312  0.00  0.00    -0.196 NA
ATOM      8  C   LIG    1      -38.028  70.234  23.933  0.00  0.00    +0.285 C 
BRANCH   8   9
ATOM      9  N   LIG    1      -38.650  71.082  24.790  0.00  0.00    -0.268 N 
ATOM     10  H   LIG    1      -38.712  70.789  25.758  0.00  0.00    +0.157 HD
BRANCH   9  11
ATOM     11  C   LIG    1      -39.062  72.394  24.496  0.00  0.00    +0.054 A 
ATOM     12  C   LIG    1      -40.304  72.682  23.899  0.00  0.00    +0.062 A 
ATOM     13 CL   LIG    1      -41.345  71.417  23.349  0.00  0.00    -0.082 Cl
ATOM     14  C   LIG    1      -40.732  74.006  23.739  0.00  0.00    +0.022 A 
ATOM     15  C   LIG    1      -39.918  75.064  24.151  0.00  0.00    +0.014 A 
ATOM     16  C   LIG    1      -38.669  74.809  24.725  0.00  0.00    +0.057 A 
ATOM     17  C   LIG    1      -38.264  73.479  24.889  0.00  0.00    +0.037 A 
BRANCH  16  18
ATOM     18  C   LIG    1      -37.769  75.934  25.165  0.00  0.00    +0.417 C 
ATOM     19  F   LIG    1      -38.459  76.955  25.738  0.00  0.00    -0.166 F 
ATOM     20  F   LIG    1      -37.081  76.476  24.124  0.00  0.00    -0.166 F 
ATOM     21  F   LIG    1      -36.829  75.557  26.078  0.00  0.00    -0.166 F 
ENDBRANCH  16  18
ENDBRANCH   9  11
ENDBRANCH   8   9
BRANCH   8  22
ATOM     22  O   LIG    1      -36.741  70.598  23.793  0.00  0.00    -0.481 OA
ATOM     23  H   LIG    1      -36.122  69.909  24.076  0.00  0.00    +0.295 HD
ENDBRANCH   8  22
ENDBRANCH   4   7
BRANCH   1  24
ATOM     24  O   LIG    1      -35.942  66.177  19.512  0.00  0.00    -0.424 OA
BRANCH  24  28
ATOM     25  C   LIG    1      -32.046  67.536  18.552  0.00  0.00    -0.014 A 
ATOM     26  C   LIG    1      -33.146  67.695  17.683  0.00  0.00    +0.012 A 
ATOM     27  C   LIG    1      -34.431  67.223  18.015  0.00  0.00    +0.047 A 
ATOM     28  C   LIG    1      -34.654  66.568  19.226  0.00  0.00    +0.132 A 
ATOM     29  C   LIG    1      -33.593  66.434  20.116  0.00  0.00    +0.047 A 
ATOM     30  C   LIG    1      -32.318  66.902  19.778  0.00  0.00    +0.012 A 
BRANCH  25  32
ATOM     31  C   LIG    1      -29.641  67.274  17.661  0.00  0.00    +0.124 A 
ATOM     32  C   LIG    1      -30.678  68.053  18.228  0.00  0.00    +0.023 A 
ATOM     33  C   LIG    1      -30.330  69.389  18.524  0.00  0.00    +0.033 A 
ATOM     34  C   LIG    1      -29.045  69.869  18.273  0.00  0.00    +0.060 A 
ATOM     35 CL   LIG    1      -28.628  71.495  18.628  0.00  0.00    -0.082 Cl
ATOM     36  C   LIG    1      -28.113  69.005  17.738  0.00  0.00    +0.133 A 
ATOM     37  N   LIG    1      -28.385  67.721  17.431  0.00  0.00    -0.239 NA
BRANCH  31  38
ATOM     38  N   LIG    1      -29.804  65.948  17.262  0.00  0.00    -0.343 N 
ATOM     39  H   LIG    1      -30.445  65.466  17.883  0.00  0.00    +0.144 HD
ATOM     40  H   LIG    1      -30.160  65.981  16.310  0.00  0.00    +0.144 HD
ENDBRANCH  31  38
ENDBRANCH  25  32
ENDBRANCH  24  28
ENDBRANCH   1  24
TORSDOF 9
ENDMDL
MODEL 2
REMARK VINA RESULT:      -6.6      1.894      2.305
REMARK  Name = pdb/CHEMBL3968810.pdb
REMARK                            x       y       z     vdW  Elec       q    Type
REMARK                         _______ _______ _______ _____ _____    ______ ____
ROOT
ATOM      1  C   LIG    1      -35.786  66.789  18.962  0.00  0.00    +0.323 A 
ATOM      2  N   LIG    1      -36.530  67.884  18.710  0.00  0.00    -0.201 NA
ATOM      3  C   LIG    1      -37.394  68.254  19.674  0.00  0.00    +0.145 A 
ATOM      4  C   LIG    1      -37.494  67.653  20.911  0.00  0.00    +0.105 A 
ATOM      5  C   LIG    1      -36.713  66.516  21.041  0.00  0.00    +0.145 A 
ATOM      6  N   LIG    1      -35.843  66.071  20.099  0.00  0.00    -0.201 NA
ENDROOT
BRANCH   4   7
ATOM      7  N   LIG    1      -38.399  68.059  21.898  0.00  0.00    -0.196 NA
ATOM      8  C   LIG    1      -38.184  69.004  22.759  0.00  0.00    +0.285 C 
BRANCH   8   9
ATOM      9  N   LIG    1      -39.062  69.528  23.652  0.00  0.00    -0.268 N 
ATOM     10  H   LIG    1      -39.150  69.052  24.541  0.00  0.00    +0.157 HD
BRANCH   9  11
ATOM     11  C   LIG    1      -39.730  70.759  23.522  0.00  0.00    +0.054 A 
ATOM     12  C   LIG    1      -41.001  70.873  22.930  0.00  0.00    +0.062 A 
ATOM     13 CL   LIG    1      -41.762  69.513  22.182  0.00  0.00    -0.082 Cl
ATOM     14  C   LIG    1      -41.688  72.094  22.934  0.00  0.00    +0.022 A 
ATOM     15  C   LIG    1      -41.106  73.226  23.510  0.00  0.00    +0.014 A 
ATOM     16  C   LIG    1      -39.835  73.150  24.084  0.00  0.00    +0.057 A 
ATOM     17  C   LIG    1      -39.169  71.918  24.082  0.00  0.00    +0.037 A 
BRANCH  16  18
ATOM     18  C   LIG    1      -39.182  74.360  24.700  0.00  0.00    +0.417 C 
ATOM     19  F   LIG    1      -39.535  74.533  26.001  0.00  0.00    -0.166 F 
ATOM     20  F   LIG    1      -39.525  75.509  24.057  0.00  0.00    -0.166 F 
ATOM     21  F   LIG    1      -37.821  74.316  24.682  0.00  0.00    -0.166 F 
ENDBRANCH  16  18
ENDBRANCH   9  11
ENDBRANCH   8   9
BRANCH   8  22
ATOM     22  O   LIG    1      -36.995  69.621  22.881  0.00  0.00    -0.481 OA
ATOM     23  H   LIG    1      -36.253  69.001  22.933  0.00  0.00    +0.295 HD
ENDBRANCH   8  22
ENDBRANCH   4   7
BRANCH   1  24
ATOM     24  O   LIG    1      -34.815  66.394  18.049  0.00  0.00    -0.424 OA
BRANCH  24  28
ATOM     25  C   LIG    1      -31.143  68.509  18.028  0.00  0.00    -0.014 A 
ATOM     26  C   LIG    1      -32.072  68.579  16.967  0.00  0.00    +0.012 A 
ATOM     27  C   LIG    1      -33.281  67.857  16.987  0.00  0.00    +0.047 A 
ATOM     28  C   LIG    1      -33.595  67.032  18.067  0.00  0.00    +0.132 A 
ATOM     29  C   LIG    1      -32.713  66.977  19.142  0.00  0.00    +0.047 A 
ATOM     30  C   LIG    1      -31.512  67.696  19.114  0.00  0.00    +0.012 A 
BRANCH  25  32
ATOM     31  C   LIG    1      -29.786  70.695  18.187  0.00  0.00    +0.124 A 
ATOM     32  C   LIG    1      -29.865  69.289  18.036  0.00  0.00    +0.023 A 
ATOM     33  C   LIG    1      -28.628  68.637  17.843  0.00  0.00    +0.033 A 
ATOM     34  C   LIG    1      -27.434  69.357  17.799  0.00  0.00    +0.060 A 
ATOM     35 CL   LIG    1      -25.932  68.560  17.570  0.00  0.00    -0.082 Cl
ATOM     36  C   LIG    1      -27.489  70.728  17.936  0.00  0.00    +0.133 A 
ATOM     37  N   LIG    1      -28.638  71.408  18.127  0.00  0.00    -0.239 NA
BRANCH  31  38
ATOM     38  N   LIG    1      -30.892  71.506  18.430  0.00  0.00    -0.343 N 
ATOM     39  H   LIG    1      -31.259  71.877  17.561  0.00  0.00    +0.144 HD
ATOM     40  H   LIG    1      -31.576  70.919  18.903  0.00  0.00    +0.144 HD
ENDBRANCH  31  38
ENDBRANCH  25  32
ENDBRANCH  24  28
ENDBRANCH   1  24
TORSDOF 9
ENDMDL
MODEL 3
REMARK VINA RESULT:      -6.4      1.397      2.101
REMARK  Name = pdb/CHEMBL3968810.pdb
REMARK                            x       y       z     vdW  Elec       q    Type
REMARK                         _______ _______ _______ _____ _____    ______ ____
ROOT
ATOM      1  C   LIG    1      -36.395  67.138  20.476  0.00  0.00    +0.323 A 
ATOM      2  N   LIG    1      -36.389  66.686  21.745  0.00  0.00    -0.201 NA
ATOM      3  C   LIG    1      -37.068  67.423  22.645  0.00  0.00    +0.145 A 
ATOM      4  C   LIG    1      -37.831  68.530  22.337  0.00  0.00    +0.105 A 
ATOM      5  C   LIG    1      -37.729  68.923  21.012  0.00  0.00    +0.145 A 
ATOM      6  N   LIG    1      -37.038  68.245  20.061  0.00  0.00    -0.201 NA
ENDROOT
BRANCH   4   7
ATOM      7  N   LIG    1      -38.531  69.277  23.290  0.00  0.00    -0.196 NA
ATOM      8  C   LIG    1      -38.040  70.273  23.960  0.00  0.00    +0.285 C 
BRANCH   8   9
ATOM      9  N   LIG    1      -38.697  71.112  24.800  0.00  0.00    -0.268 N 
ATOM     10  H   LIG    1      -38.797  70.812  25.762  0.00  0.00    +0.157 HD
BRANCH   9  11
ATOM     11  C   LIG    1      -39.100  72.426  24.499  0.00  0.00    +0.054 A 
ATOM     12  C   LIG    1      -40.331  72.719  23.884  0.00  0.00    +0.062 A 
ATOM     13 CL   LIG    1      -41.368  71.457  23.318  0.00  0.00    -0.082 Cl
ATOM     14  C   LIG    1      -40.752  74.044  23.717  0.00  0.00    +0.022 A 
ATOM     15  C   LIG    1      -39.940  75.099  24.142  0.00  0.00    +0.014 A 
ATOM     16  C   LIG    1      -38.702  74.839  24.734  0.00  0.00    +0.057 A 
ATOM     17  C   LIG    1      -38.304  73.508  24.904  0.00  0.00    +0.037 A 
BRANCH  16  18
ATOM     18  C   LIG    1      -37.804  75.961  25.189  0.00  0.00    +0.417 C 
ATOM     19  F   LIG    1      -37.063  76.475  24.172  0.00  0.00    -0.166 F 
ATOM     20  F   LIG    1      -36.919  75.555  26.138  0.00  0.00    -0.166 F 
ATOM     21  F   LIG    1      -38.477  77.014  25.732  0.00  0.00    -0.166 F 
ENDBRANCH  16  18
ENDBRANCH   9  11
ENDBRANCH   8   9
BRANCH   8  22
ATOM     22  O   LIG    1      -36.741  70.619  23.902  0.00  0.00    -0.481 OA
ATOM     23  H   LIG    1      -36.204  69.982  23.408  0.00  0.00    +0.295 HD
ENDBRANCH   8  22
ENDBRANCH   4   7
BRANCH   1  24
ATOM     24  O   LIG    1      -35.783  66.387  19.477  0.00  0.00    -0.424 OA
BRANCH  24  28
ATOM     25  C   LIG    1      -31.671  66.985  18.653  0.00  0.00    -0.014 A 
ATOM     26  C   LIG    1      -32.133  66.413  19.858  0.00  0.00    +0.012 A 
ATOM     27  C   LIG    1      -33.506  66.236  20.118  0.00  0.00    +0.047 A 
ATOM     28  C   LIG    1      -34.461  66.635  19.184  0.00  0.00    +0.132 A 
ATOM     29  C   LIG    1      -34.028  67.166  17.973  0.00  0.00    +0.047 A 
ATOM     30  C   LIG    1      -32.662  67.342  17.722  0.00  0.00    +0.012 A 
BRANCH  25  32
ATOM     31  C   LIG    1      -29.501  68.371  18.509  0.00  0.00    +0.124 A 
ATOM     32  C   LIG    1      -30.215  67.159  18.347  0.00  0.00    +0.023 A 
ATOM     33  C   LIG    1      -29.462  66.087  17.821  0.00  0.00    +0.033 A 
ATOM     34  C   LIG    1      -28.118  66.249  17.485  0.00  0.00    +0.060 A 
ATOM     35 CL   LIG    1      -27.205  64.942  16.851  0.00  0.00    -0.082 Cl
ATOM     36  C   LIG    1      -27.539  67.487  17.668  0.00  0.00    +0.133 A 
ATOM     37  N   LIG    1      -28.204  68.547  18.170  0.00  0.00    -0.239 NA
BRANCH  31  38
ATOM     38  N   LIG    1      -30.060  69.526  19.054  0.00  0.00    -0.343 N 
ATOM     39  H   LIG    1      -30.632  69.299  19.860  0.00  0.00    +0.144 HD
ATOM     40  H   LIG    1      -29.279  70.126  19.308  0.00  0.00    +0.144 HD
ENDBRANCH  31  38
ENDBRANCH  25  32
ENDBRANCH  24  28
ENDBRANCH   1  24
TORSDOF 9
ENDMDL
MODEL 4
REMARK VINA RESULT:      -6.3      2.705      3.283
REMARK  Name = pdb/CHEMBL3968810.pdb
REMARK                            x       y       z     vdW  Elec       q    Type
REMARK                         _______ _______ _______ _____ _____    ______ ____
ROOT
ATOM      1  C   LIG    1      -36.550  67.042  19.924  0.00  0.00    +0.323 A 
ATOM      2  N   LIG    1      -37.078  68.252  19.652  0.00  0.00    -0.201 NA
ATOM      3  C   LIG    1      -37.749  68.850  20.654  0.00  0.00    +0.145 A 
ATOM      4  C   LIG    1      -37.845  68.357  21.939  0.00  0.00    +0.105 A 
ATOM      5  C   LIG    1      -37.301  67.091  22.089  0.00  0.00    +0.145 A 
ATOM      6  N   LIG    1      -36.638  66.420  21.114  0.00  0.00    -0.201 NA
ENDROOT
BRANCH   4   7
ATOM      7  N   LIG    1      -38.546  69.000  22.964  0.00  0.00    -0.196 NA
ATOM      8  C   LIG    1      -38.101  70.007  23.650  0.00  0.00    +0.285 C 
BRANCH   8   9
ATOM      9  N   LIG    1      -38.775  70.751  24.563  0.00  0.00    -0.268 N 
ATOM     10  H   LIG    1      -38.613  70.534  25.539  0.00  0.00    +0.157 HD
BRANCH   9  11
ATOM     11  C   LIG    1      -39.541  71.898  24.286  0.00  0.00    +0.054 A 
ATOM     12  C   LIG    1      -39.128  73.192  24.653  0.00  0.00    +0.062 A 
ATOM     13 CL   LIG    1      -37.711  73.438  25.611  0.00  0.00    -0.082 Cl
ATOM     14  C   LIG    1      -39.855  74.318  24.248  0.00  0.00    +0.022 A 
ATOM     15  C   LIG    1      -41.019  74.169  23.488  0.00  0.00    +0.014 A 
ATOM     16  C   LIG    1      -41.466  72.895  23.128  0.00  0.00    +0.057 A 
ATOM     17  C   LIG    1      -40.719  71.782  23.532  0.00  0.00    +0.037 A 
BRANCH  16  18
ATOM     18  C   LIG    1      -42.724  72.709  22.320  0.00  0.00    +0.417 C 
ATOM     19  F   LIG    1      -43.669  71.997  22.990  0.00  0.00    -0.166 F 
ATOM     20  F   LIG    1      -42.492  72.037  21.160  0.00  0.00    -0.166 F 
ATOM     21  F   LIG    1      -43.320  73.880  21.960  0.00  0.00    -0.166 F 
ENDBRANCH  16  18
ENDBRANCH   9  11
ENDBRANCH   8   9
BRANCH   8  22
ATOM     22  O   LIG    1      -36.843  70.468  23.533  0.00  0.00    -0.481 OA
ATOM     23  H   LIG    1      -36.506  70.853  24.355  0.00  0.00    +0.295 HD
ENDBRANCH   8  22
ENDBRANCH   4   7
BRANCH   1  24
ATOM     24  O   LIG    1      -35.775  66.400  18.965  0.00  0.00    -0.424 OA
BRANCH  24  28
ATOM     25  C   LIG    1      -31.658  67.347  18.641  0.00  0.00    -0.014 A 
ATOM     26  C   LIG    1      -32.196  66.641  19.739  0.00  0.00    +0.012 A 
ATOM     27  C   LIG    1      -33.570  66.348  19.834  0.00  0.00    +0.047 A 
ATOM     28  C   LIG    1      -34.453  66.762  18.836  0.00  0.00    +0.132 A 
ATOM     29  C   LIG    1      -33.940  67.425  17.726  0.00  0.00    +0.047 A 
ATOM     30  C   LIG    1      -32.573  67.715  17.639  0.00  0.00    +0.012 A 
BRANCH  25  32
ATOM     31  C   LIG    1      -29.626  68.934  18.644  0.00  0.00    +0.124 A 
ATOM     32  C   LIG    1      -30.196  67.645  18.509  0.00  0.00    +0.023 A 
ATOM     33  C   LIG    1      -29.283  66.617  18.191  0.00  0.00    +0.033 A 
ATOM     34  C   LIG    1      -27.926  66.889  18.016  0.00  0.00    +0.060 A 
ATOM     35 CL   LIG    1      -26.817  65.636  17.634  0.00  0.00    -0.082 Cl
ATOM     36  C   LIG    1      -27.494  68.192  18.151  0.00  0.00    +0.133 A 
ATOM     37  N   LIG    1      -28.317  69.215  18.459  0.00  0.00    -0.239 NA
BRANCH  31  38
ATOM     38  N   LIG    1      -30.359  70.066  18.998  0.00  0.00    -0.343 N 
ATOM     39  H   LIG    1      -31.121  69.817  19.618  0.00  0.00    +0.144 HD
ATOM     40  H   LIG    1      -29.702  70.699  19.449  0.00  0.00    +0.144 HD
ENDBRANCH  31  38
ENDBRANCH  25  32
ENDBRANCH  24  28
ENDBRANCH   1  24
TORSDOF 9
ENDMDL
MODEL 5
REMARK VINA RESULT:      -6.1      9.370     15.146
REMARK  Name = pdb/CHEMBL3968810.pdb
REMARK                            x       y       z     vdW  Elec       q    Type
REMARK                         _______ _______ _______ _____ _____    ______ ____
ROOT
ATOM      1  C   LIG    1      -36.174  79.955  30.055  0.00  0.00    +0.323 A 
ATOM      2  N   LIG    1      -35.165  79.062  30.046  0.00  0.00    -0.201 NA
ATOM      3  C   LIG    1      -35.159  78.177  29.031  0.00  0.00    +0.145 A 
ATOM      4  C   LIG    1      -36.044  78.191  27.973  0.00  0.00    +0.105 A 
ATOM      5  C   LIG    1      -37.058  79.125  28.111  0.00  0.00    +0.145 A 
ATOM      6  N   LIG    1      -37.142  80.024  29.123  0.00  0.00    -0.201 NA
ENDROOT
BRANCH   4   7
ATOM      7  N   LIG    1      -36.014  77.262  26.927  0.00  0.00    -0.196 NA
ATOM      8  C   LIG    1      -36.670  76.143  26.909  0.00  0.00    +0.285 C 
BRANCH   8   9
ATOM      9  N   LIG    1      -36.783  75.265  25.881  0.00  0.00    -0.268 N 
ATOM     10  H   LIG    1      -35.979  74.681  25.687  0.00  0.00    +0.157 HD
BRANCH   9  11
ATOM     11  C   LIG    1      -37.964  74.975  25.175  0.00  0.00    +0.054 A 
ATOM     12  C   LIG    1      -38.428  73.660  24.980  0.00  0.00    +0.062 A 
ATOM     13 CL   LIG    1      -37.483  72.299  25.474  0.00  0.00    -0.082 Cl
ATOM     14  C   LIG    1      -39.671  73.419  24.383  0.00  0.00    +0.022 A 
ATOM     15  C   LIG    1      -40.462  74.486  23.950  0.00  0.00    +0.014 A 
ATOM     16  C   LIG    1      -40.018  75.801  24.108  0.00  0.00    +0.057 A 
ATOM     17  C   LIG    1      -38.778  76.023  24.718  0.00  0.00    +0.037 A 
BRANCH  16  18
ATOM     18  C   LIG    1      -40.849  76.967  23.638  0.00  0.00    +0.417 C 
ATOM     19  F   LIG    1      -41.770  76.604  22.706  0.00  0.00    -0.166 F 
ATOM     20  F   LIG    1      -40.089  77.938  23.063  0.00  0.00    -0.166 F 
ATOM     21  F   LIG    1      -41.545  77.581  24.636  0.00  0.00    -0.166 F 
ENDBRANCH  16  18
ENDBRANCH   9  11
ENDBRANCH   8   9
BRANCH   8  22
ATOM     22  O   LIG    1      -37.361  75.687  27.970  0.00  0.00    -0.481 OA
ATOM     23  H   LIG    1      -38.201  76.152  28.098  0.00  0.00    +0.295 HD
ENDBRANCH   8  22
ENDBRANCH   4   7
BRANCH   1  24
ATOM     24  O   LIG    1      -36.201  80.950  31.027  0.00  0.00    -0.424 OA
BRANCH  24  28
ATOM     25  C   LIG    1      -33.794  84.408  30.584  0.00  0.00    -0.014 A 
ATOM     26  C   LIG    1      -34.358  84.023  31.820  0.00  0.00    +0.012 A 
ATOM     27  C   LIG    1      -35.167  82.876  31.942  0.00  0.00    +0.047 A 
ATOM     28  C   LIG    1      -35.446  82.084  30.829  0.00  0.00    +0.132 A 
ATOM     29  C   LIG    1      -34.869  82.422  29.609  0.00  0.00    +0.047 A 
ATOM     30  C   LIG    1      -34.069  83.565  29.493  0.00  0.00    +0.012 A 
BRANCH  25  32
ATOM     31  C   LIG    1      -31.591  85.698  30.945  0.00  0.00    +0.124 A 
ATOM     32  C   LIG    1      -32.910  85.609  30.439  0.00  0.00    +0.023 A 
ATOM     33  C   LIG    1      -33.386  86.774  29.800  0.00  0.00    +0.033 A 
ATOM     34  C   LIG    1      -32.591  87.916  29.701  0.00  0.00    +0.060 A 
ATOM     35 CL   LIG    1      -33.171  89.328  28.918  0.00  0.00    -0.082 Cl
ATOM     36  C   LIG    1      -31.328  87.887  30.254  0.00  0.00    +0.133 A 
ATOM     37  N   LIG    1      -30.817  86.804  30.873  0.00  0.00    -0.239 NA
BRANCH  31  38
ATOM     38  N   LIG    1      -30.932  84.639  31.568  0.00  0.00    -0.343 N 
ATOM     39  H   LIG    1      -30.316  84.170  30.914  0.00  0.00    +0.144 HD
ATOM     40  H   LIG    1      -30.415  85.045  32.344  0.00  0.00    +0.144 HD
ENDBRANCH  31  38
ENDBRANCH  25  32
ENDBRANCH  24  28
ENDBRANCH   1  24
TORSDOF 9
ENDMDL
MODEL 6
REMARK VINA RESULT:      -6.1     17.604     20.152
REMARK  Name = pdb/CHEMBL3968810.pdb
REMARK                            x       y       z     vdW  Elec       q    Type
REMARK                         _______ _______ _______ _____ _____    ______ ____
ROOT
ATOM      1  C   LIG    1      -26.306  82.848  37.212  0.00  0.00    +0.323 A 
ATOM      2  N   LIG    1      -27.570  82.483  37.503  0.00  0.00    -0.201 NA
ATOM      3  C   LIG    1      -28.546  83.282  37.032  0.00  0.00    +0.145 A 
ATOM      4  C   LIG    1      -28.341  84.370  36.209  0.00  0.00    +0.105 A 
ATOM      5  C   LIG    1      -27.004  84.672  36.012  0.00  0.00    +0.145 A 
ATOM      6  N   LIG    1      -25.971  83.928  36.483  0.00  0.00    -0.201 NA
ENDROOT
BRANCH   4   7
ATOM      7  N   LIG    1      -29.374  85.183  35.730  0.00  0.00    -0.196 NA
ATOM      8  C   LIG    1      -30.020  84.987  34.622  0.00  0.00    +0.285 C 
BRANCH   8   9
ATOM      9  N   LIG    1      -31.108  85.658  34.167  0.00  0.00    -0.268 N 
ATOM     10  H   LIG    1      -31.824  85.885  34.846  0.00  0.00    +0.157 HD
BRANCH   9  11
ATOM     11  C   LIG    1      -31.254  86.212  32.882  0.00  0.00    +0.054 A 
ATOM     12  C   LIG    1      -30.432  87.251  32.406  0.00  0.00    +0.062 A 
ATOM     13 CL   LIG    1      -29.279  88.020  33.439  0.00  0.00    -0.082 Cl
ATOM     14  C   LIG    1      -30.525  87.688  31.079  0.00  0.00    +0.022 A 
ATOM     15  C   LIG    1      -31.455  87.109  30.211  0.00  0.00    +0.014 A 
ATOM     16  C   LIG    1      -32.300  86.092  30.661  0.00  0.00    +0.057 A 
ATOM     17  C   LIG    1      -32.184  85.660  31.988  0.00  0.00    +0.037 A 
BRANCH  16  18
ATOM     18  C   LIG    1      -33.319  85.462  29.747  0.00  0.00    +0.417 C 
ATOM     19  F   LIG    1      -33.313  84.105  29.822  0.00  0.00    -0.166 F 
ATOM     20  F   LIG    1      -33.095  85.772  28.441  0.00  0.00    -0.166 F 
ATOM     21  F   LIG    1      -34.599  85.848  30.007  0.00  0.00    -0.166 F 
ENDBRANCH  16  18
ENDBRANCH   9  11
ENDBRANCH   8   9
BRANCH   8  22
ATOM     22  O   LIG    1      -29.673  84.036  33.736  0.00  0.00    -0.481 OA
ATOM     23  H   LIG    1      -30.394  83.805  33.132  0.00  0.00    +0.295 HD
ENDBRANCH   8  22
ENDBRANCH   4   7
BRANCH   1  24
ATOM     24  O   LIG    1      -25.249  82.029  37.595  0.00  0.00    -0.424 OA
BRANCH  24  28
ATOM     25  C   LIG    1      -23.649  79.486  34.609  0.00  0.00    -0.014 A 
ATOM     26  C   LIG    1      -24.888  79.239  35.239  0.00  0.00    +0.012 A 
ATOM     27  C   LIG    1      -25.396  80.090  36.240  0.00  0.00    +0.047 A 
ATOM     28  C   LIG    1      -24.674  81.211  36.649  0.00  0.00    +0.132 A 
ATOM     29  C   LIG    1      -23.469  81.496  36.015  0.00  0.00    +0.047 A 
ATOM     30  C   LIG    1      -22.969  80.644  35.023  0.00  0.00    +0.012 A 
BRANCH  25  32
ATOM     31  C   LIG    1      -21.788  78.086  33.502  0.00  0.00    +0.124 A 
ATOM     32  C   LIG    1      -23.105  78.607  33.525  0.00  0.00    +0.023 A 
ATOM     33  C   LIG    1      -23.899  78.277  32.406  0.00  0.00    +0.033 A 
ATOM     34  C   LIG    1      -23.388  77.501  31.365  0.00  0.00    +0.060 A 
ATOM     35 CL   LIG    1      -24.358  77.097  30.009  0.00  0.00    -0.082 Cl
ATOM     36  C   LIG    1      -22.081  77.070  31.447  0.00  0.00    +0.133 A 
ATOM     37  N   LIG    1      -21.274  77.349  32.492  0.00  0.00    -0.239 NA
BRANCH  31  38
ATOM     38  N   LIG    1      -20.871  78.266  34.536  0.00  0.00    -0.343 N 
ATOM     39  H   LIG    1      -21.004  79.170  34.976  0.00  0.00    +0.144 HD
ATOM     40  H   LIG    1      -21.030  77.505  35.192  0.00  0.00    +0.144 HD
ENDBRANCH  31  38
ENDBRANCH  25  32
ENDBRANCH  24  28
ENDBRANCH   1  24
TORSDOF 9
ENDMDL
MODEL 7
REMARK VINA RESULT:      -6.1      4.731     10.720
REMARK  Name = pdb/CHEMBL3968810.pdb
REMARK                            x       y       z     vdW  Elec       q    Type
REMARK                         _______ _______ _______ _____ _____    ______ ____
ROOT
ATOM      1  C   LIG    1      -39.911  68.878  22.811  0.00  0.00    +0.323 A 
ATOM      2  N   LIG    1      -39.517  67.910  23.661  0.00  0.00    -0.201 NA
ATOM      3  C   LIG    1      -38.413  67.222  23.314  0.00  0.00    +0.145 A 
ATOM      4  C   LIG    1      -37.624  67.506  22.218  0.00  0.00    +0.105 A 
ATOM      5  C   LIG    1      -38.149  68.491  21.398  0.00  0.00    +0.145 A 
ATOM      6  N   LIG    1      -39.272  69.201  21.672  0.00  0.00    -0.201 NA
ENDROOT
BRANCH   4   7
ATOM      7  N   LIG    1      -36.478  66.778  21.880  0.00  0.00    -0.196 NA
ATOM      8  C   LIG    1      -35.280  67.044  22.299  0.00  0.00    +0.285 C 
BRANCH   8   9
ATOM      9  N   LIG    1      -34.154  66.309  22.113  0.00  0.00    -0.268 N 
ATOM     10  H   LIG    1      -33.721  65.917  22.941  0.00  0.00    +0.157 HD
BRANCH   9  11
ATOM     11  C   LIG    1      -33.633  65.903  20.872  0.00  0.00    +0.054 A 
ATOM     12  C   LIG    1      -33.964  64.672  20.276  0.00  0.00    +0.062 A 
ATOM     13 CL   LIG    1      -34.926  63.506  21.115  0.00  0.00    -0.082 Cl
ATOM     14  C   LIG    1      -33.526  64.359  18.984  0.00  0.00    +0.022 A 
ATOM     15  C   LIG    1      -32.730  65.262  18.273  0.00  0.00    +0.014 A 
ATOM     16  C   LIG    1      -32.365  66.482  18.847  0.00  0.00    +0.057 A 
ATOM     17  C   LIG    1      -32.824  66.782  20.136  0.00  0.00    +0.037 A 
BRANCH  16  18
ATOM     18  C   LIG    1      -31.498  67.466  18.105  0.00  0.00    +0.417 C 
ATOM     19  F   LIG    1      -30.330  67.718  18.753  0.00  0.00    -0.166 F 
ATOM     20  F   LIG    1      -32.112  68.669  17.944  0.00  0.00    -0.166 F 
ATOM     21  F   LIG    1      -31.153  67.053  16.853  0.00  0.00    -0.166 F 
ENDBRANCH  16  18
ENDBRANCH   9  11
ENDBRANCH   8   9
BRANCH   8  22
ATOM     22  O   LIG    1      -34.986  68.145  23.014  0.00  0.00    -0.481 OA
ATOM     23  H   LIG    1      -35.120  68.964  22.514  0.00  0.00    +0.295 HD
ENDBRANCH   8  22
ENDBRANCH   4   7
BRANCH   1  24
ATOM     24  O   LIG    1      -40.995  69.683  23.143  0.00  0.00    -0.424 OA
BRANCH  24  28
ATOM     25  C   LIG    1      -40.110  73.740  23.986  0.00  0.00    -0.014 A 
ATOM     26  C   LIG    1      -39.261  72.677  24.365  0.00  0.00    +0.012 A 
ATOM     27  C   LIG    1      -39.581  71.334  24.087  0.00  0.00    +0.047 A 
ATOM     28  C   LIG    1      -40.767  71.010  23.429  0.00  0.00    +0.132 A 
ATOM     29  C   LIG    1      -41.601  72.042  23.011  0.00  0.00    +0.047 A 
ATOM     30  C   LIG    1      -41.278  73.375  23.293  0.00  0.00    +0.012 A 
BRANCH  25  32
ATOM     31  C   LIG    1      -38.550  75.624  24.798  0.00  0.00    +0.124 A 
ATOM     32  C   LIG    1      -39.775  75.175  24.249  0.00  0.00    +0.023 A 
ATOM     33  C   LIG    1      -40.722  76.190  23.989  0.00  0.00    +0.033 A 
ATOM     34  C   LIG    1      -40.442  77.526  24.276  0.00  0.00    +0.060 A 
ATOM     35 CL   LIG    1      -41.593  78.756  23.954  0.00  0.00    -0.082 Cl
ATOM     36  C   LIG    1      -39.218  77.836  24.832  0.00  0.00    +0.133 A 
ATOM     37  N   LIG    1      -38.272  76.913  25.099  0.00  0.00    -0.239 NA
BRANCH  31  38
ATOM     38  N   LIG    1      -37.478  74.779  25.081  0.00  0.00    -0.343 N 
ATOM     39  H   LIG    1      -36.670  75.316  25.375  0.00  0.00    +0.144 HD
ATOM     40  H   LIG    1      -37.798  74.151  25.815  0.00  0.00    +0.144 HD
ENDBRANCH  31  38
ENDBRANCH  25  32
ENDBRANCH  24  28
ENDBRANCH   1  24
TORSDOF 9
ENDMDL
MODEL 8
REMARK VINA RESULT:      -6.1     18.879     20.762
REMARK  Name = pdb/CHEMBL3968810.pdb
REMARK                            x       y       z     vdW  Elec       q    Type
REMARK                         _______ _______ _______ _____ _____    ______ ____
ROOT
ATOM      1  C   LIG    1      -26.569  83.594  36.811  0.00  0.00    +0.323 A 
ATOM      2  N   LIG    1      -26.586  84.692  36.032  0.00  0.00    -0.201 NA
ATOM      3  C   LIG    1      -27.781  85.045  35.522  0.00  0.00    +0.145 A 
ATOM      4  C   LIG    1      -28.976  84.423  35.821  0.00  0.00    +0.105 A 
ATOM      5  C   LIG    1      -28.830  83.285  36.597  0.00  0.00    +0.145 A 
ATOM      6  N   LIG    1      -27.652  82.856  37.117  0.00  0.00    -0.201 NA
ENDROOT
BRANCH   4   7
ATOM      7  N   LIG    1      -30.206  84.812  35.281  0.00  0.00    -0.196 NA
ATOM      8  C   LIG    1      -30.721  84.339  34.188  0.00  0.00    +0.285 C 
BRANCH   8   9
ATOM      9  N   LIG    1      -31.956  84.578  33.682  0.00  0.00    -0.268 N 
ATOM     10  H   LIG    1      -32.744  84.403  34.294  0.00  0.00    +0.157 HD
BRANCH   9  11
ATOM     11  C   LIG    1      -32.235  85.202  32.452  0.00  0.00    +0.054 A 
ATOM     12  C   LIG    1      -33.365  84.882  31.678  0.00  0.00    +0.062 A 
ATOM     13 CL   LIG    1      -34.412  83.581  32.124  0.00  0.00    -0.082 Cl
ATOM     14  C   LIG    1      -33.675  85.613  30.525  0.00  0.00    +0.022 A 
ATOM     15  C   LIG    1      -32.849  86.662  30.114  0.00  0.00    +0.014 A 
ATOM     16  C   LIG    1      -31.706  86.988  30.849  0.00  0.00    +0.057 A 
ATOM     17  C   LIG    1      -31.420  86.254  32.005  0.00  0.00    +0.037 A 
BRANCH  16  18
ATOM     18  C   LIG    1      -30.794  88.107  30.417  0.00  0.00    +0.417 C 
ATOM     19  F   LIG    1      -30.393  88.880  31.461  0.00  0.00    -0.166 F 
ATOM     20  F   LIG    1      -31.396  88.946  29.532  0.00  0.00    -0.166 F 
ATOM     21  F   LIG    1      -29.653  87.678  29.808  0.00  0.00    -0.166 F 
ENDBRANCH  16  18
ENDBRANCH   9  11
ENDBRANCH   8   9
BRANCH   8  22
ATOM     22  O   LIG    1      -30.054  83.501  33.374  0.00  0.00    -0.481 OA
ATOM     23  H   LIG    1      -30.299  83.608  32.443  0.00  0.00    +0.295 HD
ENDBRANCH   8  22
ENDBRANCH   4   7
BRANCH   1  24
ATOM     24  O   LIG    1      -25.386  83.215  37.438  0.00  0.00    -0.424 OA
BRANCH  24  28
ATOM     25  C   LIG    1      -22.663  80.593  35.524  0.00  0.00    -0.014 A 
ATOM     26  C   LIG    1      -22.385  81.960  35.739  0.00  0.00    +0.012 A 
ATOM     27  C   LIG    1      -23.310  82.818  36.365  0.00  0.00    +0.047 A 
ATOM     28  C   LIG    1      -24.549  82.337  36.787  0.00  0.00    +0.132 A 
ATOM     29  C   LIG    1      -24.830  80.984  36.621  0.00  0.00    +0.047 A 
ATOM     30  C   LIG    1      -23.907  80.138  35.996  0.00  0.00    +0.012 A 
BRANCH  25  32
ATOM     31  C   LIG    1      -20.323  79.546  35.259  0.00  0.00    +0.124 A 
ATOM     32  C   LIG    1      -21.683  79.659  34.883  0.00  0.00    +0.023 A 
ATOM     33  C   LIG    1      -22.075  78.843  33.801  0.00  0.00    +0.033 A 
ATOM     34  C   LIG    1      -21.160  78.005  33.163  0.00  0.00    +0.060 A 
ATOM     35 CL   LIG    1      -21.642  77.010  31.852  0.00  0.00    -0.082 Cl
ATOM     36  C   LIG    1      -19.854  78.000  33.607  0.00  0.00    +0.133 A 
ATOM     37  N   LIG    1      -19.420  78.753  34.638  0.00  0.00    -0.239 NA
BRANCH  31  38
ATOM     38  N   LIG    1      -19.760  80.237  36.330  0.00  0.00    -0.343 N 
ATOM     39  H   LIG    1      -19.194  81.010  35.998  0.00  0.00    +0.144 HD
ATOM     40  H   LIG    1      -20.539  80.562  36.899  0.00  0.00    +0.144 HD
ENDBRANCH  31  38
ENDBRANCH  25  32
ENDBRANCH  24  28
ENDBRANCH   1  24
TORSDOF 9
ENDMDL
MODEL 9
REMARK VINA RESULT:      -6.0      9.414     14.606
REMARK  Name = pdb/CHEMBL3968810.pdb
REMARK                            x       y       z     vdW  Elec       q    Type
REMARK                         _______ _______ _______ _____ _____    ______ ____
ROOT
ATOM      1  C   LIG    1      -39.482  81.740  25.765  0.00  0.00    +0.323 A 
ATOM      2  N   LIG    1      -38.516  81.316  26.603  0.00  0.00    -0.201 NA
ATOM      3  C   LIG    1      -37.611  82.236  26.985  0.00  0.00    +0.145 A 
ATOM      4  C   LIG    1      -37.665  83.575  26.657  0.00  0.00    +0.105 A 
ATOM      5  C   LIG    1      -38.675  83.885  25.761  0.00  0.00    +0.145 A 
ATOM      6  N   LIG    1      -39.602  83.001  25.312  0.00  0.00    -0.201 NA
ENDROOT
BRANCH   4   7
ATOM      7  N   LIG    1      -36.713  84.512  27.070  0.00  0.00    -0.196 NA
ATOM      8  C   LIG    1      -35.607  84.772  26.444  0.00  0.00    +0.285 C 
BRANCH   8   9
ATOM      9  N   LIG    1      -34.709  85.751  26.720  0.00  0.00    -0.268 N 
ATOM     10  H   LIG    1      -34.259  86.196  25.929  0.00  0.00    +0.157 HD
BRANCH   9  11
ATOM     11  C   LIG    1      -34.471  86.317  27.986  0.00  0.00    +0.054 A 
ATOM     12  C   LIG    1      -35.300  87.309  28.541  0.00  0.00    +0.062 A 
ATOM     13 CL   LIG    1      -36.590  88.008  27.626  0.00  0.00    -0.082 Cl
ATOM     14  C   LIG    1      -35.105  87.755  29.854  0.00  0.00    +0.022 A 
ATOM     15  C   LIG    1      -34.064  87.233  30.626  0.00  0.00    +0.014 A 
ATOM     16  C   LIG    1      -33.210  86.265  30.094  0.00  0.00    +0.057 A 
ATOM     17  C   LIG    1      -33.428  85.822  28.785  0.00  0.00    +0.037 A 
BRANCH  16  18
ATOM     18  C   LIG    1      -32.073  85.697  30.905  0.00  0.00    +0.417 C 
ATOM     19  F   LIG    1      -30.858  86.016  30.386  0.00  0.00    -0.166 F 
ATOM     20  F   LIG    1      -32.117  84.339  30.966  0.00  0.00    -0.166 F 
ATOM     21  F   LIG    1      -32.055  86.128  32.197  0.00  0.00    -0.166 F 
ENDBRANCH  16  18
ENDBRANCH   9  11
ENDBRANCH   8   9
BRANCH   8  22
ATOM     22  O   LIG    1      -35.189  84.064  25.380  0.00  0.00    -0.481 OA
ATOM     23  H   LIG    1      -35.161  83.111  25.550  0.00  0.00    +0.295 HD
ENDBRANCH   8  22
ENDBRANCH   4   7
BRANCH   1  24
ATOM     24  O   LIG    1      -40.499  80.867  25.392  0.00  0.00    -0.424 OA
BRANCH  24  28
ATOM     25  C   LIG    1      -39.731  76.728  24.911  0.00  0.00    -0.014 A 
ATOM     26  C   LIG    1      -40.492  77.245  25.982  0.00  0.00    +0.012 A 
ATOM     27  C   LIG    1      -40.724  78.626  26.131  0.00  0.00    +0.047 A 
ATOM     28  C   LIG    1      -40.193  79.536  25.218  0.00  0.00    +0.132 A 
ATOM     29  C   LIG    1      -39.472  79.047  24.132  0.00  0.00    +0.047 A 
ATOM     30  C   LIG    1      -39.243  77.673  23.992  0.00  0.00    +0.012 A 
BRANCH  25  32
ATOM     31  C   LIG    1      -38.305  74.587  25.087  0.00  0.00    +0.124 A 
ATOM     32  C   LIG    1      -39.496  75.261  24.721  0.00  0.00    +0.023 A 
ATOM     33  C   LIG    1      -40.475  74.453  24.104  0.00  0.00    +0.033 A 
ATOM     34  C   LIG    1      -40.249  73.096  23.876  0.00  0.00    +0.060 A 
ATOM     35 CL   LIG    1      -41.444  72.116  23.131  0.00  0.00    -0.082 Cl
ATOM     36  C   LIG    1      -39.037  72.559  24.258  0.00  0.00    +0.133 A 
ATOM     37  N   LIG    1      -38.065  73.277  24.855  0.00  0.00    -0.239 NA
BRANCH  31  38
ATOM     38  N   LIG    1      -37.243  75.204  25.746  0.00  0.00    -0.343 N 
ATOM     39  H   LIG    1      -36.932  74.638  26.527  0.00  0.00    +0.144 HD
ATOM     40  H   LIG    1      -36.508  75.321  25.052  0.00  0.00    +0.144 HD
ENDBRANCH  31  38
ENDBRANCH  25  32
ENDBRANCH  24  28
ENDBRANCH   1  24
TORSDOF 9
ENDMDL
