MODEL 1
REMARK VINA RESULT:      -6.2      0.000      0.000
REMARK  Name = pdb/CHEMBL3661502.pdb
REMARK                            x       y       z     vdW  Elec       q    Type
REMARK                         _______ _______ _______ _____ _____    ______ ____
ROOT
ATOM      1  C   LIG    1      -32.977  73.611  29.010  0.00  0.00    +0.042 A 
ATOM      2  C   LIG    1      -33.999  73.544  28.052  0.00  0.00    +0.038 A 
ATOM      3  C   LIG    1      -34.599  72.311  27.756  0.00  0.00    +0.052 A 
ATOM      4  C   LIG    1      -34.163  71.199  28.472  0.00  0.00    +0.134 A 
ATOM      5  N   LIG    1      -33.210  71.240  29.435  0.00  0.00    -0.261 NA
ATOM      6  C   LIG    1      -32.652  72.444  29.688  0.00  0.00    +0.122 A 
ENDROOT
BRANCH   3   7
ATOM      7  N   LIG    1      -35.604  72.273  26.765  0.00  0.00    -0.283 N 
ATOM      8  H   LIG    1      -35.274  72.264  25.802  0.00  0.00    +0.155 HD
ATOM      9  C   LIG    1      -36.972  72.253  26.981  0.00  0.00    +0.240 C 
ATOM     10  O   LIG    1      -37.490  72.255  28.101  0.00  0.00    -0.273 OA
BRANCH   9  11
ATOM     11  C   LIG    1      -37.884  72.177  25.773  0.00  0.00    +0.262 C 
BRANCH  11  12
ATOM     12  N   LIG    1      -38.369  73.451  25.288  0.00  0.00    -0.173 N 
ATOM     13  N   LIG    1      -39.617  73.564  24.803  0.00  0.00    -0.152 NA
ATOM     14  C   LIG    1      -39.662  74.851  24.420  0.00  0.00    +0.113 A 
ATOM     15  C   LIG    1      -40.697  75.556  23.786  0.00  0.00    +0.032 A 
ATOM     16  C   LIG    1      -40.402  76.908  23.530  0.00  0.00    +0.002 A 
ATOM     17  C   LIG    1      -39.167  77.520  23.884  0.00  0.00    +0.002 A 
ATOM     18  C   LIG    1      -38.120  76.834  24.529  0.00  0.00    +0.032 A 
ATOM     19  C   LIG    1      -38.390  75.481  24.789  0.00  0.00    +0.113 A 
ATOM     20  N   LIG    1      -37.617  74.557  25.380  0.00  0.00    -0.152 NA
ENDBRANCH  11  12
ENDBRANCH   9  11
ENDBRANCH   3   7
BRANCH   1  21
ATOM     21  C   LIG    1      -32.305  74.899  29.327  0.00  0.00    +0.197 C 
ATOM     22  O   LIG    1      -31.125  74.870  29.680  0.00  0.00    -0.287 OA
BRANCH  21  30
ATOM     23  N   LIG    1      -34.462  77.863  29.570  0.00  0.00    -0.329 N 
ATOM     24  C   LIG    1      -33.803  78.162  28.404  0.00  0.00    +0.145 A 
ATOM     25  N   LIG    1      -33.981  79.266  27.657  0.00  0.00    -0.218 NA
ATOM     26  C   LIG    1      -33.179  79.282  26.580  0.00  0.00    +0.223 A 
ATOM     27  N   LIG    1      -32.299  78.342  26.190  0.00  0.00    -0.243 NA
ATOM     28  C   LIG    1      -32.163  77.244  26.969  0.00  0.00    +0.124 A 
ATOM     29  C   LIG    1      -32.914  77.124  28.139  0.00  0.00    +0.048 A 
ATOM     30  C   LIG    1      -33.034  76.162  29.192  0.00  0.00    +0.051 A 
ATOM     31  C   LIG    1      -33.943  76.698  30.093  0.00  0.00    +0.100 A 
BRANCH  23  33
ATOM     32  C   LIG    1      -36.473  77.786  31.023  0.00  0.00    +0.030 C 
ATOM     33  C   LIG    1      -35.502  78.654  30.227  0.00  0.00    +0.083 C 
ATOM     34  C   LIG    1      -34.949  79.808  31.068  0.00  0.00    +0.030 C 
ENDBRANCH  23  33
ENDBRANCH  21  30
ENDBRANCH   1  21
TORSDOF 6
ENDMDL
MODEL 2
REMARK VINA RESULT:      -6.0     17.067     20.432
REMARK  Name = pdb/CHEMBL3661502.pdb
REMARK                            x       y       z     vdW  Elec       q    Type
REMARK                         _______ _______ _______ _____ _____    ______ ____
ROOT
ATOM      1  C   LIG    1      -22.512  82.246  14.708  0.00  0.00    +0.042 A 
ATOM      2  C   LIG    1      -22.481  80.894  14.338  0.00  0.00    +0.038 A 
ATOM      3  C   LIG    1      -22.370  79.901  15.324  0.00  0.00    +0.052 A 
ATOM      4  C   LIG    1      -22.332  80.320  16.652  0.00  0.00    +0.134 A 
ATOM      5  N   LIG    1      -22.407  81.616  17.043  0.00  0.00    -0.261 NA
ATOM      6  C   LIG    1      -22.507  82.542  16.065  0.00  0.00    +0.122 A 
ENDROOT
BRANCH   3   7
ATOM      7  N   LIG    1      -22.310  78.551  14.915  0.00  0.00    -0.283 N 
ATOM      8  H   LIG    1      -21.455  78.272  14.438  0.00  0.00    +0.155 HD
ATOM      9  C   LIG    1      -23.294  77.593  15.097  0.00  0.00    +0.240 C 
ATOM     10  O   LIG    1      -24.367  77.810  15.666  0.00  0.00    -0.273 OA
BRANCH   9  11
ATOM     11  C   LIG    1      -23.015  76.185  14.611  0.00  0.00    +0.262 C 
BRANCH  11  12
ATOM     12  N   LIG    1      -22.519  75.273  15.619  0.00  0.00    -0.173 N 
ATOM     13  N   LIG    1      -23.369  74.666  16.466  0.00  0.00    -0.152 NA
ATOM     14  C   LIG    1      -22.538  73.964  17.254  0.00  0.00    +0.113 A 
ATOM     15  C   LIG    1      -22.833  73.163  18.368  0.00  0.00    +0.032 A 
ATOM     16  C   LIG    1      -21.706  72.564  18.963  0.00  0.00    +0.002 A 
ATOM     17  C   LIG    1      -20.379  72.744  18.481  0.00  0.00    +0.002 A 
ATOM     18  C   LIG    1      -20.063  73.535  17.360  0.00  0.00    +0.032 A 
ATOM     19  C   LIG    1      -21.171  74.147  16.754  0.00  0.00    +0.113 A 
ATOM     20  N   LIG    1      -21.219  74.954  15.682  0.00  0.00    -0.152 NA
ENDBRANCH  11  12
ENDBRANCH   9  11
ENDBRANCH   3   7
BRANCH   1  21
ATOM     21  C   LIG    1      -22.605  83.321  13.685  0.00  0.00    +0.197 C 
ATOM     22  O   LIG    1      -23.601  83.353  12.961  0.00  0.00    -0.287 OA
BRANCH  21  30
ATOM     23  N   LIG    1      -19.529  85.285  13.261  0.00  0.00    -0.329 N 
ATOM     24  C   LIG    1      -20.395  86.296  13.598  0.00  0.00    +0.145 A 
ATOM     25  N   LIG    1      -20.083  87.600  13.703  0.00  0.00    -0.218 NA
ATOM     26  C   LIG    1      -21.148  88.349  14.035  0.00  0.00    +0.223 A 
ATOM     27  N   LIG    1      -22.403  87.935  14.289  0.00  0.00    -0.243 NA
ATOM     28  C   LIG    1      -22.665  86.612  14.180  0.00  0.00    +0.124 A 
ATOM     29  C   LIG    1      -21.650  85.731  13.805  0.00  0.00    +0.048 A 
ATOM     30  C   LIG    1      -21.542  84.323  13.572  0.00  0.00    +0.051 A 
ATOM     31  C   LIG    1      -20.234  84.105  13.163  0.00  0.00    +0.100 A 
BRANCH  23  33
ATOM     32  C   LIG    1      -17.324  84.155  13.382  0.00  0.00    +0.030 C 
ATOM     33  C   LIG    1      -18.101  85.403  12.972  0.00  0.00    +0.083 C 
ATOM     34  C   LIG    1      -17.803  85.811  11.527  0.00  0.00    +0.030 C 
ENDBRANCH  23  33
ENDBRANCH  21  30
ENDBRANCH   1  21
TORSDOF 6
ENDMDL
MODEL 3
REMARK VINA RESULT:      -6.0      3.178      9.234
REMARK  Name = pdb/CHEMBL3661502.pdb
REMARK                            x       y       z     vdW  Elec       q    Type
REMARK                         _______ _______ _______ _____ _____    ______ ____
ROOT
ATOM      1  C   LIG    1      -39.373  72.576  24.624  0.00  0.00    +0.042 A 
ATOM      2  C   LIG    1      -38.283  73.272  25.166  0.00  0.00    +0.038 A 
ATOM      3  C   LIG    1      -38.218  74.668  25.051  0.00  0.00    +0.052 A 
ATOM      4  C   LIG    1      -39.283  75.309  24.422  0.00  0.00    +0.134 A 
ATOM      5  N   LIG    1      -40.372  74.668  23.930  0.00  0.00    -0.261 NA
ATOM      6  C   LIG    1      -40.395  73.323  24.054  0.00  0.00    +0.122 A 
ENDROOT
BRANCH   3   7
ATOM      7  N   LIG    1      -37.092  75.336  25.580  0.00  0.00    -0.283 N 
ATOM      8  H   LIG    1      -36.277  75.375  24.971  0.00  0.00    +0.155 HD
ATOM      9  C   LIG    1      -36.997  75.924  26.830  0.00  0.00    +0.240 C 
ATOM     10  O   LIG    1      -37.919  75.945  27.650  0.00  0.00    -0.273 OA
BRANCH   9  11
ATOM     11  C   LIG    1      -35.703  76.623  27.193  0.00  0.00    +0.262 C 
BRANCH  11  12
ATOM     12  N   LIG    1      -34.711  75.788  27.834  0.00  0.00    -0.173 N 
ATOM     13  N   LIG    1      -33.647  76.339  28.443  0.00  0.00    -0.152 NA
ATOM     14  C   LIG    1      -32.960  75.260  28.855  0.00  0.00    +0.113 A 
ATOM     15  C   LIG    1      -31.722  75.191  29.512  0.00  0.00    +0.032 A 
ATOM     16  C   LIG    1      -31.295  73.881  29.802  0.00  0.00    +0.002 A 
ATOM     17  C   LIG    1      -32.048  72.721  29.468  0.00  0.00    +0.002 A 
ATOM     18  C   LIG    1      -33.296  72.768  28.818  0.00  0.00    +0.032 A 
ATOM     19  C   LIG    1      -33.740  74.065  28.513  0.00  0.00    +0.113 A 
ATOM     20  N   LIG    1      -34.869  74.458  27.904  0.00  0.00    -0.152 NA
ENDBRANCH  11  12
ENDBRANCH   9  11
ENDBRANCH   3   7
BRANCH   1  21
ATOM     21  C   LIG    1      -39.457  71.094  24.708  0.00  0.00    +0.197 C 
ATOM     22  O   LIG    1      -40.451  70.594  25.237  0.00  0.00    -0.287 OA
BRANCH  21  30
ATOM     23  N   LIG    1      -37.216  68.924  22.766  0.00  0.00    -0.329 N 
ATOM     24  C   LIG    1      -36.439  69.104  23.884  0.00  0.00    +0.145 A 
ATOM     25  N   LIG    1      -35.216  68.584  24.087  0.00  0.00    -0.218 NA
ATOM     26  C   LIG    1      -34.701  68.950  25.272  0.00  0.00    +0.223 A 
ATOM     27  N   LIG    1      -35.275  69.711  26.223  0.00  0.00    -0.243 NA
ATOM     28  C   LIG    1      -36.511  70.203  25.977  0.00  0.00    +0.124 A 
ATOM     29  C   LIG    1      -37.141  69.924  24.763  0.00  0.00    +0.048 A 
ATOM     30  C   LIG    1      -38.388  70.263  24.148  0.00  0.00    +0.051 A 
ATOM     31  C   LIG    1      -38.357  69.688  22.885  0.00  0.00    +0.100 A 
BRANCH  23  33
ATOM     32  C   LIG    1      -37.272  66.654  21.767  0.00  0.00    +0.030 C 
ATOM     33  C   LIG    1      -36.897  68.122  21.586  0.00  0.00    +0.083 C 
ATOM     34  C   LIG    1      -37.463  68.699  20.286  0.00  0.00    +0.030 C 
ENDBRANCH  23  33
ENDBRANCH  21  30
ENDBRANCH   1  21
TORSDOF 6
ENDMDL
MODEL 4
REMARK VINA RESULT:      -5.9     11.553     15.857
REMARK  Name = pdb/CHEMBL3661502.pdb
REMARK                            x       y       z     vdW  Elec       q    Type
REMARK                         _______ _______ _______ _____ _____    ______ ____
ROOT
ATOM      1  C   LIG    1      -20.634  76.941  30.603  0.00  0.00    +0.042 A 
ATOM      2  C   LIG    1      -20.835  77.838  31.662  0.00  0.00    +0.038 A 
ATOM      3  C   LIG    1      -19.735  78.332  32.378  0.00  0.00    +0.052 A 
ATOM      4  C   LIG    1      -18.468  77.925  31.965  0.00  0.00    +0.134 A 
ATOM      5  N   LIG    1      -18.239  77.097  30.917  0.00  0.00    -0.261 NA
ATOM      6  C   LIG    1      -19.324  76.637  30.257  0.00  0.00    +0.122 A 
ENDROOT
BRANCH   3   7
ATOM      7  N   LIG    1      -19.974  79.209  33.458  0.00  0.00    -0.283 N 
ATOM      8  H   LIG    1      -20.241  80.159  33.204  0.00  0.00    +0.155 HD
ATOM      9  C   LIG    1      -19.873  78.902  34.805  0.00  0.00    +0.240 C 
ATOM     10  O   LIG    1      -19.564  77.787  35.233  0.00  0.00    -0.273 OA
BRANCH   9  11
ATOM     11  C   LIG    1      -20.207  79.985  35.810  0.00  0.00    +0.262 C 
BRANCH  11  12
ATOM     12  N   LIG    1      -21.607  80.088  36.161  0.00  0.00    -0.173 N 
ATOM     13  N   LIG    1      -21.979  80.661  37.319  0.00  0.00    -0.152 NA
ATOM     14  C   LIG    1      -23.314  80.518  37.295  0.00  0.00    +0.113 A 
ATOM     15  C   LIG    1      -24.265  80.875  38.265  0.00  0.00    +0.032 A 
ATOM     16  C   LIG    1      -25.594  80.581  37.905  0.00  0.00    +0.002 A 
ATOM     17  C   LIG    1      -25.954  79.979  36.667  0.00  0.00    +0.002 A 
ATOM     18  C   LIG    1      -25.018  79.623  35.677  0.00  0.00    +0.032 A 
ATOM     19  C   LIG    1      -23.685  79.902  36.017  0.00  0.00    +0.113 A 
ATOM     20  N   LIG    1      -22.563  79.689  35.311  0.00  0.00    -0.152 NA
ENDBRANCH  11  12
ENDBRANCH   9  11
ENDBRANCH   3   7
BRANCH   1  21
ATOM     21  C   LIG    1      -21.782  76.380  29.842  0.00  0.00    +0.197 C 
ATOM     22  O   LIG    1      -21.747  76.430  28.612  0.00  0.00    -0.287 OA
BRANCH  21  30
ATOM     23  N   LIG    1      -24.186  74.270  31.649  0.00  0.00    -0.329 N 
ATOM     24  C   LIG    1      -24.947  75.403  31.508  0.00  0.00    +0.145 A 
ATOM     25  N   LIG    1      -26.204  75.572  31.955  0.00  0.00    -0.218 NA
ATOM     26  C   LIG    1      -26.679  76.797  31.678  0.00  0.00    +0.223 A 
ATOM     27  N   LIG    1      -26.066  77.790  31.007  0.00  0.00    -0.243 NA
ATOM     28  C   LIG    1      -24.805  77.569  30.568  0.00  0.00    +0.124 A 
ATOM     29  C   LIG    1      -24.183  76.347  30.825  0.00  0.00    +0.048 A 
ATOM     30  C   LIG    1      -22.905  75.764  30.552  0.00  0.00    +0.051 A 
ATOM     31  C   LIG    1      -22.925  74.510  31.148  0.00  0.00    +0.100 A 
BRANCH  23  33
ATOM     32  C   LIG    1      -25.286  72.072  31.314  0.00  0.00    +0.030 C 
ATOM     33  C   LIG    1      -24.580  73.014  32.285  0.00  0.00    +0.083 C 
ATOM     34  C   LIG    1      -23.433  72.317  33.021  0.00  0.00    +0.030 C 
ENDBRANCH  23  33
ENDBRANCH  21  30
ENDBRANCH   1  21
TORSDOF 6
ENDMDL
MODEL 5
REMARK VINA RESULT:      -5.9      7.716      9.757
REMARK  Name = pdb/CHEMBL3661502.pdb
REMARK                            x       y       z     vdW  Elec       q    Type
REMARK                         _______ _______ _______ _____ _____    ______ ____
ROOT
ATOM      1  C   LIG    1      -26.281  75.881  32.047  0.00  0.00    +0.042 A 
ATOM      2  C   LIG    1      -27.635  75.609  31.804  0.00  0.00    +0.038 A 
ATOM      3  C   LIG    1      -28.201  74.411  32.264  0.00  0.00    +0.052 A 
ATOM      4  C   LIG    1      -27.377  73.550  32.985  0.00  0.00    +0.134 A 
ATOM      5  N   LIG    1      -26.078  73.805  33.275  0.00  0.00    -0.261 NA
ATOM      6  C   LIG    1      -25.567  74.966  32.810  0.00  0.00    +0.122 A 
ENDROOT
BRANCH   3   7
ATOM      7  N   LIG    1      -29.559  74.154  31.976  0.00  0.00    -0.283 N 
ATOM      8  H   LIG    1      -30.227  74.808  32.382  0.00  0.00    +0.155 HD
ATOM      9  C   LIG    1      -30.056  73.111  31.212  0.00  0.00    +0.240 C 
ATOM     10  O   LIG    1      -29.346  72.263  30.666  0.00  0.00    -0.273 OA
BRANCH   9  11
ATOM     11  C   LIG    1      -31.553  73.035  30.997  0.00  0.00    +0.262 C 
BRANCH  11  12
ATOM     12  N   LIG    1      -32.092  74.010  30.073  0.00  0.00    -0.173 N 
ATOM     13  N   LIG    1      -31.426  75.150  29.821  0.00  0.00    -0.152 NA
ATOM     14  C   LIG    1      -32.256  75.788  28.979  0.00  0.00    +0.113 A 
ATOM     15  C   LIG    1      -32.133  77.062  28.403  0.00  0.00    +0.032 A 
ATOM     16  C   LIG    1      -33.199  77.417  27.555  0.00  0.00    +0.002 A 
ATOM     17  C   LIG    1      -34.308  76.564  27.293  0.00  0.00    +0.002 A 
ATOM     18  C   LIG    1      -34.446  75.280  27.852  0.00  0.00    +0.032 A 
ATOM     19  C   LIG    1      -33.397  74.906  28.707  0.00  0.00    +0.113 A 
ATOM     20  N   LIG    1      -33.221  73.766  29.394  0.00  0.00    -0.152 NA
ENDBRANCH  11  12
ENDBRANCH   9  11
ENDBRANCH   3   7
BRANCH   1  21
ATOM     21  C   LIG    1      -25.647  77.131  31.551  0.00  0.00    +0.197 C 
ATOM     22  O   LIG    1      -26.353  77.949  30.959  0.00  0.00    -0.287 OA
BRANCH  21  30
ATOM     23  N   LIG    1      -22.294  78.014  32.766  0.00  0.00    -0.329 N 
ATOM     24  C   LIG    1      -21.962  77.535  31.523  0.00  0.00    +0.145 A 
ATOM     25  N   LIG    1      -20.719  77.457  31.013  0.00  0.00    -0.218 NA
ATOM     26  C   LIG    1      -20.713  76.930  29.777  0.00  0.00    +0.223 A 
ATOM     27  N   LIG    1      -21.768  76.533  29.042  0.00  0.00    -0.243 NA
ATOM     28  C   LIG    1      -22.998  76.641  29.595  0.00  0.00    +0.124 A 
ATOM     29  C   LIG    1      -23.137  77.140  30.890  0.00  0.00    +0.048 A 
ATOM     30  C   LIG    1      -24.223  77.380  31.791  0.00  0.00    +0.051 A 
ATOM     31  C   LIG    1      -23.647  77.846  32.965  0.00  0.00    +0.100 A 
BRANCH  23  33
ATOM     32  C   LIG    1      -22.053  79.627  34.636  0.00  0.00    +0.030 C 
ATOM     33  C   LIG    1      -21.387  78.557  33.776  0.00  0.00    +0.083 C 
ATOM     34  C   LIG    1      -20.712  77.480  34.630  0.00  0.00    +0.030 C 
ENDBRANCH  23  33
ENDBRANCH  21  30
ENDBRANCH   1  21
TORSDOF 6
ENDMDL
MODEL 6
REMARK VINA RESULT:      -5.9      9.796     13.025
REMARK  Name = pdb/CHEMBL3661502.pdb
REMARK                            x       y       z     vdW  Elec       q    Type
REMARK                         _______ _______ _______ _____ _____    ______ ____
ROOT
ATOM      1  C   LIG    1      -34.340  66.532  19.993  0.00  0.00    +0.042 A 
ATOM      2  C   LIG    1      -32.967  66.541  20.278  0.00  0.00    +0.038 A 
ATOM      3  C   LIG    1      -32.052  66.940  19.293  0.00  0.00    +0.052 A 
ATOM      4  C   LIG    1      -32.569  67.350  18.066  0.00  0.00    +0.134 A 
ATOM      5  N   LIG    1      -33.893  67.396  17.777  0.00  0.00    -0.261 NA
ATOM      6  C   LIG    1      -34.743  66.998  18.748  0.00  0.00    +0.122 A 
ENDROOT
BRANCH   3   7
ATOM      7  N   LIG    1      -30.674  66.909  19.602  0.00  0.00    -0.283 N 
ATOM      8  H   LIG    1      -30.311  67.733  20.077  0.00  0.00    +0.155 HD
ATOM      9  C   LIG    1      -29.790  65.882  19.316  0.00  0.00    +0.240 C 
ATOM     10  O   LIG    1      -30.115  64.835  18.750  0.00  0.00    -0.273 OA
BRANCH   9  11
ATOM     11  C   LIG    1      -28.351  66.034  19.767  0.00  0.00    +0.262 C 
BRANCH  11  12
ATOM     12  N   LIG    1      -27.615  67.101  19.125  0.00  0.00    -0.173 N 
ATOM     13  N   LIG    1      -27.818  68.380  19.484  0.00  0.00    -0.152 NA
ATOM     14  C   LIG    1      -27.008  69.047  18.646  0.00  0.00    +0.113 A 
ATOM     15  C   LIG    1      -26.822  70.431  18.500  0.00  0.00    +0.032 A 
ATOM     16  C   LIG    1      -25.881  70.786  17.515  0.00  0.00    +0.002 A 
ATOM     17  C   LIG    1      -25.170  69.833  16.732  0.00  0.00    +0.002 A 
ATOM     18  C   LIG    1      -25.335  68.442  16.869  0.00  0.00    +0.032 A 
ATOM     19  C   LIG    1      -26.273  68.064  17.842  0.00  0.00    +0.113 A 
ATOM     20  N   LIG    1      -26.664  66.836  18.219  0.00  0.00    -0.152 NA
ENDBRANCH  11  12
ENDBRANCH   9  11
ENDBRANCH   3   7
BRANCH   1  21
ATOM     21  C   LIG    1      -35.333  66.090  21.008  0.00  0.00    +0.197 C 
ATOM     22  O   LIG    1      -35.884  65.000  20.850  0.00  0.00    -0.287 OA
BRANCH  21  30
ATOM     23  N   LIG    1      -35.493  67.871  24.218  0.00  0.00    -0.329 N 
ATOM     24  C   LIG    1      -36.589  68.422  23.602  0.00  0.00    +0.145 A 
ATOM     25  N   LIG    1      -37.407  69.351  24.129  0.00  0.00    -0.218 NA
ATOM     26  C   LIG    1      -38.383  69.705  23.277  0.00  0.00    +0.223 A 
ATOM     27  N   LIG    1      -38.621  69.223  22.043  0.00  0.00    -0.243 NA
ATOM     28  C   LIG    1      -37.775  68.283  21.561  0.00  0.00    +0.124 A 
ATOM     29  C   LIG    1      -36.696  67.855  22.335  0.00  0.00    +0.048 A 
ATOM     30  C   LIG    1      -35.616  66.930  22.174  0.00  0.00    +0.051 A 
ATOM     31  C   LIG    1      -34.855  67.032  23.331  0.00  0.00    +0.100 A 
BRANCH  23  33
ATOM     32  C   LIG    1      -34.298  66.947  26.186  0.00  0.00    +0.030 C 
ATOM     33  C   LIG    1      -35.002  68.150  25.566  0.00  0.00    +0.083 C 
ATOM     34  C   LIG    1      -34.147  69.417  25.653  0.00  0.00    +0.030 C 
ENDBRANCH  23  33
ENDBRANCH  21  30
ENDBRANCH   1  21
TORSDOF 6
ENDMDL
MODEL 7
REMARK VINA RESULT:      -5.8      3.052      5.499
REMARK  Name = pdb/CHEMBL3661502.pdb
REMARK                            x       y       z     vdW  Elec       q    Type
REMARK                         _______ _______ _______ _____ _____    ______ ____
ROOT
ATOM      1  C   LIG    1      -37.116  79.393  29.748  0.00  0.00    +0.042 A 
ATOM      2  C   LIG    1      -37.492  79.085  28.433  0.00  0.00    +0.038 A 
ATOM      3  C   LIG    1      -38.837  79.195  28.047  0.00  0.00    +0.052 A 
ATOM      4  C   LIG    1      -39.742  79.650  29.003  0.00  0.00    +0.134 A 
ATOM      5  N   LIG    1      -39.401  80.000  30.268  0.00  0.00    -0.261 NA
ATOM      6  C   LIG    1      -38.098  79.874  30.604  0.00  0.00    +0.122 A 
ENDROOT
BRANCH   3   7
ATOM      7  N   LIG    1      -39.187  78.848  26.724  0.00  0.00    -0.283 N 
ATOM      8  H   LIG    1      -39.369  77.859  26.561  0.00  0.00    +0.155 HD
ATOM      9  C   LIG    1      -39.298  79.714  25.649  0.00  0.00    +0.240 C 
ATOM     10  O   LIG    1      -39.109  80.930  25.725  0.00  0.00    -0.273 OA
BRANCH   9  11
ATOM     11  C   LIG    1      -39.722  79.139  24.312  0.00  0.00    +0.262 C 
BRANCH  11  12
ATOM     12  N   LIG    1      -39.761  77.695  24.248  0.00  0.00    -0.173 N 
ATOM     13  N   LIG    1      -40.845  77.063  23.765  0.00  0.00    -0.152 NA
ATOM     14  C   LIG    1      -40.517  75.770  23.917  0.00  0.00    +0.113 A 
ATOM     15  C   LIG    1      -41.274  74.621  23.640  0.00  0.00    +0.032 A 
ATOM     16  C   LIG    1      -40.611  73.411  23.920  0.00  0.00    +0.002 A 
ATOM     17  C   LIG    1      -39.285  73.347  24.434  0.00  0.00    +0.002 A 
ATOM     18  C   LIG    1      -38.505  74.486  24.709  0.00  0.00    +0.032 A 
ATOM     19  C   LIG    1      -39.149  75.705  24.443  0.00  0.00    +0.113 A 
ATOM     20  N   LIG    1      -38.696  76.959  24.594  0.00  0.00    -0.152 NA
ENDBRANCH  11  12
ENDBRANCH   9  11
ENDBRANCH   3   7
BRANCH   1  21
ATOM     21  C   LIG    1      -35.703  79.262  30.194  0.00  0.00    +0.197 C 
ATOM     22  O   LIG    1      -35.321  79.960  31.134  0.00  0.00    -0.287 OA
BRANCH  21  30
ATOM     23  N   LIG    1      -33.663  76.426  29.058  0.00  0.00    -0.329 N 
ATOM     24  C   LIG    1      -33.287  77.359  28.124  0.00  0.00    +0.145 A 
ATOM     25  N   LIG    1      -32.413  77.164  27.121  0.00  0.00    -0.218 NA
ATOM     26  C   LIG    1      -32.261  78.262  26.363  0.00  0.00    +0.223 A 
ATOM     27  N   LIG    1      -32.838  79.467  26.527  0.00  0.00    -0.243 NA
ATOM     28  C   LIG    1      -33.703  79.617  27.557  0.00  0.00    +0.124 A 
ATOM     29  C   LIG    1      -33.975  78.537  28.398  0.00  0.00    +0.048 A 
ATOM     30  C   LIG    1      -34.810  78.304  29.537  0.00  0.00    +0.051 A 
ATOM     31  C   LIG    1      -34.644  76.965  29.862  0.00  0.00    +0.100 A 
BRANCH  23  33
ATOM     32  C   LIG    1      -33.225  74.545  30.615  0.00  0.00    +0.030 C 
ATOM     33  C   LIG    1      -33.184  75.049  29.176  0.00  0.00    +0.083 C 
ATOM     34  C   LIG    1      -33.874  74.079  28.213  0.00  0.00    +0.030 C 
ENDBRANCH  23  33
ENDBRANCH  21  30
ENDBRANCH   1  21
TORSDOF 6
ENDMDL
MODEL 8
REMARK VINA RESULT:      -5.8     10.806     13.923
REMARK  Name = pdb/CHEMBL3661502.pdb
REMARK                            x       y       z     vdW  Elec       q    Type
REMARK                         _______ _______ _______ _____ _____    ______ ____
ROOT
ATOM      1  C   LIG    1      -25.503  75.491  31.482  0.00  0.00    +0.042 A 
ATOM      2  C   LIG    1      -25.101  74.173  31.223  0.00  0.00    +0.038 A 
ATOM      3  C   LIG    1      -25.785  73.104  31.821  0.00  0.00    +0.052 A 
ATOM      4  C   LIG    1      -26.876  73.415  32.630  0.00  0.00    +0.134 A 
ATOM      5  N   LIG    1      -27.317  74.676  32.861  0.00  0.00    -0.261 NA
ATOM      6  C   LIG    1      -26.628  75.678  32.273  0.00  0.00    +0.122 A 
ENDROOT
BRANCH   3   7
ATOM      7  N   LIG    1      -25.336  71.790  31.565  0.00  0.00    -0.283 N 
ATOM      8  H   LIG    1      -24.445  71.538  31.987  0.00  0.00    +0.155 HD
ATOM      9  C   LIG    1      -25.984  70.834  30.800  0.00  0.00    +0.240 C 
ATOM     10  O   LIG    1      -27.070  71.020  30.245  0.00  0.00    -0.273 OA
BRANCH   9  11
ATOM     11  C   LIG    1      -25.345  69.466  30.677  0.00  0.00    +0.262 C 
BRANCH  11  12
ATOM     12  N   LIG    1      -23.967  69.468  30.236  0.00  0.00    -0.173 N 
ATOM     13  N   LIG    1      -23.667  69.277  28.939  0.00  0.00    -0.152 NA
ATOM     14  C   LIG    1      -22.324  69.298  28.948  0.00  0.00    +0.113 A 
ATOM     15  C   LIG    1      -21.424  69.098  27.890  0.00  0.00    +0.032 A 
ATOM     16  C   LIG    1      -20.069  69.194  28.259  0.00  0.00    +0.002 A 
ATOM     17  C   LIG    1      -19.638  69.475  29.586  0.00  0.00    +0.002 A 
ATOM     18  C   LIG    1      -20.524  69.688  30.659  0.00  0.00    +0.032 A 
ATOM     19  C   LIG    1      -21.881  69.591  30.316  0.00  0.00    +0.113 A 
ATOM     20  N   LIG    1      -22.969  69.736  31.089  0.00  0.00    -0.152 NA
ENDBRANCH  11  12
ENDBRANCH   9  11
ENDBRANCH   3   7
BRANCH   1  21
ATOM     21  C   LIG    1      -24.782  76.646  30.883  0.00  0.00    +0.197 C 
ATOM     22  O   LIG    1      -25.261  77.176  29.880  0.00  0.00    -0.287 OA
BRANCH  21  30
ATOM     23  N   LIG    1      -22.110  78.097  32.944  0.00  0.00    -0.329 N 
ATOM     24  C   LIG    1      -21.367  77.708  31.857  0.00  0.00    +0.145 A 
ATOM     25  N   LIG    1      -20.038  77.864  31.712  0.00  0.00    -0.218 NA
ATOM     26  C   LIG    1      -19.597  77.368  30.545  0.00  0.00    +0.223 A 
ATOM     27  N   LIG    1      -20.318  76.800  29.561  0.00  0.00    -0.243 NA
ATOM     28  C   LIG    1      -21.652  76.675  29.749  0.00  0.00    +0.124 A 
ATOM     29  C   LIG    1      -22.231  77.118  30.939  0.00  0.00    +0.048 A 
ATOM     30  C   LIG    1      -23.549  77.143  31.497  0.00  0.00    +0.051 A 
ATOM     31  C   LIG    1      -23.412  77.684  32.768  0.00  0.00    +0.100 A 
BRANCH  23  33
ATOM     32  C   LIG    1      -22.644  79.780  34.687  0.00  0.00    +0.030 C 
ATOM     33  C   LIG    1      -21.629  78.777  34.146  0.00  0.00    +0.083 C 
ATOM     34  C   LIG    1      -21.143  77.817  35.235  0.00  0.00    +0.030 C 
ENDBRANCH  23  33
ENDBRANCH  21  30
ENDBRANCH   1  21
TORSDOF 6
ENDMDL
MODEL 9
REMARK VINA RESULT:      -5.7      3.507      6.275
REMARK  Name = pdb/CHEMBL3661502.pdb
REMARK                            x       y       z     vdW  Elec       q    Type
REMARK                         _______ _______ _______ _____ _____    ______ ____
ROOT
ATOM      1  C   LIG    1      -35.906  82.014  28.623  0.00  0.00    +0.042 A 
ATOM      2  C   LIG    1      -36.725  81.297  27.739  0.00  0.00    +0.038 A 
ATOM      3  C   LIG    1      -37.726  81.963  27.017  0.00  0.00    +0.052 A 
ATOM      4  C   LIG    1      -37.832  83.341  27.192  0.00  0.00    +0.134 A 
ATOM      5  N   LIG    1      -37.026  84.069  28.002  0.00  0.00    -0.261 NA
ATOM      6  C   LIG    1      -36.078  83.391  28.687  0.00  0.00    +0.122 A 
ENDROOT
BRANCH   3   7
ATOM      7  N   LIG    1      -38.553  81.206  26.158  0.00  0.00    -0.283 N 
ATOM      8  H   LIG    1      -38.264  81.174  25.183  0.00  0.00    +0.155 HD
ATOM      9  C   LIG    1      -39.703  80.522  26.517  0.00  0.00    +0.240 C 
ATOM     10  O   LIG    1      -40.148  80.483  27.666  0.00  0.00    -0.273 OA
BRANCH   9  11
ATOM     11  C   LIG    1      -40.430  79.739  25.443  0.00  0.00    +0.262 C 
BRANCH  11  12
ATOM     12  N   LIG    1      -39.952  78.389  25.235  0.00  0.00    -0.173 N 
ATOM     13  N   LIG    1      -40.743  77.467  24.659  0.00  0.00    -0.152 NA
ATOM     14  C   LIG    1      -39.974  76.367  24.694  0.00  0.00    +0.113 A 
ATOM     15  C   LIG    1      -40.273  75.058  24.282  0.00  0.00    +0.032 A 
ATOM     16  C   LIG    1      -39.220  74.142  24.461  0.00  0.00    +0.002 A 
ATOM     17  C   LIG    1      -37.955  74.500  25.006  0.00  0.00    +0.002 A 
ATOM     18  C   LIG    1      -37.631  75.808  25.416  0.00  0.00    +0.032 A 
ATOM     19  C   LIG    1      -38.669  76.739  25.252  0.00  0.00    +0.113 A 
ATOM     20  N   LIG    1      -38.692  78.049  25.539  0.00  0.00    -0.152 NA
ENDBRANCH  11  12
ENDBRANCH   9  11
ENDBRANCH   3   7
BRANCH   1  21
ATOM     21  C   LIG    1      -34.854  81.332  29.422  0.00  0.00    +0.197 C 
ATOM     22  O   LIG    1      -34.220  81.997  30.241  0.00  0.00    -0.287 OA
BRANCH  21  30
ATOM     23  N   LIG    1      -34.612  77.668  29.563  0.00  0.00    -0.329 N 
ATOM     24  C   LIG    1      -33.848  77.899  28.446  0.00  0.00    +0.145 A 
ATOM     25  N   LIG    1      -33.241  76.962  27.697  0.00  0.00    -0.218 NA
ATOM     26  C   LIG    1      -32.577  77.496  26.659  0.00  0.00    +0.223 A 
ATOM     27  N   LIG    1      -32.445  78.798  26.344  0.00  0.00    -0.243 NA
ATOM     28  C   LIG    1      -33.066  79.704  27.134  0.00  0.00    +0.124 A 
ATOM     29  C   LIG    1      -33.820  79.273  28.226  0.00  0.00    +0.048 A 
ATOM     30  C   LIG    1      -34.609  79.898  29.244  0.00  0.00    +0.051 A 
ATOM     31  C   LIG    1      -35.142  78.863  29.999  0.00  0.00    +0.100 A 
BRANCH  23  33
ATOM     32  C   LIG    1      -33.849  75.976  31.209  0.00  0.00    +0.030 C 
ATOM     33  C   LIG    1      -34.905  76.377  30.183  0.00  0.00    +0.083 C 
ATOM     34  C   LIG    1      -36.321  76.284  30.757  0.00  0.00    +0.030 C 
ENDBRANCH  23  33
ENDBRANCH  21  30
ENDBRANCH   1  21
TORSDOF 6
ENDMDL
