MODEL 1
REMARK VINA RESULT:      -6.9      0.000      0.000
REMARK  Name = pdb/CHEMBL2113064.pdb
REMARK                            x       y       z     vdW  Elec       q    Type
REMARK                         _______ _______ _______ _____ _____    ______ ____
ROOT
ATOM      1  C   LIG    1      -25.488  74.702  32.301  0.00  0.00    +0.144 C 
ATOM      2  C   LIG    1      -26.300  76.073  32.166  0.00  0.00    +0.178 C 
ATOM      3  N   LIG    1      -25.958  77.074  33.164  0.00  0.00    -0.307 N 
ATOM      4  C   LIG    1      -24.746  77.688  33.327  0.00  0.00    +0.077 A 
ATOM      5  C   LIG    1      -23.636  77.563  32.492  0.00  0.00    +0.077 A 
ATOM      6  N   LIG    1      -23.587  76.873  31.324  0.00  0.00    -0.311 N 
ATOM      7  C   LIG    1      -22.237  77.041  30.964  0.00  0.00    +0.052 A 
ATOM      8  C   LIG    1      -21.565  76.537  29.833  0.00  0.00    +0.026 A 
ATOM      9  C   LIG    1      -20.206  76.810  29.664  0.00  0.00    +0.002 A 
ATOM     10  C   LIG    1      -19.514  77.570  30.594  0.00  0.00    +0.001 A 
ATOM     11  C   LIG    1      -20.163  78.082  31.724  0.00  0.00    +0.010 A 
ATOM     12  C   LIG    1      -21.537  77.837  31.948  0.00  0.00    +0.008 A 
ATOM     13  C   LIG    1      -24.599  76.139  30.608  0.00  0.00    +0.226 C 
ATOM     14  C   LIG    1      -22.470  78.191  32.957  0.00  0.00    +0.022 A 
ATOM     15  C   LIG    1      -22.220  78.941  34.125  0.00  0.00    +0.052 A 
ATOM     16  C   LIG    1      -21.109  79.581  34.756  0.00  0.00    +0.245 C 
ATOM     17  O   LIG    1      -19.924  79.718  34.479  0.00  0.00    -0.270 OA
ATOM     18  N   LIG    1      -21.650  80.101  35.932  0.00  0.00    -0.307 N 
ATOM     19  H   LIG    1      -21.049  80.592  36.578  0.00  0.00    +0.149 HD
ATOM     20  C   LIG    1      -23.066  79.857  36.154  0.00  0.00    +0.141 C 
ATOM     21  C   LIG    1      -23.363  79.102  34.940  0.00  0.00    -0.008 A 
ATOM     22  C   LIG    1      -24.522  78.467  34.462  0.00  0.00    +0.015 A 
ATOM     23  C   LIG    1      -25.779  78.410  35.104  0.00  0.00    +0.008 A 
ATOM     24  C   LIG    1      -26.303  78.967  36.297  0.00  0.00    +0.010 A 
ATOM     25  C   LIG    1      -27.619  78.725  36.688  0.00  0.00    +0.001 A 
ATOM     26  C   LIG    1      -28.442  77.929  35.911  0.00  0.00    +0.002 A 
ATOM     27  C   LIG    1      -27.974  77.349  34.728  0.00  0.00    +0.026 A 
ATOM     28  C   LIG    1      -26.649  77.570  34.296  0.00  0.00    +0.053 A 
ATOM     29  C   LIG    1      -27.800  75.881  31.902  0.00  0.00    +0.070 C 
ATOM     30  O   LIG    1      -25.875  76.684  30.908  0.00  0.00    -0.328 OA
ATOM     31  C   LIG    1      -24.719  74.676  30.970  0.00  0.00    +0.096 C 
ENDROOT
BRANCH   1  33
ATOM     32  C   LIG    1      -23.419  73.704  33.159  0.00  0.00    +0.195 C 
ATOM     33  O   LIG    1      -24.424  74.699  33.284  0.00  0.00    -0.369 OA
ENDBRANCH   1  33
BRANCH   1  34
ATOM     34  C   LIG    1      -26.310  73.396  32.407  0.00  0.00    +0.195 C 
BRANCH  34  35
ATOM     35  O   LIG    1      -26.389  72.693  31.172  0.00  0.00    -0.392 OA
ATOM     36  H   LIG    1      -27.287  72.321  31.109  0.00  0.00    +0.210 HD
ENDBRANCH  34  35
ENDBRANCH   1  34
TORSDOF 3
ENDMDL
MODEL 2
REMARK VINA RESULT:      -6.4      2.697      5.027
REMARK  Name = pdb/CHEMBL2113064.pdb
REMARK                            x       y       z     vdW  Elec       q    Type
REMARK                         _______ _______ _______ _____ _____    ______ ____
ROOT
ATOM      1  C   LIG    1      -24.056  77.712  35.575  0.00  0.00    +0.144 C 
ATOM      2  C   LIG    1      -23.605  79.245  35.557  0.00  0.00    +0.178 C 
ATOM      3  N   LIG    1      -22.165  79.447  35.584  0.00  0.00    -0.307 N 
ATOM      4  C   LIG    1      -21.265  79.064  34.626  0.00  0.00    +0.077 A 
ATOM      5  C   LIG    1      -21.567  78.513  33.381  0.00  0.00    +0.077 A 
ATOM      6  N   LIG    1      -22.810  78.334  32.865  0.00  0.00    -0.311 N 
ATOM      7  C   LIG    1      -22.511  77.699  31.646  0.00  0.00    +0.052 A 
ATOM      8  C   LIG    1      -23.403  77.243  30.655  0.00  0.00    +0.026 A 
ATOM      9  C   LIG    1      -22.899  76.622  29.512  0.00  0.00    +0.002 A 
ATOM     10  C   LIG    1      -21.534  76.449  29.340  0.00  0.00    +0.001 A 
ATOM     11  C   LIG    1      -20.631  76.895  30.311  0.00  0.00    +0.010 A 
ATOM     12  C   LIG    1      -21.083  77.531  31.490  0.00  0.00    +0.008 A 
ATOM     13  C   LIG    1      -24.113  78.667  33.382  0.00  0.00    +0.226 C 
ATOM     14  C   LIG    1      -20.457  78.081  32.639  0.00  0.00    +0.022 A 
ATOM     15  C   LIG    1      -19.076  78.112  32.927  0.00  0.00    +0.052 A 
ATOM     16  C   LIG    1      -17.858  77.675  32.322  0.00  0.00    +0.245 C 
ATOM     17  O   LIG    1      -17.573  77.099  31.279  0.00  0.00    -0.270 OA
ATOM     18  N   LIG    1      -16.879  78.045  33.244  0.00  0.00    -0.307 N 
ATOM     19  H   LIG    1      -15.913  77.821  33.055  0.00  0.00    +0.149 HD
ATOM     20  C   LIG    1      -17.347  78.708  34.450  0.00  0.00    +0.141 C 
ATOM     21  C   LIG    1      -18.779  78.716  34.168  0.00  0.00    -0.008 A 
ATOM     22  C   LIG    1      -19.900  79.143  34.901  0.00  0.00    +0.015 A 
ATOM     23  C   LIG    1      -19.897  79.715  36.192  0.00  0.00    +0.008 A 
ATOM     24  C   LIG    1      -18.879  80.095  37.100  0.00  0.00    +0.010 A 
ATOM     25  C   LIG    1      -19.189  80.647  38.342  0.00  0.00    +0.001 A 
ATOM     26  C   LIG    1      -20.509  80.833  38.712  0.00  0.00    +0.002 A 
ATOM     27  C   LIG    1      -21.553  80.468  37.858  0.00  0.00    +0.026 A 
ATOM     28  C   LIG    1      -21.283  79.908  36.591  0.00  0.00    +0.053 A 
ATOM     29  C   LIG    1      -24.421  80.142  36.499  0.00  0.00    +0.070 C 
ATOM     30  O   LIG    1      -24.002  79.780  34.256  0.00  0.00    -0.328 OA
ATOM     31  C   LIG    1      -24.773  77.594  34.219  0.00  0.00    +0.096 C 
ENDROOT
BRANCH   1  33
ATOM     32  C   LIG    1      -23.345  75.408  35.126  0.00  0.00    +0.195 C 
ATOM     33  O   LIG    1      -22.987  76.743  35.455  0.00  0.00    -0.369 OA
ENDBRANCH   1  33
BRANCH   1  34
ATOM     34  C   LIG    1      -25.046  77.273  36.681  0.00  0.00    +0.195 C 
BRANCH  34  35
ATOM     35  O   LIG    1      -26.388  77.184  36.215  0.00  0.00    -0.392 OA
ATOM     36  H   LIG    1      -26.361  77.250  35.243  0.00  0.00    +0.210 HD
ENDBRANCH  34  35
ENDBRANCH   1  34
TORSDOF 3
ENDMDL
MODEL 3
REMARK VINA RESULT:      -6.3     16.046     20.222
REMARK  Name = pdb/CHEMBL2113064.pdb
REMARK                            x       y       z     vdW  Elec       q    Type
REMARK                         _______ _______ _______ _____ _____    ______ ____
ROOT
ATOM      1  C   LIG    1      -39.404  76.844  26.611  0.00  0.00    +0.144 C 
ATOM      2  C   LIG    1      -38.637  76.290  25.321  0.00  0.00    +0.178 C 
ATOM      3  N   LIG    1      -39.337  75.225  24.619  0.00  0.00    -0.307 N 
ATOM      4  C   LIG    1      -40.548  75.316  23.989  0.00  0.00    +0.077 A 
ATOM      5  C   LIG    1      -41.293  76.479  23.791  0.00  0.00    +0.077 A 
ATOM      6  N   LIG    1      -40.909  77.740  24.118  0.00  0.00    -0.311 N 
ATOM      7  C   LIG    1      -42.053  78.475  23.757  0.00  0.00    +0.052 A 
ATOM      8  C   LIG    1      -42.272  79.862  23.870  0.00  0.00    +0.026 A 
ATOM      9  C   LIG    1      -43.494  80.399  23.461  0.00  0.00    +0.002 A 
ATOM     10  C   LIG    1      -44.491  79.585  22.945  0.00  0.00    +0.001 A 
ATOM     11  C   LIG    1      -44.293  78.205  22.822  0.00  0.00    +0.010 A 
ATOM     12  C   LIG    1      -43.076  77.605  23.220  0.00  0.00    +0.008 A 
ATOM     13  C   LIG    1      -39.689  78.246  24.693  0.00  0.00    +0.226 C 
ATOM     14  C   LIG    1      -42.566  76.281  23.235  0.00  0.00    +0.022 A 
ATOM     15  C   LIG    1      -43.231  75.105  22.829  0.00  0.00    +0.052 A 
ATOM     16  C   LIG    1      -44.511  74.736  22.312  0.00  0.00    +0.245 C 
ATOM     17  O   LIG    1      -45.528  75.350  22.016  0.00  0.00    -0.270 OA
ATOM     18  N   LIG    1      -44.431  73.349  22.186  0.00  0.00    -0.307 N 
ATOM     19  H   LIG    1      -45.235  72.836  21.855  0.00  0.00    +0.149 HD
ATOM     20  C   LIG    1      -43.174  72.737  22.587  0.00  0.00    +0.141 C 
ATOM     21  C   LIG    1      -42.450  73.939  22.989  0.00  0.00    -0.008 A 
ATOM     22  C   LIG    1      -41.177  74.153  23.547  0.00  0.00    +0.015 A 
ATOM     23  C   LIG    1      -40.223  73.165  23.875  0.00  0.00    +0.008 A 
ATOM     24  C   LIG    1      -40.166  71.759  23.718  0.00  0.00    +0.010 A 
ATOM     25  C   LIG    1      -39.062  71.028  24.156  0.00  0.00    +0.001 A 
ATOM     26  C   LIG    1      -37.995  71.671  24.759  0.00  0.00    +0.002 A 
ATOM     27  C   LIG    1      -38.004  73.056  24.946  0.00  0.00    +0.026 A 
ATOM     28  C   LIG    1      -39.100  73.832  24.515  0.00  0.00    +0.053 A 
ATOM     29  C   LIG    1      -37.135  76.068  25.541  0.00  0.00    +0.070 C 
ATOM     30  O   LIG    1      -38.615  77.382  24.351  0.00  0.00    -0.328 OA
ATOM     31  C   LIG    1      -39.658  78.305  26.203  0.00  0.00    +0.096 C 
ENDROOT
BRANCH   1  33
ATOM     32  C   LIG    1      -41.610  77.074  27.657  0.00  0.00    +0.195 C 
ATOM     33  O   LIG    1      -40.743  76.331  26.812  0.00  0.00    -0.369 OA
ENDBRANCH   1  33
BRANCH   1  34
ATOM     34  C   LIG    1      -38.631  76.847  27.951  0.00  0.00    +0.195 C 
BRANCH  34  35
ATOM     35  O   LIG    1      -38.098  78.126  28.277  0.00  0.00    -0.392 OA
ATOM     36  H   LIG    1      -38.853  78.717  28.450  0.00  0.00    +0.210 HD
ENDBRANCH  34  35
ENDBRANCH   1  34
TORSDOF 3
ENDMDL
MODEL 4
REMARK VINA RESULT:      -6.3     16.814     20.417
REMARK  Name = pdb/CHEMBL2113064.pdb
REMARK                            x       y       z     vdW  Elec       q    Type
REMARK                         _______ _______ _______ _____ _____    ______ ____
ROOT
ATOM      1  C   LIG    1      -44.599  76.043  24.145  0.00  0.00    +0.144 C 
ATOM      2  C   LIG    1      -43.739  76.857  23.070  0.00  0.00    +0.178 C 
ATOM      3  N   LIG    1      -42.353  77.076  23.453  0.00  0.00    -0.307 N 
ATOM      4  C   LIG    1      -41.395  76.119  23.647  0.00  0.00    +0.077 A 
ATOM      5  C   LIG    1      -41.528  74.753  23.400  0.00  0.00    +0.077 A 
ATOM      6  N   LIG    1      -42.605  74.142  22.843  0.00  0.00    -0.311 N 
ATOM      7  C   LIG    1      -42.211  72.792  22.897  0.00  0.00    +0.052 A 
ATOM      8  C   LIG    1      -42.926  71.655  22.472  0.00  0.00    +0.026 A 
ATOM      9  C   LIG    1      -42.356  70.390  22.626  0.00  0.00    +0.002 A 
ATOM     10  C   LIG    1      -41.099  70.240  23.189  0.00  0.00    +0.001 A 
ATOM     11  C   LIG    1      -40.371  71.357  23.617  0.00  0.00    +0.010 A 
ATOM     12  C   LIG    1      -40.897  72.663  23.488  0.00  0.00    +0.008 A 
ATOM     13  C   LIG    1      -43.844  74.672  22.335  0.00  0.00    +0.226 C 
ATOM     14  C   LIG    1      -40.440  73.967  23.812  0.00  0.00    +0.022 A 
ATOM     15  C   LIG    1      -39.222  74.316  24.431  0.00  0.00    +0.052 A 
ATOM     16  C   LIG    1      -38.070  73.651  24.952  0.00  0.00    +0.245 C 
ATOM     17  O   LIG    1      -37.715  72.481  25.035  0.00  0.00    -0.270 OA
ATOM     18  N   LIG    1      -37.282  74.691  25.446  0.00  0.00    -0.307 N 
ATOM     19  H   LIG    1      -36.404  74.475  25.895  0.00  0.00    +0.149 HD
ATOM     20  C   LIG    1      -37.821  76.033  25.301  0.00  0.00    +0.141 C 
ATOM     21  C   LIG    1      -39.078  75.706  24.634  0.00  0.00    -0.008 A 
ATOM     22  C   LIG    1      -40.174  76.481  24.217  0.00  0.00    +0.015 A 
ATOM     23  C   LIG    1      -40.324  77.878  24.360  0.00  0.00    +0.008 A 
ATOM     24  C   LIG    1      -39.493  78.913  24.854  0.00  0.00    +0.010 A 
ATOM     25  C   LIG    1      -39.927  80.238  24.874  0.00  0.00    +0.001 A 
ATOM     26  C   LIG    1      -41.188  80.566  24.408  0.00  0.00    +0.002 A 
ATOM     27  C   LIG    1      -42.051  79.583  23.917  0.00  0.00    +0.026 A 
ATOM     28  C   LIG    1      -41.650  78.230  23.878  0.00  0.00    +0.053 A 
ATOM     29  C   LIG    1      -44.470  78.074  22.486  0.00  0.00    +0.070 C 
ATOM     30  O   LIG    1      -43.637  76.004  21.888  0.00  0.00    -0.328 OA
ATOM     31  C   LIG    1      -44.965  74.783  23.343  0.00  0.00    +0.096 C 
ENDROOT
BRANCH   1  33
ATOM     32  C   LIG    1      -44.454  74.449  26.003  0.00  0.00    +0.195 C 
ATOM     33  O   LIG    1      -43.855  75.503  25.264  0.00  0.00    -0.369 OA
ENDBRANCH   1  33
BRANCH   1  34
ATOM     34  C   LIG    1      -45.911  76.692  24.646  0.00  0.00    +0.195 C 
BRANCH  34  35
ATOM     35  O   LIG    1      -47.070  76.132  24.038  0.00  0.00    -0.392 OA
ATOM     36  H   LIG    1      -47.843  76.580  24.425  0.00  0.00    +0.210 HD
ENDBRANCH  34  35
ENDBRANCH   1  34
TORSDOF 3
ENDMDL
MODEL 5
REMARK VINA RESULT:      -6.3      3.330      6.186
REMARK  Name = pdb/CHEMBL2113064.pdb
REMARK                            x       y       z     vdW  Elec       q    Type
REMARK                         _______ _______ _______ _____ _____    ______ ____
ROOT
ATOM      1  C   LIG    1      -18.478  75.705  32.625  0.00  0.00    +0.144 C 
ATOM      2  C   LIG    1      -18.890  76.881  31.623  0.00  0.00    +0.178 C 
ATOM      3  N   LIG    1      -20.201  77.457  31.882  0.00  0.00    -0.307 N 
ATOM      4  C   LIG    1      -20.591  78.136  33.004  0.00  0.00    +0.077 A 
ATOM      5  C   LIG    1      -19.773  78.513  34.069  0.00  0.00    +0.077 A 
ATOM      6  N   LIG    1      -18.428  78.346  34.143  0.00  0.00    -0.311 N 
ATOM      7  C   LIG    1      -18.162  78.842  35.433  0.00  0.00    +0.052 A 
ATOM      8  C   LIG    1      -16.924  78.924  36.100  0.00  0.00    +0.026 A 
ATOM      9  C   LIG    1      -16.875  79.443  37.395  0.00  0.00    +0.002 A 
ATOM     10  C   LIG    1      -18.028  79.880  38.029  0.00  0.00    +0.001 A 
ATOM     11  C   LIG    1      -19.268  79.809  37.384  0.00  0.00    +0.010 A 
ATOM     12  C   LIG    1      -19.379  79.292  36.073  0.00  0.00    +0.008 A 
ATOM     13  C   LIG    1      -17.482  77.803  33.202  0.00  0.00    +0.226 C 
ATOM     14  C   LIG    1      -20.447  79.082  35.162  0.00  0.00    +0.022 A 
ATOM     15  C   LIG    1      -21.815  79.349  35.374  0.00  0.00    +0.052 A 
ATOM     16  C   LIG    1      -22.646  79.855  36.421  0.00  0.00    +0.245 C 
ATOM     17  O   LIG    1      -22.444  80.267  37.557  0.00  0.00    -0.270 OA
ATOM     18  N   LIG    1      -23.932  79.790  35.884  0.00  0.00    -0.307 N 
ATOM     19  H   LIG    1      -24.718  80.078  36.449  0.00  0.00    +0.149 HD
ATOM     20  C   LIG    1      -24.040  79.268  34.532  0.00  0.00    +0.141 C 
ATOM     21  C   LIG    1      -22.628  79.006  34.271  0.00  0.00    -0.008 A 
ATOM     22  C   LIG    1      -21.940  78.439  33.185  0.00  0.00    +0.015 A 
ATOM     23  C   LIG    1      -22.509  77.948  31.989  0.00  0.00    +0.008 A 
ATOM     24  C   LIG    1      -23.825  77.913  31.465  0.00  0.00    +0.010 A 
ATOM     25  C   LIG    1      -24.090  77.342  30.221  0.00  0.00    +0.001 A 
ATOM     26  C   LIG    1      -23.064  76.795  29.472  0.00  0.00    +0.002 A 
ATOM     27  C   LIG    1      -21.749  76.796  29.945  0.00  0.00    +0.026 A 
ATOM     28  C   LIG    1      -21.437  77.365  31.197  0.00  0.00    +0.053 A 
ATOM     29  C   LIG    1      -18.573  76.582  30.152  0.00  0.00    +0.070 C 
ATOM     30  O   LIG    1      -17.972  77.988  31.883  0.00  0.00    -0.328 OA
ATOM     31  C   LIG    1      -17.242  76.314  33.309  0.00  0.00    +0.096 C 
ENDROOT
BRANCH   1  33
ATOM     32  C   LIG    1      -18.856  74.838  34.887  0.00  0.00    +0.195 C 
ATOM     33  O   LIG    1      -19.380  75.483  33.736  0.00  0.00    -0.369 OA
ENDBRANCH   1  33
BRANCH   1  34
ATOM     34  C   LIG    1      -18.063  74.351  32.001  0.00  0.00    +0.195 C 
BRANCH  34  35
ATOM     35  O   LIG    1      -19.179  73.524  31.690  0.00  0.00    -0.392 OA
ATOM     36  H   LIG    1      -19.680  73.970  30.983  0.00  0.00    +0.210 HD
ENDBRANCH  34  35
ENDBRANCH   1  34
TORSDOF 3
ENDMDL
MODEL 6
REMARK VINA RESULT:      -6.2     13.658     17.694
REMARK  Name = pdb/CHEMBL2113064.pdb
REMARK                            x       y       z     vdW  Elec       q    Type
REMARK                         _______ _______ _______ _____ _____    ______ ____
ROOT
ATOM      1  C   LIG    1      -35.784  67.204  25.543  0.00  0.00    +0.144 C 
ATOM      2  C   LIG    1      -35.569  67.832  24.088  0.00  0.00    +0.178 C 
ATOM      3  N   LIG    1      -36.686  68.630  23.608  0.00  0.00    -0.307 N 
ATOM      4  C   LIG    1      -37.156  69.794  24.154  0.00  0.00    +0.077 A 
ATOM      5  C   LIG    1      -36.581  70.506  25.206  0.00  0.00    +0.077 A 
ATOM      6  N   LIG    1      -35.406  70.215  25.822  0.00  0.00    -0.311 N 
ATOM      7  C   LIG    1      -35.367  71.207  26.818  0.00  0.00    +0.052 A 
ATOM      8  C   LIG    1      -34.380  71.421  27.800  0.00  0.00    +0.026 A 
ATOM      9  C   LIG    1      -34.536  72.465  28.713  0.00  0.00    +0.002 A 
ATOM     10  C   LIG    1      -35.647  73.293  28.664  0.00  0.00    +0.001 A 
ATOM     11  C   LIG    1      -36.638  73.099  27.695  0.00  0.00    +0.010 A 
ATOM     12  C   LIG    1      -36.535  72.057  26.745  0.00  0.00    +0.008 A 
ATOM     13  C   LIG    1      -34.434  69.180  25.578  0.00  0.00    +0.226 C 
ATOM     14  C   LIG    1      -37.336  71.596  25.667  0.00  0.00    +0.022 A 
ATOM     15  C   LIG    1      -38.580  72.110  25.247  0.00  0.00    +0.052 A 
ATOM     16  C   LIG    1      -39.485  73.145  25.636  0.00  0.00    +0.245 C 
ATOM     17  O   LIG    1      -39.487  74.002  26.512  0.00  0.00    -0.270 OA
ATOM     18  N   LIG    1      -40.546  73.013  24.741  0.00  0.00    -0.307 N 
ATOM     19  H   LIG    1      -41.341  73.629  24.823  0.00  0.00    +0.149 HD
ATOM     20  C   LIG    1      -40.430  71.947  23.758  0.00  0.00    +0.141 C 
ATOM     21  C   LIG    1      -39.131  71.410  24.151  0.00  0.00    -0.008 A 
ATOM     22  C   LIG    1      -38.365  70.321  23.700  0.00  0.00    +0.015 A 
ATOM     23  C   LIG    1      -38.707  69.417  22.671  0.00  0.00    +0.008 A 
ATOM     24  C   LIG    1      -39.791  69.320  21.764  0.00  0.00    +0.010 A 
ATOM     25  C   LIG    1      -39.863  68.282  20.835  0.00  0.00    +0.001 A 
ATOM     26  C   LIG    1      -38.869  67.322  20.785  0.00  0.00    +0.002 A 
ATOM     27  C   LIG    1      -37.781  67.365  21.662  0.00  0.00    +0.026 A 
ATOM     28  C   LIG    1      -37.670  68.399  22.616  0.00  0.00    +0.053 A 
ATOM     29  C   LIG    1      -34.967  66.851  23.072  0.00  0.00    +0.070 C 
ATOM     30  O   LIG    1      -34.483  68.802  24.211  0.00  0.00    -0.328 OA
ATOM     31  C   LIG    1      -34.657  67.889  26.334  0.00  0.00    +0.096 C 
ENDROOT
BRANCH   1  33
ATOM     32  C   LIG    1      -37.000  67.480  27.654  0.00  0.00    +0.195 C 
ATOM     33  O   LIG    1      -36.975  67.638  26.243  0.00  0.00    -0.369 OA
ENDBRANCH   1  33
BRANCH   1  34
ATOM     34  C   LIG    1      -35.612  65.674  25.690  0.00  0.00    +0.195 C 
BRANCH  34  35
ATOM     35  O   LIG    1      -34.316  65.306  26.147  0.00  0.00    -0.392 OA
ATOM     36  H   LIG    1      -34.428  64.869  27.011  0.00  0.00    +0.210 HD
ENDBRANCH  34  35
ENDBRANCH   1  34
TORSDOF 3
ENDMDL
MODEL 7
REMARK VINA RESULT:      -6.1     16.653     20.064
REMARK  Name = pdb/CHEMBL2113064.pdb
REMARK                            x       y       z     vdW  Elec       q    Type
REMARK                         _______ _______ _______ _____ _____    ______ ____
ROOT
ATOM      1  C   LIG    1      -44.235  73.647  24.111  0.00  0.00    +0.144 C 
ATOM      2  C   LIG    1      -43.907  74.528  22.817  0.00  0.00    +0.178 C 
ATOM      3  N   LIG    1      -43.066  75.685  23.077  0.00  0.00    -0.307 N 
ATOM      4  C   LIG    1      -41.773  75.675  23.526  0.00  0.00    +0.077 A 
ATOM      5  C   LIG    1      -40.968  74.550  23.706  0.00  0.00    +0.077 A 
ATOM      6  N   LIG    1      -41.299  73.271  23.391  0.00  0.00    -0.311 N 
ATOM      7  C   LIG    1      -40.160  72.577  23.839  0.00  0.00    +0.052 A 
ATOM      8  C   LIG    1      -39.909  71.191  23.798  0.00  0.00    +0.026 A 
ATOM      9  C   LIG    1      -38.709  70.696  24.311  0.00  0.00    +0.002 A 
ATOM     10  C   LIG    1      -37.764  71.550  24.859  0.00  0.00    +0.001 A 
ATOM     11  C   LIG    1      -37.993  72.930  24.909  0.00  0.00    +0.010 A 
ATOM     12  C   LIG    1      -39.191  73.488  24.405  0.00  0.00    +0.008 A 
ATOM     13  C   LIG    1      -42.479  72.715  22.780  0.00  0.00    +0.226 C 
ATOM     14  C   LIG    1      -39.725  74.800  24.307  0.00  0.00    +0.022 A 
ATOM     15  C   LIG    1      -39.134  75.999  24.758  0.00  0.00    +0.052 A 
ATOM     16  C   LIG    1      -37.937  76.404  25.423  0.00  0.00    +0.245 C 
ATOM     17  O   LIG    1      -36.947  75.820  25.846  0.00  0.00    -0.270 OA
ATOM     18  N   LIG    1      -38.084  77.785  25.558  0.00  0.00    -0.307 N 
ATOM     19  H   LIG    1      -37.364  78.315  26.027  0.00  0.00    +0.149 HD
ATOM     20  C   LIG    1      -39.311  78.357  25.029  0.00  0.00    +0.141 C 
ATOM     21  C   LIG    1      -39.937  77.137  24.527  0.00  0.00    -0.008 A 
ATOM     22  C   LIG    1      -41.179  76.872  23.925  0.00  0.00    +0.015 A 
ATOM     23  C   LIG    1      -42.197  77.808  23.643  0.00  0.00    +0.008 A 
ATOM     24  C   LIG    1      -42.309  79.214  23.778  0.00  0.00    +0.010 A 
ATOM     25  C   LIG    1      -43.475  79.883  23.408  0.00  0.00    +0.001 A 
ATOM     26  C   LIG    1      -44.552  79.179  22.900  0.00  0.00    +0.002 A 
ATOM     27  C   LIG    1      -44.498  77.790  22.753  0.00  0.00    +0.026 A 
ATOM     28  C   LIG    1      -43.337  77.075  23.114  0.00  0.00    +0.053 A 
ATOM     29  C   LIG    1      -45.122  74.776  21.913  0.00  0.00    +0.070 C 
ATOM     30  O   LIG    1      -43.082  73.693  21.946  0.00  0.00    -0.328 OA
ATOM     31  C   LIG    1      -43.576  72.309  23.738  0.00  0.00    +0.096 C 
ENDROOT
BRANCH   1  33
ATOM     32  C   LIG    1      -43.444  73.055  26.355  0.00  0.00    +0.195 C 
ATOM     33  O   LIG    1      -43.532  74.023  25.320  0.00  0.00    -0.369 OA
ENDBRANCH   1  33
BRANCH   1  34
ATOM     34  C   LIG    1      -45.725  73.377  24.428  0.00  0.00    +0.195 C 
BRANCH  34  35
ATOM     35  O   LIG    1      -46.140  72.068  24.052  0.00  0.00    -0.392 OA
ATOM     36  H   LIG    1      -46.999  72.156  23.601  0.00  0.00    +0.210 HD
ENDBRANCH  34  35
ENDBRANCH   1  34
TORSDOF 3
ENDMDL
MODEL 8
REMARK VINA RESULT:      -6.0     15.397     19.123
REMARK  Name = pdb/CHEMBL2113064.pdb
REMARK                            x       y       z     vdW  Elec       q    Type
REMARK                         _______ _______ _______ _____ _____    ______ ____
ROOT
ATOM      1  C   LIG    1      -36.476  69.251  26.859  0.00  0.00    +0.144 C 
ATOM      2  C   LIG    1      -35.564  69.293  25.546  0.00  0.00    +0.178 C 
ATOM      3  N   LIG    1      -36.210  68.774  24.351  0.00  0.00    -0.307 N 
ATOM      4  C   LIG    1      -37.314  69.287  23.726  0.00  0.00    +0.077 A 
ATOM      5  C   LIG    1      -37.966  70.478  24.044  0.00  0.00    +0.077 A 
ATOM      6  N   LIG    1      -37.570  71.382  24.977  0.00  0.00    -0.311 N 
ATOM      7  C   LIG    1      -38.615  72.322  24.905  0.00  0.00    +0.052 A 
ATOM      8  C   LIG    1      -38.780  73.504  25.654  0.00  0.00    +0.026 A 
ATOM      9  C   LIG    1      -39.904  74.303  25.437  0.00  0.00    +0.002 A 
ATOM     10  C   LIG    1      -40.857  73.947  24.495  0.00  0.00    +0.001 A 
ATOM     11  C   LIG    1      -40.712  72.778  23.739  0.00  0.00    +0.010 A 
ATOM     12  C   LIG    1      -39.594  71.930  23.916  0.00  0.00    +0.008 A 
ATOM     13  C   LIG    1      -36.420  71.416  25.843  0.00  0.00    +0.226 C 
ATOM     14  C   LIG    1      -39.156  70.710  23.338  0.00  0.00    +0.022 A 
ATOM     15  C   LIG    1      -39.814  69.949  22.349  0.00  0.00    +0.052 A 
ATOM     16  C   LIG    1      -41.025  70.014  21.594  0.00  0.00    +0.245 C 
ATOM     17  O   LIG    1      -41.960  70.804  21.532  0.00  0.00    -0.270 OA
ATOM     18  N   LIG    1      -40.997  68.853  20.820  0.00  0.00    -0.307 N 
ATOM     19  H   LIG    1      -41.770  68.651  20.204  0.00  0.00    +0.149 HD
ATOM     20  C   LIG    1      -39.840  67.989  20.997  0.00  0.00    +0.141 C 
ATOM     21  C   LIG    1      -39.122  68.768  22.001  0.00  0.00    -0.008 A 
ATOM     22  C   LIG    1      -37.931  68.549  22.716  0.00  0.00    +0.015 A 
ATOM     23  C   LIG    1      -37.082  67.425  22.618  0.00  0.00    +0.008 A 
ATOM     24  C   LIG    1      -37.072  66.265  21.806  0.00  0.00    +0.010 A 
ATOM     25  C   LIG    1      -36.078  65.297  21.943  0.00  0.00    +0.001 A 
ATOM     26  C   LIG    1      -35.077  65.455  22.884  0.00  0.00    +0.002 A 
ATOM     27  C   LIG    1      -35.044  66.577  23.717  0.00  0.00    +0.026 A 
ATOM     28  C   LIG    1      -36.029  67.581  23.610  0.00  0.00    +0.053 A 
ATOM     29  C   LIG    1      -34.120  68.829  25.780  0.00  0.00    +0.070 C 
ATOM     30  O   LIG    1      -35.352  70.705  25.234  0.00  0.00    -0.328 OA
ATOM     31  C   LIG    1      -36.599  70.748  27.188  0.00  0.00    +0.096 C 
ENDROOT
BRANCH   1  33
ATOM     32  C   LIG    1      -38.792  69.194  27.664  0.00  0.00    +0.195 C 
ATOM     33  O   LIG    1      -37.854  68.856  26.653  0.00  0.00    -0.369 OA
ENDBRANCH   1  33
BRANCH   1  34
ATOM     34  C   LIG    1      -35.900  68.532  28.103  0.00  0.00    +0.195 C 
BRANCH  34  35
ATOM     35  O   LIG    1      -35.389  69.438  29.075  0.00  0.00    -0.392 OA
ATOM     36  H   LIG    1      -36.110  69.622  29.704  0.00  0.00    +0.210 HD
ENDBRANCH  34  35
ENDBRANCH   1  34
TORSDOF 3
ENDMDL
MODEL 9
REMARK VINA RESULT:      -5.9     15.150     19.168
REMARK  Name = pdb/CHEMBL2113064.pdb
REMARK                            x       y       z     vdW  Elec       q    Type
REMARK                         _______ _______ _______ _____ _____    ______ ____
ROOT
ATOM      1  C   LIG    1      -41.797  77.813  26.176  0.00  0.00    +0.144 C 
ATOM      2  C   LIG    1      -40.431  78.152  25.416  0.00  0.00    +0.178 C 
ATOM      3  N   LIG    1      -39.431  77.098  25.480  0.00  0.00    -0.307 N 
ATOM      4  C   LIG    1      -39.532  75.839  24.954  0.00  0.00    +0.077 A 
ATOM      5  C   LIG    1      -40.565  75.359  24.148  0.00  0.00    +0.077 A 
ATOM      6  N   LIG    1      -41.613  76.082  23.676  0.00  0.00    -0.311 N 
ATOM      7  C   LIG    1      -42.344  75.090  22.997  0.00  0.00    +0.052 A 
ATOM      8  C   LIG    1      -43.561  75.225  22.299  0.00  0.00    +0.026 A 
ATOM      9  C   LIG    1      -44.134  74.103  21.697  0.00  0.00    +0.002 A 
ATOM     10  C   LIG    1      -43.522  72.862  21.778  0.00  0.00    +0.001 A 
ATOM     11  C   LIG    1      -42.313  72.706  22.466  0.00  0.00    +0.010 A 
ATOM     12  C   LIG    1      -41.685  73.806  23.095  0.00  0.00    +0.008 A 
ATOM     13  C   LIG    1      -41.947  77.476  23.812  0.00  0.00    +0.226 C 
ATOM     14  C   LIG    1      -40.499  73.989  23.852  0.00  0.00    +0.022 A 
ATOM     15  C   LIG    1      -39.560  73.002  24.220  0.00  0.00    +0.052 A 
ATOM     16  C   LIG    1      -39.384  71.594  24.054  0.00  0.00    +0.245 C 
ATOM     17  O   LIG    1      -40.016  70.707  23.493  0.00  0.00    -0.270 OA
ATOM     18  N   LIG    1      -38.204  71.324  24.747  0.00  0.00    -0.307 N 
ATOM     19  H   LIG    1      -37.868  70.373  24.799  0.00  0.00    +0.149 HD
ATOM     20  C   LIG    1      -37.556  72.459  25.384  0.00  0.00    +0.141 C 
ATOM     21  C   LIG    1      -38.494  73.508  24.995  0.00  0.00    -0.008 A 
ATOM     22  C   LIG    1      -38.574  74.881  25.284  0.00  0.00    +0.015 A 
ATOM     23  C   LIG    1      -37.685  75.628  26.088  0.00  0.00    +0.008 A 
ATOM     24  C   LIG    1      -36.479  75.326  26.768  0.00  0.00    +0.010 A 
ATOM     25  C   LIG    1      -35.806  76.296  27.508  0.00  0.00    +0.001 A 
ATOM     26  C   LIG    1      -36.310  77.582  27.594  0.00  0.00    +0.002 A 
ATOM     27  C   LIG    1      -37.500  77.932  26.950  0.00  0.00    +0.026 A 
ATOM     28  C   LIG    1      -38.211  76.981  26.188  0.00  0.00    +0.053 A 
ATOM     29  C   LIG    1      -39.917  79.575  25.672  0.00  0.00    +0.070 C 
ATOM     30  O   LIG    1      -40.757  78.229  23.993  0.00  0.00    -0.328 OA
ATOM     31  C   LIG    1      -42.800  77.826  25.011  0.00  0.00    +0.096 C 
ENDROOT
BRANCH   1  33
ATOM     32  C   LIG    1      -43.217  75.978  26.969  0.00  0.00    +0.195 C 
ATOM     33  O   LIG    1      -41.912  76.461  26.683  0.00  0.00    -0.369 OA
ENDBRANCH   1  33
BRANCH   1  34
ATOM     34  C   LIG    1      -42.286  78.821  27.243  0.00  0.00    +0.195 C 
BRANCH  34  35
ATOM     35  O   LIG    1      -43.325  79.668  26.765  0.00  0.00    -0.392 OA
ATOM     36  H   LIG    1      -43.520  79.397  25.849  0.00  0.00    +0.210 HD
ENDBRANCH  34  35
ENDBRANCH   1  34
TORSDOF 3
ENDMDL
