MODEL 1
REMARK VINA RESULT:      -7.1      0.000      0.000
REMARK  Name = pdb/CHEMBL3671320.pdb
REMARK                            x       y       z     vdW  Elec       q    Type
REMARK                         _______ _______ _______ _____ _____    ______ ____
ROOT
ATOM      1  C   LIG    1      -40.734  69.731  23.949  0.00  0.00    +0.045 A 
ATOM      2  C   LIG    1      -42.032  70.155  24.471  0.00  0.00    +0.041 A 
ATOM      3  C   LIG    1      -43.150  70.071  23.743  0.00  0.00    +0.088 A 
ATOM      4  N   LIG    1      -43.092  69.602  22.466  0.00  0.00    -0.328 N 
ATOM      5  H   LIG    1      -43.928  69.552  21.895  0.00  0.00    +0.168 HD
ATOM      6  C   LIG    1      -41.938  69.182  21.867  0.00  0.00    +0.261 A 
ATOM      7  O   LIG    1      -41.961  68.795  20.697  0.00  0.00    -0.267 OA
ATOM      8  C   LIG    1      -40.665  69.211  22.694  0.00  0.00    +0.102 A 
ENDROOT
BRANCH   8   9
ATOM      9  C   LIG    1      -39.451  68.705  22.120  0.00  0.00    +0.146 A 
ATOM     10  N   LIG    1      -39.269  68.850  20.762  0.00  0.00    -0.338 N 
ATOM     11  H   LIG    1      -39.927  69.308  20.139  0.00  0.00    +0.167 HD
ATOM     12  C   LIG    1      -38.114  68.236  20.381  0.00  0.00    +0.067 A 
ATOM     13  C   LIG    1      -37.563  68.041  19.118  0.00  0.00    +0.041 A 
ATOM     14  C   LIG    1      -36.343  67.400  19.140  0.00  0.00    +0.044 A 
ATOM     15  C   LIG    1      -35.476  67.092  18.003  0.00  0.00    +0.248 C 
ATOM     16  O   LIG    1      -35.764  67.327  16.833  0.00  0.00    -0.270 OA
ATOM     17  N   LIG    1      -34.314  66.540  18.509  0.00  0.00    -0.290 N 
ATOM     18  C   LIG    1      -34.366  66.429  19.963  0.00  0.00    +0.144 C 
ATOM     19  C   LIG    1      -35.703  66.995  20.311  0.00  0.00    -0.013 A 
ATOM     20  C   LIG    1      -36.278  67.176  21.579  0.00  0.00    -0.018 A 
ATOM     21  C   LIG    1      -35.574  66.716  22.819  0.00  0.00    +0.046 C 
ATOM     22  C   LIG    1      -37.545  67.807  21.579  0.00  0.00    +0.093 A 
ATOM     23  N   LIG    1      -38.400  68.079  22.630  0.00  0.00    -0.227 NA
BRANCH  17  24
ATOM     24  C   LIG    1      -33.117  66.308  17.689  0.00  0.00    +0.079 C 
ATOM     25  C   LIG    1      -32.121  65.318  18.295  0.00  0.00    +0.038 C 
ATOM     26  C   LIG    1      -31.164  65.954  19.304  0.00  0.00    +0.086 C 
ATOM     27  N   LIG    1      -30.536  67.208  18.874  0.00  0.00    -0.305 NA
ATOM     28  C   LIG    1      -29.416  66.995  17.965  0.00  0.00    +0.104 C 
ATOM     29  C   LIG    1      -31.500  68.168  18.336  0.00  0.00    +0.086 C 
ATOM     30  C   LIG    1      -32.422  67.602  17.256  0.00  0.00    +0.038 C 
ENDBRANCH  17  24
ENDBRANCH   8   9
BRANCH   1  31
ATOM     31  N   LIG    1      -39.697  69.845  24.882  0.00  0.00    -0.340 N 
ATOM     32  H   LIG    1      -38.842  69.444  24.480  0.00  0.00    +0.146 HD
BRANCH  31  34
ATOM     33  C   LIG    1      -38.348  70.903  26.602  0.00  0.00    +0.028 C 
ATOM     34  C   LIG    1      -39.357  71.162  25.481  0.00  0.00    +0.072 C 
BRANCH  34  35
ATOM     35  C   LIG    1      -38.791  72.111  24.401  0.00  0.00    +0.063 C 
BRANCH  35  36
ATOM     36  C   LIG    1      -39.309  73.521  24.400  0.00  0.00    +0.030 A 
ATOM     37  C   LIG    1      -40.469  73.863  23.700  0.00  0.00    +0.165 A 
ATOM     38  F   LIG    1      -41.138  72.921  23.020  0.00  0.00    -0.202 F 
ATOM     39  C   LIG    1      -40.935  75.176  23.690  0.00  0.00    +0.162 A 
ATOM     40  F   LIG    1      -42.044  75.487  23.006  0.00  0.00    -0.202 F 
ATOM     41  C   LIG    1      -40.263  76.175  24.384  0.00  0.00    +0.082 A 
ATOM     42  C   LIG    1      -39.107  75.844  25.079  0.00  0.00    +0.162 A 
ATOM     43  F   LIG    1      -38.451  76.795  25.756  0.00  0.00    -0.202 F 
ATOM     44  C   LIG    1      -38.629  74.535  25.080  0.00  0.00    +0.165 A 
ATOM     45  F   LIG    1      -37.505  74.246  25.750  0.00  0.00    -0.202 F 
ENDBRANCH  35  36
ENDBRANCH  34  35
ENDBRANCH  31  34
ENDBRANCH   1  31
TORSDOF 6
ENDMDL
MODEL 2
REMARK VINA RESULT:      -7.0      7.479     13.383
REMARK  Name = pdb/CHEMBL3671320.pdb
REMARK                            x       y       z     vdW  Elec       q    Type
REMARK                         _______ _______ _______ _____ _____    ______ ____
ROOT
ATOM      1  C   LIG    1      -38.010  75.283  25.387  0.00  0.00    +0.045 A 
ATOM      2  C   LIG    1      -37.929  73.832  25.227  0.00  0.00    +0.041 A 
ATOM      3  C   LIG    1      -38.835  73.145  24.526  0.00  0.00    +0.088 A 
ATOM      4  N   LIG    1      -39.887  73.796  23.958  0.00  0.00    -0.328 N 
ATOM      5  H   LIG    1      -40.594  73.286  23.441  0.00  0.00    +0.168 HD
ATOM      6  C   LIG    1      -40.074  75.147  24.043  0.00  0.00    +0.261 A 
ATOM      7  O   LIG    1      -41.067  75.662  23.524  0.00  0.00    -0.267 OA
ATOM      8  C   LIG    1      -39.025  75.957  24.782  0.00  0.00    +0.102 A 
ENDROOT
BRANCH   8   9
ATOM      9  C   LIG    1      -39.152  77.386  24.824  0.00  0.00    +0.146 A 
ATOM     10  N   LIG    1      -39.418  78.046  23.644  0.00  0.00    -0.338 N 
ATOM     11  H   LIG    1      -39.551  77.590  22.748  0.00  0.00    +0.167 HD
ATOM     12  C   LIG    1      -39.414  79.393  23.856  0.00  0.00    +0.067 A 
ATOM     13  C   LIG    1      -39.543  80.451  22.962  0.00  0.00    +0.041 A 
ATOM     14  C   LIG    1      -39.527  81.690  23.567  0.00  0.00    +0.044 A 
ATOM     15  C   LIG    1      -39.695  82.997  22.931  0.00  0.00    +0.248 C 
ATOM     16  O   LIG    1      -39.821  83.162  21.721  0.00  0.00    -0.270 OA
ATOM     17  N   LIG    1      -39.712  83.944  23.936  0.00  0.00    -0.290 N 
ATOM     18  C   LIG    1      -39.530  83.333  25.248  0.00  0.00    +0.144 C 
ATOM     19  C   LIG    1      -39.410  81.877  24.944  0.00  0.00    -0.013 A 
ATOM     20  C   LIG    1      -39.258  80.802  25.834  0.00  0.00    -0.018 A 
ATOM     21  C   LIG    1      -39.119  81.034  27.308  0.00  0.00    +0.046 C 
ATOM     22  C   LIG    1      -39.242  79.521  25.232  0.00  0.00    +0.093 A 
ATOM     23  N   LIG    1      -39.052  78.276  25.801  0.00  0.00    -0.227 NA
BRANCH  17  24
ATOM     24  C   LIG    1      -40.084  85.348  23.704  0.00  0.00    +0.079 C 
ATOM     25  C   LIG    1      -39.099  86.124  22.829  0.00  0.00    +0.038 C 
ATOM     26  C   LIG    1      -37.906  86.689  23.601  0.00  0.00    +0.086 C 
ATOM     27  N   LIG    1      -38.237  87.386  24.849  0.00  0.00    -0.305 NA
ATOM     28  C   LIG    1      -38.719  88.744  24.624  0.00  0.00    +0.104 C 
ATOM     29  C   LIG    1      -39.144  86.620  25.703  0.00  0.00    +0.086 C 
ATOM     30  C   LIG    1      -40.399  86.109  24.995  0.00  0.00    +0.038 C 
ENDBRANCH  17  24
ENDBRANCH   8   9
BRANCH   1  31
ATOM     31  N   LIG    1      -36.938  75.823  26.106  0.00  0.00    -0.340 N 
ATOM     32  H   LIG    1      -36.498  76.562  25.545  0.00  0.00    +0.146 HD
BRANCH  31  34
ATOM     33  C   LIG    1      -38.190  75.461  28.155  0.00  0.00    +0.028 C 
ATOM     34  C   LIG    1      -37.134  76.342  27.486  0.00  0.00    +0.072 C 
BRANCH  34  35
ATOM     35  C   LIG    1      -35.796  76.330  28.257  0.00  0.00    +0.063 C 
BRANCH  35  36
ATOM     36  C   LIG    1      -34.759  77.327  27.828  0.00  0.00    +0.030 A 
ATOM     37  C   LIG    1      -33.605  76.923  27.152  0.00  0.00    +0.165 A 
ATOM     38  F   LIG    1      -33.417  75.625  26.874  0.00  0.00    -0.202 F 
ATOM     39  C   LIG    1      -32.638  77.852  26.771  0.00  0.00    +0.162 A 
ATOM     40  F   LIG    1      -31.534  77.444  26.131  0.00  0.00    -0.202 F 
ATOM     41  C   LIG    1      -32.803  79.204  27.046  0.00  0.00    +0.082 A 
ATOM     42  C   LIG    1      -33.945  79.613  27.721  0.00  0.00    +0.162 A 
ATOM     43  F   LIG    1      -34.121  80.914  27.990  0.00  0.00    -0.202 F 
ATOM     44  C   LIG    1      -34.908  78.686  28.117  0.00  0.00    +0.165 A 
ATOM     45  F   LIG    1      -35.995  79.108  28.778  0.00  0.00    -0.202 F 
ENDBRANCH  35  36
ENDBRANCH  34  35
ENDBRANCH  31  34
ENDBRANCH   1  31
TORSDOF 6
ENDMDL
MODEL 3
REMARK VINA RESULT:      -7.0     17.085     21.479
REMARK  Name = pdb/CHEMBL3671320.pdb
REMARK                            x       y       z     vdW  Elec       q    Type
REMARK                         _______ _______ _______ _____ _____    ______ ____
ROOT
ATOM      1  C   LIG    1      -20.961  85.193  13.604  0.00  0.00    +0.045 A 
ATOM      2  C   LIG    1      -20.554  86.595  13.673  0.00  0.00    +0.041 A 
ATOM      3  C   LIG    1      -21.365  87.587  13.297  0.00  0.00    +0.088 A 
ATOM      4  N   LIG    1      -22.603  87.302  12.808  0.00  0.00    -0.328 N 
ATOM      5  H   LIG    1      -23.221  88.043  12.500  0.00  0.00    +0.168 HD
ATOM      6  C   LIG    1      -23.094  86.032  12.690  0.00  0.00    +0.261 A 
ATOM      7  O   LIG    1      -24.216  85.851  12.214  0.00  0.00    -0.267 OA
ATOM      8  C   LIG    1      -22.215  84.891  13.168  0.00  0.00    +0.102 A 
ENDROOT
BRANCH   8   9
ATOM      9  C   LIG    1      -22.730  83.552  13.129  0.00  0.00    +0.146 A 
ATOM     10  N   LIG    1      -23.624  83.175  14.107  0.00  0.00    -0.338 N 
ATOM     11  H   LIG    1      -23.960  83.785  14.845  0.00  0.00    +0.167 HD
ATOM     12  C   LIG    1      -23.934  81.855  13.967  0.00  0.00    +0.067 A 
ATOM     13  C   LIG    1      -24.713  81.018  14.760  0.00  0.00    +0.041 A 
ATOM     14  C   LIG    1      -24.825  79.736  14.265  0.00  0.00    +0.044 A 
ATOM     15  C   LIG    1      -25.609  78.631  14.817  0.00  0.00    +0.248 C 
ATOM     16  O   LIG    1      -26.246  78.695  15.865  0.00  0.00    -0.270 OA
ATOM     17  N   LIG    1      -25.506  77.572  13.935  0.00  0.00    -0.290 N 
ATOM     18  C   LIG    1      -24.648  77.904  12.803  0.00  0.00    +0.144 C 
ATOM     19  C   LIG    1      -24.234  79.312  13.075  0.00  0.00    -0.013 A 
ATOM     20  C   LIG    1      -23.432  80.159  12.295  0.00  0.00    -0.018 A 
ATOM     21  C   LIG    1      -22.796  79.670  11.029  0.00  0.00    +0.046 C 
ATOM     22  C   LIG    1      -23.278  81.472  12.799  0.00  0.00    +0.093 A 
ATOM     23  N   LIG    1      -22.520  82.524  12.320  0.00  0.00    -0.227 NA
BRANCH  17  24
ATOM     24  C   LIG    1      -26.336  76.363  14.039  0.00  0.00    +0.079 C 
ATOM     25  C   LIG    1      -25.797  75.162  13.259  0.00  0.00    +0.038 C 
ATOM     26  C   LIG    1      -26.191  75.165  11.782  0.00  0.00    +0.086 C 
ATOM     27  N   LIG    1      -27.605  75.440  11.507  0.00  0.00    -0.305 NA
ATOM     28  C   LIG    1      -28.457  74.275  11.718  0.00  0.00    +0.104 C 
ATOM     29  C   LIG    1      -28.103  76.616  12.220  0.00  0.00    +0.086 C 
ATOM     30  C   LIG    1      -27.812  76.616  13.721  0.00  0.00    +0.038 C 
ENDBRANCH  17  24
ENDBRANCH   8   9
BRANCH   1  31
ATOM     31  N   LIG    1      -19.995  84.308  14.095  0.00  0.00    -0.340 N 
ATOM     32  H   LIG    1      -20.331  83.901  14.975  0.00  0.00    +0.146 HD
BRANCH  31  34
ATOM     33  C   LIG    1      -18.437  83.818  12.298  0.00  0.00    +0.028 C 
ATOM     34  C   LIG    1      -19.471  83.207  13.244  0.00  0.00    +0.072 C 
BRANCH  34  35
ATOM     35  C   LIG    1      -18.863  82.093  14.125  0.00  0.00    +0.063 C 
BRANCH  35  36
ATOM     36  C   LIG    1      -19.779  80.971  14.525  0.00  0.00    +0.030 A 
ATOM     37  C   LIG    1      -19.826  79.783  13.793  0.00  0.00    +0.165 A 
ATOM     38  F   LIG    1      -19.040  79.632  12.717  0.00  0.00    -0.202 F 
ATOM     39  C   LIG    1      -20.690  78.752  14.160  0.00  0.00    +0.162 A 
ATOM     40  F   LIG    1      -20.728  77.623  13.441  0.00  0.00    -0.202 F 
ATOM     41  C   LIG    1      -21.518  78.879  15.268  0.00  0.00    +0.082 A 
ATOM     42  C   LIG    1      -21.480  80.060  15.999  0.00  0.00    +0.162 A 
ATOM     43  F   LIG    1      -22.269  80.195  17.072  0.00  0.00    -0.202 F 
ATOM     44  C   LIG    1      -20.628  81.098  15.627  0.00  0.00    +0.165 A 
ATOM     45  F   LIG    1      -20.620  82.231  16.344  0.00  0.00    -0.202 F 
ENDBRANCH  35  36
ENDBRANCH  34  35
ENDBRANCH  31  34
ENDBRANCH   1  31
TORSDOF 6
ENDMDL
MODEL 4
REMARK VINA RESULT:      -7.0      9.397     13.156
REMARK  Name = pdb/CHEMBL3671320.pdb
REMARK                            x       y       z     vdW  Elec       q    Type
REMARK                         _______ _______ _______ _____ _____    ______ ____
ROOT
ATOM      1  C   LIG    1      -30.754  69.200  14.843  0.00  0.00    +0.045 A 
ATOM      2  C   LIG    1      -32.024  69.011  14.145  0.00  0.00    +0.041 A 
ATOM      3  C   LIG    1      -32.380  69.771  13.105  0.00  0.00    +0.088 A 
ATOM      4  N   LIG    1      -31.559  70.772  12.685  0.00  0.00    -0.328 N 
ATOM      5  H   LIG    1      -31.824  71.369  11.911  0.00  0.00    +0.168 HD
ATOM      6  C   LIG    1      -30.351  71.050  13.261  0.00  0.00    +0.261 A 
ATOM      7  O   LIG    1      -29.674  71.991  12.842  0.00  0.00    -0.267 OA
ATOM      8  C   LIG    1      -29.897  70.162  14.405  0.00  0.00    +0.102 A 
ENDROOT
BRANCH   8   9
ATOM      9  C   LIG    1      -28.600  70.379  14.981  0.00  0.00    +0.146 A 
ATOM     10  N   LIG    1      -28.147  71.676  15.084  0.00  0.00    -0.338 N 
ATOM     11  H   LIG    1      -28.675  72.493  14.797  0.00  0.00    +0.167 HD
ATOM     12  C   LIG    1      -26.872  71.684  15.565  0.00  0.00    +0.067 A 
ATOM     13  C   LIG    1      -25.980  72.736  15.753  0.00  0.00    +0.041 A 
ATOM     14  C   LIG    1      -24.778  72.349  16.306  0.00  0.00    +0.044 A 
ATOM     15  C   LIG    1      -23.652  73.203  16.681  0.00  0.00    +0.248 C 
ATOM     16  O   LIG    1      -23.615  74.416  16.492  0.00  0.00    -0.270 OA
ATOM     17  N   LIG    1      -22.709  72.397  17.290  0.00  0.00    -0.290 N 
ATOM     18  C   LIG    1      -23.138  71.003  17.319  0.00  0.00    +0.144 C 
ATOM     19  C   LIG    1      -24.479  71.035  16.663  0.00  0.00    -0.013 A 
ATOM     20  C   LIG    1      -25.378  69.978  16.449  0.00  0.00    -0.018 A 
ATOM     21  C   LIG    1      -25.022  68.573  16.829  0.00  0.00    +0.046 C 
ATOM     22  C   LIG    1      -26.608  70.347  15.855  0.00  0.00    +0.093 A 
ATOM     23  N   LIG    1      -27.673  69.561  15.459  0.00  0.00    -0.227 NA
BRANCH  17  24
ATOM     24  C   LIG    1      -21.538  72.934  18.000  0.00  0.00    +0.079 C 
ATOM     25  C   LIG    1      -20.421  73.434  17.082  0.00  0.00    +0.038 C 
ATOM     26  C   LIG    1      -19.480  72.327  16.605  0.00  0.00    +0.086 C 
ATOM     27  N   LIG    1      -19.000  71.414  17.648  0.00  0.00    -0.305 NA
ATOM     28  C   LIG    1      -17.913  71.983  18.437  0.00  0.00    +0.104 C 
ATOM     29  C   LIG    1      -20.078  70.904  18.495  0.00  0.00    +0.086 C 
ATOM     30  C   LIG    1      -20.995  71.984  19.070  0.00  0.00    +0.038 C 
ENDBRANCH  17  24
ENDBRANCH   8   9
BRANCH   1  31
ATOM     31  N   LIG    1      -30.540  68.272  15.868  0.00  0.00    -0.340 N 
ATOM     32  H   LIG    1      -29.800  68.622  16.487  0.00  0.00    +0.146 HD
BRANCH  31  34
ATOM     33  C   LIG    1      -31.566  66.277  16.798  0.00  0.00    +0.028 C 
ATOM     34  C   LIG    1      -31.669  67.800  16.713  0.00  0.00    +0.072 C 
BRANCH  34  35
ATOM     35  C   LIG    1      -31.605  68.463  18.107  0.00  0.00    +0.063 C 
BRANCH  35  36
ATOM     36  C   LIG    1      -30.387  69.287  18.410  0.00  0.00    +0.030 A 
ATOM     37  C   LIG    1      -30.389  70.672  18.227  0.00  0.00    +0.165 A 
ATOM     38  F   LIG    1      -31.496  71.283  17.780  0.00  0.00    -0.202 F 
ATOM     39  C   LIG    1      -29.249  71.429  18.495  0.00  0.00    +0.162 A 
ATOM     40  F   LIG    1      -29.267  72.755  18.306  0.00  0.00    -0.202 F 
ATOM     41  C   LIG    1      -28.086  70.825  18.957  0.00  0.00    +0.082 A 
ATOM     42  C   LIG    1      -28.075  69.448  19.137  0.00  0.00    +0.162 A 
ATOM     43  F   LIG    1      -26.963  68.852  19.586  0.00  0.00    -0.202 F 
ATOM     44  C   LIG    1      -29.208  68.685  18.857  0.00  0.00    +0.165 A 
ATOM     45  F   LIG    1      -29.165  67.357  19.029  0.00  0.00    -0.202 F 
ENDBRANCH  35  36
ENDBRANCH  34  35
ENDBRANCH  31  34
ENDBRANCH   1  31
TORSDOF 6
ENDMDL
MODEL 5
REMARK VINA RESULT:      -7.0      0.347      1.670
REMARK  Name = pdb/CHEMBL3671320.pdb
REMARK                            x       y       z     vdW  Elec       q    Type
REMARK                         _______ _______ _______ _____ _____    ______ ____
ROOT
ATOM      1  C   LIG    1      -40.731  70.174  23.900  0.00  0.00    +0.045 A 
ATOM      2  C   LIG    1      -42.014  70.672  24.390  0.00  0.00    +0.041 A 
ATOM      3  C   LIG    1      -43.123  70.626  23.646  0.00  0.00    +0.088 A 
ATOM      4  N   LIG    1      -43.069  70.127  22.381  0.00  0.00    -0.328 N 
ATOM      5  H   LIG    1      -43.897  70.104  21.797  0.00  0.00    +0.168 HD
ATOM      6  C   LIG    1      -41.928  69.639  21.810  0.00  0.00    +0.261 A 
ATOM      7  O   LIG    1      -41.951  69.227  20.648  0.00  0.00    -0.267 OA
ATOM      8  C   LIG    1      -40.668  69.624  22.657  0.00  0.00    +0.102 A 
ENDROOT
BRANCH   8   9
ATOM      9  C   LIG    1      -39.471  69.047  22.113  0.00  0.00    +0.146 A 
ATOM     10  N   LIG    1      -39.286  69.108  20.750  0.00  0.00    -0.338 N 
ATOM     11  H   LIG    1      -39.929  69.551  20.102  0.00  0.00    +0.167 HD
ATOM     12  C   LIG    1      -38.151  68.436  20.406  0.00  0.00    +0.067 A 
ATOM     13  C   LIG    1      -37.608  68.152  19.157  0.00  0.00    +0.041 A 
ATOM     14  C   LIG    1      -36.409  67.474  19.216  0.00  0.00    +0.044 A 
ATOM     15  C   LIG    1      -35.554  67.074  18.100  0.00  0.00    +0.248 C 
ATOM     16  O   LIG    1      -35.836  67.251  16.918  0.00  0.00    -0.270 OA
ATOM     17  N   LIG    1      -34.411  66.514  18.637  0.00  0.00    -0.290 N 
ATOM     18  C   LIG    1      -34.465  66.488  20.095  0.00  0.00    +0.144 C 
ATOM     19  C   LIG    1      -35.782  67.116  20.409  0.00  0.00    -0.013 A 
ATOM     20  C   LIG    1      -36.350  67.388  21.663  0.00  0.00    -0.018 A 
ATOM     21  C   LIG    1      -35.660  66.977  22.929  0.00  0.00    +0.046 C 
ATOM     22  C   LIG    1      -37.595  68.058  21.627  0.00  0.00    +0.093 A 
ATOM     23  N   LIG    1      -38.441  68.418  22.659  0.00  0.00    -0.227 NA
BRANCH  17  24
ATOM     24  C   LIG    1      -33.222  66.197  17.832  0.00  0.00    +0.079 C 
ATOM     25  C   LIG    1      -32.219  65.274  18.528  0.00  0.00    +0.038 C 
ATOM     26  C   LIG    1      -31.252  66.011  19.455  0.00  0.00    +0.086 C 
ATOM     27  N   LIG    1      -30.629  67.213  18.891  0.00  0.00    -0.305 NA
ATOM     28  C   LIG    1      -29.518  66.905  17.996  0.00  0.00    +0.104 C 
ATOM     29  C   LIG    1      -31.598  68.113  18.266  0.00  0.00    +0.086 C 
ATOM     30  C   LIG    1      -32.531  67.438  17.261  0.00  0.00    +0.038 C 
ENDBRANCH  17  24
ENDBRANCH   8   9
BRANCH   1  31
ATOM     31  N   LIG    1      -39.703  70.259  24.846  0.00  0.00    -0.340 N 
ATOM     32  H   LIG    1      -38.838  69.890  24.434  0.00  0.00    +0.146 HD
BRANCH  31  34
ATOM     33  C   LIG    1      -38.504  71.235  26.718  0.00  0.00    +0.028 C 
ATOM     34  C   LIG    1      -39.387  71.551  25.510  0.00  0.00    +0.072 C 
BRANCH  34  35
ATOM     35  C   LIG    1      -38.690  72.506  24.516  0.00  0.00    +0.063 C 
BRANCH  35  36
ATOM     36  C   LIG    1      -39.184  73.924  24.481  0.00  0.00    +0.030 A 
ATOM     37  C   LIG    1      -38.519  74.937  25.176  0.00  0.00    +0.165 A 
ATOM     38  F   LIG    1      -37.418  74.647  25.884  0.00  0.00    -0.202 F 
ATOM     39  C   LIG    1      -38.992  76.248  25.153  0.00  0.00    +0.162 A 
ATOM     40  F   LIG    1      -38.346  77.205  25.833  0.00  0.00    -0.202 F 
ATOM     41  C   LIG    1      -40.131  76.580  24.430  0.00  0.00    +0.082 A 
ATOM     42  C   LIG    1      -40.800  75.578  23.740  0.00  0.00    +0.162 A 
ATOM     43  F   LIG    1      -41.897  75.884  23.035  0.00  0.00    -0.202 F 
ATOM     44  C   LIG    1      -40.339  74.263  23.772  0.00  0.00    +0.165 A 
ATOM     45  F   LIG    1      -41.011  73.314  23.106  0.00  0.00    -0.202 F 
ENDBRANCH  35  36
ENDBRANCH  34  35
ENDBRANCH  31  34
ENDBRANCH   1  31
TORSDOF 6
ENDMDL
MODEL 6
REMARK VINA RESULT:      -7.0      6.324     10.240
REMARK  Name = pdb/CHEMBL3671320.pdb
REMARK                            x       y       z     vdW  Elec       q    Type
REMARK                         _______ _______ _______ _____ _____    ______ ____
ROOT
ATOM      1  C   LIG    1      -36.502  73.145  27.358  0.00  0.00    +0.045 A 
ATOM      2  C   LIG    1      -35.275  72.609  27.944  0.00  0.00    +0.041 A 
ATOM      3  C   LIG    1      -34.600  71.604  27.377  0.00  0.00    +0.088 A 
ATOM      4  N   LIG    1      -35.069  71.034  26.234  0.00  0.00    -0.328 N 
ATOM      5  H   LIG    1      -34.579  70.258  25.804  0.00  0.00    +0.168 HD
ATOM      6  C   LIG    1      -36.206  71.443  25.597  0.00  0.00    +0.261 A 
ATOM      7  O   LIG    1      -36.582  70.859  24.578  0.00  0.00    -0.267 OA
ATOM      8  C   LIG    1      -36.957  72.623  26.187  0.00  0.00    +0.102 A 
ENDROOT
BRANCH   8   9
ATOM      9  C   LIG    1      -38.112  73.126  25.500  0.00  0.00    +0.146 A 
ATOM     10  N   LIG    1      -39.038  72.216  25.040  0.00  0.00    -0.338 N 
ATOM     11  H   LIG    1      -38.970  71.212  25.169  0.00  0.00    +0.167 HD
ATOM     12  C   LIG    1      -40.013  72.861  24.339  0.00  0.00    +0.067 A 
ATOM     13  C   LIG    1      -41.095  72.362  23.621  0.00  0.00    +0.041 A 
ATOM     14  C   LIG    1      -41.894  73.343  23.072  0.00  0.00    +0.044 A 
ATOM     15  C   LIG    1      -43.131  73.165  22.312  0.00  0.00    +0.248 C 
ATOM     16  O   LIG    1      -43.602  72.072  22.009  0.00  0.00    -0.270 OA
ATOM     17  N   LIG    1      -43.640  74.423  22.055  0.00  0.00    -0.290 N 
ATOM     18  C   LIG    1      -42.774  75.468  22.589  0.00  0.00    +0.144 C 
ATOM     19  C   LIG    1      -41.660  74.708  23.230  0.00  0.00    -0.013 A 
ATOM     20  C   LIG    1      -40.553  75.200  23.938  0.00  0.00    -0.018 A 
ATOM     21  C   LIG    1      -40.318  76.674  24.076  0.00  0.00    +0.046 C 
ATOM     22  C   LIG    1      -39.702  74.211  24.485  0.00  0.00    +0.093 A 
ATOM     23  N   LIG    1      -38.513  74.347  25.176  0.00  0.00    -0.227 NA
BRANCH  17  24
ATOM     24  C   LIG    1      -44.987  74.643  21.506  0.00  0.00    +0.079 C 
ATOM     25  C   LIG    1      -45.103  74.387  20.003  0.00  0.00    +0.038 C 
ATOM     26  C   LIG    1      -44.684  75.581  19.144  0.00  0.00    +0.086 C 
ATOM     27  N   LIG    1      -45.241  76.875  19.549  0.00  0.00    -0.305 NA
ATOM     28  C   LIG    1      -46.620  77.058  19.109  0.00  0.00    +0.104 C 
ATOM     29  C   LIG    1      -45.087  77.135  20.981  0.00  0.00    +0.086 C 
ATOM     30  C   LIG    1      -45.577  76.004  21.885  0.00  0.00    +0.038 C 
ENDBRANCH  17  24
ENDBRANCH   8   9
BRANCH   1  31
ATOM     31  N   LIG    1      -37.028  74.230  28.068  0.00  0.00    -0.340 N 
ATOM     32  H   LIG    1      -36.847  74.094  29.069  0.00  0.00    +0.146 HD
BRANCH  31  34
ATOM     33  C   LIG    1      -37.917  76.475  27.807  0.00  0.00    +0.028 C 
ATOM     34  C   LIG    1      -36.649  75.624  27.713  0.00  0.00    +0.072 C 
BRANCH  34  35
ATOM     35  C   LIG    1      -35.539  76.134  28.659  0.00  0.00    +0.063 C 
BRANCH  35  36
ATOM     36  C   LIG    1      -34.600  77.166  28.105  0.00  0.00    +0.030 A 
ATOM     37  C   LIG    1      -33.513  76.799  27.308  0.00  0.00    +0.165 A 
ATOM     38  F   LIG    1      -33.303  75.505  27.024  0.00  0.00    -0.202 F 
ATOM     39  C   LIG    1      -32.635  77.761  26.810  0.00  0.00    +0.162 A 
ATOM     40  F   LIG    1      -31.594  77.389  26.054  0.00  0.00    -0.202 F 
ATOM     41  C   LIG    1      -32.825  79.109  27.089  0.00  0.00    +0.082 A 
ATOM     42  C   LIG    1      -33.901  79.481  27.884  0.00  0.00    +0.162 A 
ATOM     43  F   LIG    1      -34.099  80.777  28.157  0.00  0.00    -0.202 F 
ATOM     44  C   LIG    1      -34.772  78.522  28.396  0.00  0.00    +0.165 A 
ATOM     45  F   LIG    1      -35.795  78.909  29.171  0.00  0.00    -0.202 F 
ENDBRANCH  35  36
ENDBRANCH  34  35
ENDBRANCH  31  34
ENDBRANCH   1  31
TORSDOF 6
ENDMDL
MODEL 7
REMARK VINA RESULT:      -7.0      4.419      7.930
REMARK  Name = pdb/CHEMBL3671320.pdb
REMARK                            x       y       z     vdW  Elec       q    Type
REMARK                         _______ _______ _______ _____ _____    ______ ____
ROOT
ATOM      1  C   LIG    1      -38.195  77.384  26.109  0.00  0.00    +0.045 A 
ATOM      2  C   LIG    1      -38.315  78.794  26.476  0.00  0.00    +0.041 A 
ATOM      3  C   LIG    1      -39.307  79.563  26.019  0.00  0.00    +0.088 A 
ATOM      4  N   LIG    1      -40.228  79.042  25.163  0.00  0.00    -0.328 N 
ATOM      5  H   LIG    1      -40.974  79.617  24.791  0.00  0.00    +0.168 HD
ATOM      6  C   LIG    1      -40.217  77.741  24.742  0.00  0.00    +0.261 A 
ATOM      7  O   LIG    1      -41.071  77.348  23.944  0.00  0.00    -0.267 OA
ATOM      8  C   LIG    1      -39.136  76.832  25.296  0.00  0.00    +0.102 A 
ENDROOT
BRANCH   8   9
ATOM      9  C   LIG    1      -39.142  75.443  24.933  0.00  0.00    +0.146 A 
ATOM     10  N   LIG    1      -40.215  74.968  24.212  0.00  0.00    -0.338 N 
ATOM     11  H   LIG    1      -40.995  75.537  23.901  0.00  0.00    +0.167 HD
ATOM     12  C   LIG    1      -40.096  73.621  24.039  0.00  0.00    +0.067 A 
ATOM     13  C   LIG    1      -40.966  72.702  23.460  0.00  0.00    +0.041 A 
ATOM     14  C   LIG    1      -40.472  71.415  23.434  0.00  0.00    +0.044 A 
ATOM     15  C   LIG    1      -41.100  70.229  22.853  0.00  0.00    +0.248 C 
ATOM     16  O   LIG    1      -42.217  70.221  22.343  0.00  0.00    -0.270 OA
ATOM     17  N   LIG    1      -40.199  69.188  22.968  0.00  0.00    -0.290 N 
ATOM     18  C   LIG    1      -38.976  69.613  23.640  0.00  0.00    +0.144 C 
ATOM     19  C   LIG    1      -39.215  71.059  23.923  0.00  0.00    -0.013 A 
ATOM     20  C   LIG    1      -38.355  71.991  24.524  0.00  0.00    -0.018 A 
ATOM     21  C   LIG    1      -37.016  71.577  25.054  0.00  0.00    +0.046 C 
ATOM     22  C   LIG    1      -38.854  73.314  24.588  0.00  0.00    +0.093 A 
ATOM     23  N   LIG    1      -38.300  74.444  25.160  0.00  0.00    -0.227 NA
BRANCH  17  24
ATOM     24  C   LIG    1      -40.385  67.892  22.298  0.00  0.00    +0.079 C 
ATOM     25  C   LIG    1      -39.606  66.738  22.932  0.00  0.00    +0.038 C 
ATOM     26  C   LIG    1      -38.156  66.645  22.455  0.00  0.00    +0.086 C 
ATOM     27  N   LIG    1      -37.962  66.739  21.005  0.00  0.00    -0.305 NA
ATOM     28  C   LIG    1      -38.257  65.489  20.314  0.00  0.00    +0.104 C 
ATOM     29  C   LIG    1      -38.673  67.870  20.410  0.00  0.00    +0.086 C 
ATOM     30  C   LIG    1      -40.153  67.955  20.786  0.00  0.00    +0.038 C 
ENDBRANCH  17  24
ENDBRANCH   8   9
BRANCH   1  31
ATOM     31  N   LIG    1      -37.124  76.736  26.734  0.00  0.00    -0.340 N 
ATOM     32  H   LIG    1      -36.244  77.154  26.409  0.00  0.00    +0.146 HD
BRANCH  31  34
ATOM     33  C   LIG    1      -37.913  75.416  28.613  0.00  0.00    +0.028 C 
ATOM     34  C   LIG    1      -37.065  76.625  28.216  0.00  0.00    +0.072 C 
BRANCH  34  35
ATOM     35  C   LIG    1      -35.599  76.483  28.683  0.00  0.00    +0.063 C 
BRANCH  35  36
ATOM     36  C   LIG    1      -34.600  77.422  28.071  0.00  0.00    +0.030 A 
ATOM     37  C   LIG    1      -33.515  76.942  27.334  0.00  0.00    +0.165 A 
ATOM     38  F   LIG    1      -33.360  75.621  27.163  0.00  0.00    -0.202 F 
ATOM     39  C   LIG    1      -32.582  77.818  26.782  0.00  0.00    +0.162 A 
ATOM     40  F   LIG    1      -31.543  77.338  26.086  0.00  0.00    -0.202 F 
ATOM     41  C   LIG    1      -32.714  79.192  26.945  0.00  0.00    +0.082 A 
ATOM     42  C   LIG    1      -33.788  79.677  27.679  0.00  0.00    +0.162 A 
ATOM     43  F   LIG    1      -33.931  80.999  27.840  0.00  0.00    -0.202 F 
ATOM     44  C   LIG    1      -34.715  78.804  28.245  0.00  0.00    +0.165 A 
ATOM     45  F   LIG    1      -35.735  79.300  28.959  0.00  0.00    -0.202 F 
ENDBRANCH  35  36
ENDBRANCH  34  35
ENDBRANCH  31  34
ENDBRANCH   1  31
TORSDOF 6
ENDMDL
MODEL 8
REMARK VINA RESULT:      -6.8     18.357     22.358
REMARK  Name = pdb/CHEMBL3671320.pdb
REMARK                            x       y       z     vdW  Elec       q    Type
REMARK                         _______ _______ _______ _____ _____    ______ ____
ROOT
ATOM      1  C   LIG    1      -21.412  86.849  12.829  0.00  0.00    +0.045 A 
ATOM      2  C   LIG    1      -21.351  88.310  12.826  0.00  0.00    +0.041 A 
ATOM      3  C   LIG    1      -21.579  89.030  13.928  0.00  0.00    +0.088 A 
ATOM      4  N   LIG    1      -21.905  88.403  15.092  0.00  0.00    -0.328 N 
ATOM      5  H   LIG    1      -22.100  88.936  15.931  0.00  0.00    +0.168 HD
ATOM      6  C   LIG    1      -21.999  87.045  15.217  0.00  0.00    +0.261 A 
ATOM      7  O   LIG    1      -22.325  86.551  16.298  0.00  0.00    -0.267 OA
ATOM      8  C   LIG    1      -21.684  86.202  13.995  0.00  0.00    +0.102 A 
ENDROOT
BRANCH   8   9
ATOM      9  C   LIG    1      -21.699  84.772  14.113  0.00  0.00    +0.146 A 
ATOM     10  N   LIG    1      -22.856  84.173  14.559  0.00  0.00    -0.338 N 
ATOM     11  H   LIG    1      -23.709  84.671  14.792  0.00  0.00    +0.167 HD
ATOM     12  C   LIG    1      -22.660  82.831  14.695  0.00  0.00    +0.067 A 
ATOM     13  C   LIG    1      -23.498  81.837  15.193  0.00  0.00    +0.041 A 
ATOM     14  C   LIG    1      -22.952  80.573  15.133  0.00  0.00    +0.044 A 
ATOM     15  C   LIG    1      -23.581  79.310  15.518  0.00  0.00    +0.248 C 
ATOM     16  O   LIG    1      -24.701  79.221  16.014  0.00  0.00    -0.270 OA
ATOM     17  N   LIG    1      -22.703  78.295  15.188  0.00  0.00    -0.290 N 
ATOM     18  C   LIG    1      -21.470  78.824  14.614  0.00  0.00    +0.144 C 
ATOM     19  C   LIG    1      -21.688  80.300  14.610  0.00  0.00    -0.013 A 
ATOM     20  C   LIG    1      -20.843  81.313  14.131  0.00  0.00    -0.018 A 
ATOM     21  C   LIG    1      -19.483  80.991  13.590  0.00  0.00    +0.046 C 
ATOM     22  C   LIG    1      -21.371  82.623  14.210  0.00  0.00    +0.093 A 
ATOM     23  N   LIG    1      -20.790  83.835  13.887  0.00  0.00    -0.227 NA
BRANCH  17  24
ATOM     24  C   LIG    1      -23.076  76.873  15.221  0.00  0.00    +0.079 C 
ATOM     25  C   LIG    1      -21.887  75.912  15.267  0.00  0.00    +0.038 C 
ATOM     26  C   LIG    1      -21.294  75.606  13.892  0.00  0.00    +0.086 C 
ATOM     27  N   LIG    1      -22.266  75.265  12.848  0.00  0.00    -0.305 NA
ATOM     28  C   LIG    1      -22.733  73.886  12.940  0.00  0.00    +0.104 C 
ATOM     29  C   LIG    1      -23.378  76.213  12.778  0.00  0.00    +0.086 C 
ATOM     30  C   LIG    1      -24.063  76.484  14.118  0.00  0.00    +0.038 C 
ENDBRANCH  17  24
ENDBRANCH   8   9
BRANCH   1  31
ATOM     31  N   LIG    1      -21.088  86.277  11.594  0.00  0.00    -0.340 N 
ATOM     32  H   LIG    1      -20.465  85.477  11.750  0.00  0.00    +0.146 HD
BRANCH  31  34
ATOM     33  C   LIG    1      -22.034  86.743   9.406  0.00  0.00    +0.028 C 
ATOM     34  C   LIG    1      -22.156  85.858  10.648  0.00  0.00    +0.072 C 
BRANCH  34  35
ATOM     35  C   LIG    1      -22.009  84.358  10.306  0.00  0.00    +0.063 C 
BRANCH  35  36
ATOM     36  C   LIG    1      -23.057  83.433  10.856  0.00  0.00    +0.030 A 
ATOM     37  C   LIG    1      -24.324  83.906  11.205  0.00  0.00    +0.165 A 
ATOM     38  F   LIG    1      -24.619  85.204  11.043  0.00  0.00    -0.202 F 
ATOM     39  C   LIG    1      -25.287  83.045  11.730  0.00  0.00    +0.162 A 
ATOM     40  F   LIG    1      -26.494  83.518  12.066  0.00  0.00    -0.202 F 
ATOM     41  C   LIG    1      -25.011  81.695  11.911  0.00  0.00    +0.082 A 
ATOM     42  C   LIG    1      -23.752  81.219  11.570  0.00  0.00    +0.162 A 
ATOM     43  F   LIG    1      -23.474  79.919  11.735  0.00  0.00    -0.202 F 
ATOM     44  C   LIG    1      -22.782  82.078  11.059  0.00  0.00    +0.165 A 
ATOM     45  F   LIG    1      -21.571  81.594  10.750  0.00  0.00    -0.202 F 
ENDBRANCH  35  36
ENDBRANCH  34  35
ENDBRANCH  31  34
ENDBRANCH   1  31
TORSDOF 6
ENDMDL
MODEL 9
REMARK VINA RESULT:      -6.7      4.617      8.311
REMARK  Name = pdb/CHEMBL3671320.pdb
REMARK                            x       y       z     vdW  Elec       q    Type
REMARK                         _______ _______ _______ _____ _____    ______ ____
ROOT
ATOM      1  C   LIG    1      -38.146  77.611  26.729  0.00  0.00    +0.045 A 
ATOM      2  C   LIG    1      -38.234  79.036  27.045  0.00  0.00    +0.041 A 
ATOM      3  C   LIG    1      -38.844  79.905  26.234  0.00  0.00    +0.088 A 
ATOM      4  N   LIG    1      -39.382  79.473  25.061  0.00  0.00    -0.328 N 
ATOM      5  H   LIG    1      -39.830  80.123  24.426  0.00  0.00    +0.168 HD
ATOM      6  C   LIG    1      -39.357  78.169  24.653  0.00  0.00    +0.261 A 
ATOM      7  O   LIG    1      -39.843  77.858  23.564  0.00  0.00    -0.267 OA
ATOM      8  C   LIG    1      -38.724  77.152  25.586  0.00  0.00    +0.102 A 
ENDROOT
BRANCH   8   9
ATOM      9  C   LIG    1      -38.750  75.764  25.222  0.00  0.00    +0.146 A 
ATOM     10  N   LIG    1      -39.816  75.311  24.478  0.00  0.00    -0.338 N 
ATOM     11  H   LIG    1      -40.579  75.895  24.151  0.00  0.00    +0.167 HD
ATOM     12  C   LIG    1      -39.721  73.962  24.306  0.00  0.00    +0.067 A 
ATOM     13  C   LIG    1      -40.595  73.060  23.708  0.00  0.00    +0.041 A 
ATOM     14  C   LIG    1      -40.126  71.763  23.692  0.00  0.00    +0.044 A 
ATOM     15  C   LIG    1      -40.765  70.590  23.096  0.00  0.00    +0.248 C 
ATOM     16  O   LIG    1      -41.871  70.605  22.562  0.00  0.00    -0.270 OA
ATOM     17  N   LIG    1      -39.887  69.532  23.229  0.00  0.00    -0.290 N 
ATOM     18  C   LIG    1      -38.671  69.933  23.928  0.00  0.00    +0.144 C 
ATOM     19  C   LIG    1      -38.887  71.383  24.206  0.00  0.00    -0.013 A 
ATOM     20  C   LIG    1      -38.022  72.298  24.827  0.00  0.00    -0.018 A 
ATOM     21  C   LIG    1      -36.703  71.857  25.385  0.00  0.00    +0.046 C 
ATOM     22  C   LIG    1      -38.496  73.630  24.881  0.00  0.00    +0.093 A 
ATOM     23  N   LIG    1      -37.933  74.749  25.466  0.00  0.00    -0.227 NA
BRANCH  17  24
ATOM     24  C   LIG    1      -40.084  68.240  22.555  0.00  0.00    +0.079 C 
ATOM     25  C   LIG    1      -39.300  67.081  23.172  0.00  0.00    +0.038 C 
ATOM     26  C   LIG    1      -37.856  66.988  22.677  0.00  0.00    +0.086 C 
ATOM     27  N   LIG    1      -37.680  67.090  21.224  0.00  0.00    -0.305 NA
ATOM     28  C   LIG    1      -37.986  65.844  20.530  0.00  0.00    +0.104 C 
ATOM     29  C   LIG    1      -38.396  68.226  20.645  0.00  0.00    +0.086 C 
ATOM     30  C   LIG    1      -39.871  68.312  21.040  0.00  0.00    +0.038 C 
ENDBRANCH  17  24
ENDBRANCH   8   9
BRANCH   1  31
ATOM     31  N   LIG    1      -37.520  76.858  27.728  0.00  0.00    -0.340 N 
ATOM     32  H   LIG    1      -37.549  75.866  27.466  0.00  0.00    +0.146 HD
BRANCH  31  34
ATOM     33  C   LIG    1      -36.028  76.789  29.643  0.00  0.00    +0.028 C 
ATOM     34  C   LIG    1      -36.137  77.182  28.169  0.00  0.00    +0.072 C 
BRANCH  34  35
ATOM     35  C   LIG    1      -35.108  76.434  27.293  0.00  0.00    +0.063 C 
BRANCH  35  36
ATOM     36  C   LIG    1      -33.993  75.729  28.011  0.00  0.00    +0.030 A 
ATOM     37  C   LIG    1      -32.870  76.427  28.462  0.00  0.00    +0.165 A 
ATOM     38  F   LIG    1      -32.782  77.750  28.258  0.00  0.00    -0.202 F 
ATOM     39  C   LIG    1      -31.831  75.764  29.114  0.00  0.00    +0.162 A 
ATOM     40  F   LIG    1      -30.759  76.449  29.531  0.00  0.00    -0.202 F 
ATOM     41  C   LIG    1      -31.893  74.394  29.338  0.00  0.00    +0.082 A 
ATOM     42  C   LIG    1      -33.004  73.693  28.889  0.00  0.00    +0.162 A 
ATOM     43  F   LIG    1      -33.078  72.373  29.103  0.00  0.00    -0.202 F 
ATOM     44  C   LIG    1      -34.038  74.349  28.224  0.00  0.00    +0.165 A 
ATOM     45  F   LIG    1      -35.093  73.645  27.792  0.00  0.00    -0.202 F 
ENDBRANCH  35  36
ENDBRANCH  34  35
ENDBRANCH  31  34
ENDBRANCH   1  31
TORSDOF 6
ENDMDL
