MODEL 1
REMARK VINA RESULT:      -5.1      0.000      0.000
REMARK  Name = pdb/CHEMBL3676019.pdb
REMARK                            x       y       z     vdW  Elec       q    Type
REMARK                         _______ _______ _______ _____ _____    ______ ____
ROOT
ATOM      1  C   LIG    1      -23.663  79.559  34.847  0.00  0.00    +0.126 A 
ATOM      2  N   LIG    1      -23.742  78.959  33.677  0.00  0.00    -0.212 NA
ATOM      3  C   LIG    1      -24.863  78.217  33.399  0.00  0.00    +0.170 A 
ATOM      4  C   LIG    1      -25.261  77.516  32.272  0.00  0.00    +0.100 A 
ATOM      5  C   LIG    1      -26.515  76.969  32.619  0.00  0.00    +0.150 A 
ATOM      6  N   LIG    1      -26.899  77.280  33.856  0.00  0.00    -0.173 NA
ATOM      7  N   LIG    1      -25.902  78.068  34.321  0.00  0.00    -0.221 N 
ATOM      8  C   LIG    1      -25.840  78.698  35.550  0.00  0.00    +0.118 A 
ATOM      9  C   LIG    1      -24.784  79.454  35.862  0.00  0.00    +0.063 A 
ENDROOT
BRANCH   1  11
ATOM     10  C   LIG    1      -21.335  79.744  35.833  0.00  0.00    +0.110 C 
ATOM     11  N   LIG    1      -22.536  80.308  35.172  0.00  0.00    -0.308 N 
ATOM     12  C   LIG    1      -22.574  81.760  35.341  0.00  0.00    +0.107 C 
ATOM     13  C   LIG    1      -21.534  82.071  36.402  0.00  0.00    +0.021 C 
ATOM     14  C   LIG    1      -20.496  80.987  36.195  0.00  0.00    +0.029 C 
BRANCH  10  16
ATOM     15  C   LIG    1      -20.620  77.427  35.084  0.00  0.00    +0.220 A 
ATOM     16  C   LIG    1      -20.521  78.819  34.957  0.00  0.00    +0.037 A 
ATOM     17  C   LIG    1      -19.584  79.305  34.030  0.00  0.00    +0.050 A 
ATOM     18  C   LIG    1      -18.846  78.416  33.263  0.00  0.00    +0.142 A 
ATOM     19  F   LIG    1      -17.965  78.869  32.364  0.00  0.00    -0.204 F 
ATOM     20  C   LIG    1      -19.031  77.061  33.449  0.00  0.00    +0.153 A 
ATOM     21  N   LIG    1      -19.890  76.546  34.357  0.00  0.00    -0.218 NA
BRANCH  15  23
ATOM     22  C   LIG    1      -22.468  76.034  35.459  0.00  0.00    +0.279 C 
ATOM     23  O   LIG    1      -21.507  76.928  36.019  0.00  0.00    -0.479 OA
ENDBRANCH  15  23
ENDBRANCH  10  16
ENDBRANCH   1  11
BRANCH   4  24
ATOM     24  C   LIG    1      -24.573  77.377  31.008  0.00  0.00    +0.249 C 
ATOM     25  N   LIG    1      -23.211  77.519  31.068  0.00  0.00    -0.311 N 
ATOM     26  H   LIG    1      -22.809  77.730  31.982  0.00  0.00    +0.149 HD
ATOM     27  O   LIG    1      -25.187  77.129  29.963  0.00  0.00    -0.270 OA
BRANCH  25  28
ATOM     28  C   LIG    1      -22.353  77.509  29.902  0.00  0.00    +0.107 C 
BRANCH  28  29
ATOM     29  C   LIG    1      -20.914  77.110  30.232  0.00  0.00    +0.046 C 
BRANCH  29  30
ATOM     30  C   LIG    1      -20.809  75.651  30.652  0.00  0.00    +0.157 C 
BRANCH  30  31
ATOM     31  O   LIG    1      -21.505  75.441  31.876  0.00  0.00    -0.395 OA
ATOM     32  H   LIG    1      -20.876  75.054  32.508  0.00  0.00    +0.209 HD
ENDBRANCH  30  31
ENDBRANCH  29  30
ENDBRANCH  28  29
ENDBRANCH  25  28
ENDBRANCH   4  24
TORSDOF 8
ENDMDL
MODEL 2
REMARK VINA RESULT:      -4.9      2.337      4.860
REMARK  Name = pdb/CHEMBL3676019.pdb
REMARK                            x       y       z     vdW  Elec       q    Type
REMARK                         _______ _______ _______ _____ _____    ______ ____
ROOT
ATOM      1  C   LIG    1      -20.558  78.940  33.711  0.00  0.00    +0.126 A 
ATOM      2  N   LIG    1      -21.081  78.262  32.710  0.00  0.00    -0.212 NA
ATOM      3  C   LIG    1      -20.231  77.669  31.808  0.00  0.00    +0.170 A 
ATOM      4  C   LIG    1      -20.459  76.871  30.699  0.00  0.00    +0.100 A 
ATOM      5  C   LIG    1      -19.170  76.584  30.200  0.00  0.00    +0.150 A 
ATOM      6  N   LIG    1      -18.193  77.143  30.912  0.00  0.00    -0.173 NA
ATOM      7  N   LIG    1      -18.843  77.781  31.914  0.00  0.00    -0.221 N 
ATOM      8  C   LIG    1      -18.277  78.481  32.962  0.00  0.00    +0.118 A 
ATOM      9  C   LIG    1      -19.056  79.055  33.883  0.00  0.00    +0.063 A 
ENDROOT
BRANCH   1  11
ATOM     10  C   LIG    1      -22.835  79.286  34.770  0.00  0.00    +0.110 C 
ATOM     11  N   LIG    1      -21.386  79.568  34.636  0.00  0.00    -0.308 N 
ATOM     12  C   LIG    1      -21.063  80.863  35.234  0.00  0.00    +0.107 C 
ATOM     13  C   LIG    1      -22.400  81.545  35.466  0.00  0.00    +0.021 C 
ATOM     14  C   LIG    1      -23.336  80.385  35.729  0.00  0.00    +0.029 C 
BRANCH  10  16
ATOM     15  C   LIG    1      -24.382  77.302  35.097  0.00  0.00    +0.220 A 
ATOM     16  C   LIG    1      -23.152  77.924  35.345  0.00  0.00    +0.037 A 
ATOM     17  C   LIG    1      -22.265  77.254  36.203  0.00  0.00    +0.050 A 
ATOM     18  C   LIG    1      -22.609  76.015  36.722  0.00  0.00    +0.142 A 
ATOM     19  F   LIG    1      -21.764  75.361  37.526  0.00  0.00    -0.204 F 
ATOM     20  C   LIG    1      -23.839  75.476  36.402  0.00  0.00    +0.153 A 
ATOM     21  N   LIG    1      -24.742  76.101  35.614  0.00  0.00    -0.218 NA
BRANCH  15  23
ATOM     22  C   LIG    1      -26.634  77.540  34.489  0.00  0.00    +0.279 C 
ATOM     23  O   LIG    1      -25.286  77.962  34.286  0.00  0.00    -0.479 OA
ENDBRANCH  15  23
ENDBRANCH  10  16
ENDBRANCH   1  11
BRANCH   4  24
ATOM     24  C   LIG    1      -21.720  76.410  30.165  0.00  0.00    +0.249 C 
ATOM     25  N   LIG    1      -22.574  75.857  31.083  0.00  0.00    -0.311 N 
ATOM     26  H   LIG    1      -22.241  75.800  32.047  0.00  0.00    +0.149 HD
ATOM     27  O   LIG    1      -21.996  76.530  28.965  0.00  0.00    -0.270 OA
BRANCH  25  28
ATOM     28  C   LIG    1      -23.843  75.253  30.736  0.00  0.00    +0.107 C 
BRANCH  28  29
ATOM     29  C   LIG    1      -25.029  75.948  31.402  0.00  0.00    +0.046 C 
BRANCH  29  30
ATOM     30  C   LIG    1      -25.241  77.356  30.864  0.00  0.00    +0.157 C 
BRANCH  30  31
ATOM     31  O   LIG    1      -24.958  77.396  29.470  0.00  0.00    -0.395 OA
ATOM     32  H   LIG    1      -25.125  78.303  29.162  0.00  0.00    +0.209 HD
ENDBRANCH  30  31
ENDBRANCH  29  30
ENDBRANCH  28  29
ENDBRANCH  25  28
ENDBRANCH   4  24
TORSDOF 8
ENDMDL
MODEL 3
REMARK VINA RESULT:      -4.8     18.439     21.741
REMARK  Name = pdb/CHEMBL3676019.pdb
REMARK                            x       y       z     vdW  Elec       q    Type
REMARK                         _______ _______ _______ _____ _____    ______ ____
ROOT
ATOM      1  C   LIG    1      -20.185  82.032  14.123  0.00  0.00    +0.126 A 
ATOM      2  N   LIG    1      -20.085  83.345  14.149  0.00  0.00    -0.212 NA
ATOM      3  C   LIG    1      -19.038  83.932  13.481  0.00  0.00    +0.170 A 
ATOM      4  C   LIG    1      -18.684  85.258  13.286  0.00  0.00    +0.100 A 
ATOM      5  C   LIG    1      -17.505  85.198  12.511  0.00  0.00    +0.150 A 
ATOM      6  N   LIG    1      -17.123  83.954  12.230  0.00  0.00    -0.173 NA
ATOM      7  N   LIG    1      -18.079  83.181  12.798  0.00  0.00    -0.221 N 
ATOM      8  C   LIG    1      -18.174  81.803  12.753  0.00  0.00    +0.118 A 
ATOM      9  C   LIG    1      -19.186  81.182  13.363  0.00  0.00    +0.063 A 
ENDROOT
BRANCH   1  11
ATOM     10  C   LIG    1      -22.653  81.549  14.444  0.00  0.00    +0.110 C 
ATOM     11  N   LIG    1      -21.222  81.399  14.801  0.00  0.00    -0.308 N 
ATOM     12  C   LIG    1      -21.090  80.918  16.176  0.00  0.00    +0.107 C 
ATOM     13  C   LIG    1      -22.469  81.073  16.792  0.00  0.00    +0.021 C 
ATOM     14  C   LIG    1      -23.397  80.872  15.613  0.00  0.00    +0.029 C 
BRANCH  10  16
ATOM     15  C   LIG    1      -23.676  81.606  12.122  0.00  0.00    +0.220 A 
ATOM     16  C   LIG    1      -23.040  80.885  13.141  0.00  0.00    +0.037 A 
ATOM     17  C   LIG    1      -22.846  79.512  12.920  0.00  0.00    +0.050 A 
ATOM     18  C   LIG    1      -23.237  78.945  11.716  0.00  0.00    +0.142 A 
ATOM     19  F   LIG    1      -23.039  77.642  11.488  0.00  0.00    -0.204 F 
ATOM     20  C   LIG    1      -23.838  79.745  10.766  0.00  0.00    +0.153 A 
ATOM     21  N   LIG    1      -24.083  81.062  10.949  0.00  0.00    -0.218 NA
BRANCH  15  23
ATOM     22  C   LIG    1      -25.119  83.412  11.728  0.00  0.00    +0.279 C 
ATOM     23  O   LIG    1      -23.913  82.951  12.336  0.00  0.00    -0.479 OA
ENDBRANCH  15  23
ENDBRANCH  10  16
ENDBRANCH   1  11
BRANCH   4  24
ATOM     24  C   LIG    1      -19.362  86.449  13.745  0.00  0.00    +0.249 C 
ATOM     25  N   LIG    1      -20.451  86.226  14.546  0.00  0.00    -0.311 N 
ATOM     26  H   LIG    1      -20.699  85.253  14.728  0.00  0.00    +0.149 HD
ATOM     27  O   LIG    1      -18.961  87.579  13.439  0.00  0.00    -0.270 OA
BRANCH  25  28
ATOM     28  C   LIG    1      -21.318  87.279  15.031  0.00  0.00    +0.107 C 
BRANCH  28  29
ATOM     29  C   LIG    1      -22.628  87.373  14.248  0.00  0.00    +0.046 C 
BRANCH  29  30
ATOM     30  C   LIG    1      -22.892  86.119  13.427  0.00  0.00    +0.157 C 
BRANCH  30  31
ATOM     31  O   LIG    1      -22.947  84.979  14.276  0.00  0.00    -0.395 OA
ATOM     32  H   LIG    1      -23.147  84.207  13.719  0.00  0.00    +0.209 HD
ENDBRANCH  30  31
ENDBRANCH  29  30
ENDBRANCH  28  29
ENDBRANCH  25  28
ENDBRANCH   4  24
TORSDOF 8
ENDMDL
MODEL 4
REMARK VINA RESULT:      -4.8     13.624     17.528
REMARK  Name = pdb/CHEMBL3676019.pdb
REMARK                            x       y       z     vdW  Elec       q    Type
REMARK                         _______ _______ _______ _____ _____    ______ ____
ROOT
ATOM      1  C   LIG    1      -39.380  78.594  27.225  0.00  0.00    +0.126 A 
ATOM      2  N   LIG    1      -38.221  79.038  27.665  0.00  0.00    -0.212 NA
ATOM      3  C   LIG    1      -37.945  78.925  29.007  0.00  0.00    +0.170 A 
ATOM      4  C   LIG    1      -36.827  79.248  29.759  0.00  0.00    +0.100 A 
ATOM      5  C   LIG    1      -37.172  78.885  31.078  0.00  0.00    +0.150 A 
ATOM      6  N   LIG    1      -38.399  78.377  31.180  0.00  0.00    -0.173 NA
ATOM      7  N   LIG    1      -38.859  78.373  29.907  0.00  0.00    -0.221 N 
ATOM      8  C   LIG    1      -40.076  77.894  29.461  0.00  0.00    +0.118 A 
ATOM      9  C   LIG    1      -40.385  77.956  28.163  0.00  0.00    +0.063 A 
ENDROOT
BRANCH   1  11
ATOM     10  C   LIG    1      -38.893  78.116  24.784  0.00  0.00    +0.110 C 
ATOM     11  N   LIG    1      -39.702  78.706  25.876  0.00  0.00    -0.308 N 
ATOM     12  C   LIG    1      -40.561  79.769  25.355  0.00  0.00    +0.107 C 
ATOM     13  C   LIG    1      -40.042  80.059  23.958  0.00  0.00    +0.021 C 
ATOM     14  C   LIG    1      -39.510  78.716  23.504  0.00  0.00    +0.029 C 
BRANCH  10  16
ATOM     15  C   LIG    1      -37.869  75.823  25.150  0.00  0.00    +0.220 A 
ATOM     16  C   LIG    1      -38.947  76.607  24.716  0.00  0.00    +0.037 A 
ATOM     17  C   LIG    1      -40.040  75.926  24.158  0.00  0.00    +0.050 A 
ATOM     18  C   LIG    1      -40.035  74.541  24.099  0.00  0.00    +0.142 A 
ATOM     19  F   LIG    1      -41.080  73.882  23.586  0.00  0.00    -0.204 F 
ATOM     20  C   LIG    1      -38.933  73.857  24.571  0.00  0.00    +0.153 A 
ATOM     21  N   LIG    1      -37.840  74.470  25.080  0.00  0.00    -0.218 NA
BRANCH  15  23
ATOM     22  C   LIG    1      -36.380  75.993  26.953  0.00  0.00    +0.279 C 
ATOM     23  O   LIG    1      -36.766  76.475  25.667  0.00  0.00    -0.479 OA
ENDBRANCH  15  23
ENDBRANCH  10  16
ENDBRANCH   1  11
BRANCH   4  24
ATOM     24  C   LIG    1      -35.573  79.812  29.313  0.00  0.00    +0.249 C 
ATOM     25  N   LIG    1      -35.086  79.295  28.141  0.00  0.00    -0.311 N 
ATOM     26  H   LIG    1      -35.631  78.551  27.703  0.00  0.00    +0.149 HD
ATOM     27  O   LIG    1      -35.007  80.710  29.948  0.00  0.00    -0.270 OA
BRANCH  25  28
ATOM     28  C   LIG    1      -33.803  79.658  27.577  0.00  0.00    +0.107 C 
BRANCH  28  29
ATOM     29  C   LIG    1      -32.715  78.626  27.872  0.00  0.00    +0.046 C 
BRANCH  29  30
ATOM     30  C   LIG    1      -32.275  77.887  26.616  0.00  0.00    +0.157 C 
BRANCH  30  31
ATOM     31  O   LIG    1      -32.334  78.754  25.490  0.00  0.00    -0.395 OA
ATOM     32  H   LIG    1      -31.721  78.407  24.820  0.00  0.00    +0.209 HD
ENDBRANCH  30  31
ENDBRANCH  29  30
ENDBRANCH  28  29
ENDBRANCH  25  28
ENDBRANCH   4  24
TORSDOF 8
ENDMDL
MODEL 5
REMARK VINA RESULT:      -4.8     18.580     21.482
REMARK  Name = pdb/CHEMBL3676019.pdb
REMARK                            x       y       z     vdW  Elec       q    Type
REMARK                         _______ _______ _______ _____ _____    ______ ____
ROOT
ATOM      1  C   LIG    1      -22.415  85.311  12.590  0.00  0.00    +0.126 A 
ATOM      2  N   LIG    1      -22.871  84.267  13.251  0.00  0.00    -0.212 NA
ATOM      3  C   LIG    1      -23.397  83.220  12.534  0.00  0.00    +0.170 A 
ATOM      4  C   LIG    1      -23.907  81.990  12.919  0.00  0.00    +0.100 A 
ATOM      5  C   LIG    1      -24.285  81.370  11.709  0.00  0.00    +0.150 A 
ATOM      6  N   LIG    1      -24.048  82.122  10.636  0.00  0.00    -0.173 NA
ATOM      7  N   LIG    1      -23.476  83.241  11.140  0.00  0.00    -0.221 N 
ATOM      8  C   LIG    1      -22.995  84.325  10.430  0.00  0.00    +0.118 A 
ATOM      9  C   LIG    1      -22.448  85.359  11.075  0.00  0.00    +0.063 A 
ENDROOT
BRANCH   1  11
ATOM     10  C   LIG    1      -20.674  86.328  14.127  0.00  0.00    +0.110 C 
ATOM     11  N   LIG    1      -21.889  86.398  13.281  0.00  0.00    -0.308 N 
ATOM     12  C   LIG    1      -22.690  87.569  13.638  0.00  0.00    +0.107 C 
ATOM     13  C   LIG    1      -22.114  88.065  14.953  0.00  0.00    +0.021 C 
ATOM     14  C   LIG    1      -20.651  87.688  14.853  0.00  0.00    +0.029 C 
BRANCH  10  16
ATOM     15  C   LIG    1      -18.784  84.883  13.242  0.00  0.00    +0.220 A 
ATOM     16  C   LIG    1      -19.388  86.142  13.352  0.00  0.00    +0.037 A 
ATOM     17  C   LIG    1      -18.708  87.224  12.771  0.00  0.00    +0.050 A 
ATOM     18  C   LIG    1      -17.521  87.007  12.087  0.00  0.00    +0.142 A 
ATOM     19  F   LIG    1      -16.875  88.028  11.514  0.00  0.00    -0.204 F 
ATOM     20  C   LIG    1      -17.017  85.724  12.018  0.00  0.00    +0.153 A 
ATOM     21  N   LIG    1      -17.614  84.658  12.597  0.00  0.00    -0.218 NA
BRANCH  15  23
ATOM     22  C   LIG    1      -19.745  82.768  12.924  0.00  0.00    +0.279 C 
ATOM     23  O   LIG    1      -19.417  83.811  13.842  0.00  0.00    -0.479 OA
ENDBRANCH  15  23
ENDBRANCH  10  16
ENDBRANCH   1  11
BRANCH   4  24
ATOM     24  C   LIG    1      -24.020  81.439  14.250  0.00  0.00    +0.249 C 
ATOM     25  N   LIG    1      -22.994  81.757  15.102  0.00  0.00    -0.311 N 
ATOM     26  H   LIG    1      -22.239  82.329  14.721  0.00  0.00    +0.149 HD
ATOM     27  O   LIG    1      -24.990  80.746  14.582  0.00  0.00    -0.270 OA
BRANCH  25  28
ATOM     28  C   LIG    1      -22.873  81.229  16.444  0.00  0.00    +0.107 C 
BRANCH  28  29
ATOM     29  C   LIG    1      -21.748  80.204  16.576  0.00  0.00    +0.046 C 
BRANCH  29  30
ATOM     30  C   LIG    1      -20.452  80.695  15.945  0.00  0.00    +0.157 C 
BRANCH  30  31
ATOM     31  O   LIG    1      -20.250  82.070  16.248  0.00  0.00    -0.395 OA
ATOM     32  H   LIG    1      -20.543  82.587  15.478  0.00  0.00    +0.209 HD
ENDBRANCH  30  31
ENDBRANCH  29  30
ENDBRANCH  28  29
ENDBRANCH  25  28
ENDBRANCH   4  24
TORSDOF 8
ENDMDL
MODEL 6
REMARK VINA RESULT:      -4.7      2.454      6.214
REMARK  Name = pdb/CHEMBL3676019.pdb
REMARK                            x       y       z     vdW  Elec       q    Type
REMARK                         _______ _______ _______ _____ _____    ______ ____
ROOT
ATOM      1  C   LIG    1      -22.209  78.094  34.664  0.00  0.00    +0.126 A 
ATOM      2  N   LIG    1      -23.064  78.906  35.250  0.00  0.00    -0.212 NA
ATOM      3  C   LIG    1      -22.648  80.179  35.558  0.00  0.00    +0.170 A 
ATOM      4  C   LIG    1      -23.303  81.262  36.123  0.00  0.00    +0.100 A 
ATOM      5  C   LIG    1      -22.325  82.279  36.172  0.00  0.00    +0.150 A 
ATOM      6  N   LIG    1      -21.144  81.897  35.688  0.00  0.00    -0.173 NA
ATOM      7  N   LIG    1      -21.352  80.622  35.285  0.00  0.00    -0.221 N 
ATOM      8  C   LIG    1      -20.445  79.785  34.662  0.00  0.00    +0.118 A 
ATOM      9  C   LIG    1      -20.805  78.546  34.317  0.00  0.00    +0.063 A 
ENDROOT
BRANCH   1  11
ATOM     10  C   LIG    1      -23.826  76.448  33.611  0.00  0.00    +0.110 C 
ATOM     11  N   LIG    1      -22.588  76.791  34.351  0.00  0.00    -0.308 N 
ATOM     12  C   LIG    1      -22.097  75.627  35.088  0.00  0.00    +0.107 C 
ATOM     13  C   LIG    1      -23.234  74.621  35.056  0.00  0.00    +0.021 C 
ATOM     14  C   LIG    1      -23.916  74.914  33.736  0.00  0.00    +0.029 C 
BRANCH  10  16
ATOM     15  C   LIG    1      -24.938  77.386  31.532  0.00  0.00    +0.220 A 
ATOM     16  C   LIG    1      -23.806  76.840  32.151  0.00  0.00    +0.037 A 
ATOM     17  C   LIG    1      -22.685  76.615  31.336  0.00  0.00    +0.050 A 
ATOM     18  C   LIG    1      -22.721  76.973  29.997  0.00  0.00    +0.142 A 
ATOM     19  F   LIG    1      -21.653  76.779  29.216  0.00  0.00    -0.204 F 
ATOM     20  C   LIG    1      -23.879  77.523  29.485  0.00  0.00    +0.153 A 
ATOM     21  N   LIG    1      -24.996  77.721  30.220  0.00  0.00    -0.218 NA
BRANCH  15  23
ATOM     22  C   LIG    1      -27.143  76.713  31.956  0.00  0.00    +0.279 C 
ATOM     23  O   LIG    1      -26.065  77.580  32.307  0.00  0.00    -0.479 OA
ENDBRANCH  15  23
ENDBRANCH  10  16
ENDBRANCH   1  11
BRANCH   4  24
ATOM     24  C   LIG    1      -24.679  81.357  36.556  0.00  0.00    +0.249 C 
ATOM     25  N   LIG    1      -25.216  80.198  37.050  0.00  0.00    -0.311 N 
ATOM     26  H   LIG    1      -24.614  79.373  37.050  0.00  0.00    +0.149 HD
ATOM     27  O   LIG    1      -25.303  82.424  36.492  0.00  0.00    -0.270 OA
BRANCH  25  28
ATOM     28  C   LIG    1      -26.601  80.061  37.447  0.00  0.00    +0.107 C 
BRANCH  28  29
ATOM     29  C   LIG    1      -27.316  78.928  36.713  0.00  0.00    +0.046 C 
BRANCH  29  30
ATOM     30  C   LIG    1      -26.360  78.110  35.856  0.00  0.00    +0.157 C 
BRANCH  30  31
ATOM     31  O   LIG    1      -25.976  78.854  34.705  0.00  0.00    -0.395 OA
ATOM     32  H   LIG    1      -25.798  78.218  33.991  0.00  0.00    +0.209 HD
ENDBRANCH  30  31
ENDBRANCH  29  30
ENDBRANCH  28  29
ENDBRANCH  25  28
ENDBRANCH   4  24
TORSDOF 8
ENDMDL
MODEL 7
REMARK VINA RESULT:      -4.7      2.624      5.090
REMARK  Name = pdb/CHEMBL3676019.pdb
REMARK                            x       y       z     vdW  Elec       q    Type
REMARK                         _______ _______ _______ _____ _____    ______ ____
ROOT
ATOM      1  C   LIG    1      -20.969  79.179  34.345  0.00  0.00    +0.126 A 
ATOM      2  N   LIG    1      -21.073  78.551  33.193  0.00  0.00    -0.212 NA
ATOM      3  C   LIG    1      -19.931  78.044  32.621  0.00  0.00    +0.170 A 
ATOM      4  C   LIG    1      -19.714  77.312  31.464  0.00  0.00    +0.100 A 
ATOM      5  C   LIG    1      -18.319  77.098  31.438  0.00  0.00    +0.150 A 
ATOM      6  N   LIG    1      -17.684  77.641  32.476  0.00  0.00    -0.173 NA
ATOM      7  N   LIG    1      -18.675  78.193  33.214  0.00  0.00    -0.221 N 
ATOM      8  C   LIG    1      -18.549  78.842  34.428  0.00  0.00    +0.118 A 
ATOM      9  C   LIG    1      -19.631  79.331  35.041  0.00  0.00    +0.063 A 
ENDROOT
BRANCH   1  11
ATOM     10  C   LIG    1      -22.302  79.783  36.416  0.00  0.00    +0.110 C 
ATOM     11  N   LIG    1      -22.100  79.720  34.949  0.00  0.00    -0.308 N 
ATOM     12  C   LIG    1      -23.381  79.847  34.254  0.00  0.00    +0.107 C 
ATOM     13  C   LIG    1      -24.441  79.669  35.327  0.00  0.00    +0.021 C 
ATOM     14  C   LIG    1      -23.772  80.223  36.567  0.00  0.00    +0.029 C 
BRANCH  10  16
ATOM     15  C   LIG    1      -20.729  80.417  38.304  0.00  0.00    +0.220 A 
ATOM     16  C   LIG    1      -21.400  80.767  37.125  0.00  0.00    +0.037 A 
ATOM     17  C   LIG    1      -21.246  82.090  36.678  0.00  0.00    +0.050 A 
ATOM     18  C   LIG    1      -20.423  82.963  37.374  0.00  0.00    +0.142 A 
ATOM     19  F   LIG    1      -20.255  84.219  36.946  0.00  0.00    -0.204 F 
ATOM     20  C   LIG    1      -19.790  82.515  38.516  0.00  0.00    +0.153 A 
ATOM     21  N   LIG    1      -19.939  81.265  39.007  0.00  0.00    -0.218 NA
BRANCH  15  23
ATOM     22  C   LIG    1      -20.673  79.022  40.188  0.00  0.00    +0.279 C 
ATOM     23  O   LIG    1      -20.898  79.132  38.783  0.00  0.00    -0.479 OA
ENDBRANCH  15  23
ENDBRANCH  10  16
ENDBRANCH   1  11
BRANCH   4  24
ATOM     24  C   LIG    1      -20.682  76.846  30.498  0.00  0.00    +0.249 C 
ATOM     25  N   LIG    1      -21.841  76.345  31.031  0.00  0.00    -0.311 N 
ATOM     26  H   LIG    1      -21.910  76.324  32.049  0.00  0.00    +0.149 HD
ATOM     27  O   LIG    1      -20.468  76.919  29.282  0.00  0.00    -0.270 OA
BRANCH  25  28
ATOM     28  C   LIG    1      -22.893  75.744  30.239  0.00  0.00    +0.107 C 
BRANCH  28  29
ATOM     29  C   LIG    1      -24.244  76.432  30.432  0.00  0.00    +0.046 C 
BRANCH  29  30
ATOM     30  C   LIG    1      -24.172  77.923  30.133  0.00  0.00    +0.157 C 
BRANCH  30  31
ATOM     31  O   LIG    1      -23.327  78.158  29.013  0.00  0.00    -0.395 OA
ATOM     32  H   LIG    1      -23.681  78.927  28.534  0.00  0.00    +0.209 HD
ENDBRANCH  30  31
ENDBRANCH  29  30
ENDBRANCH  28  29
ENDBRANCH  25  28
ENDBRANCH   4  24
TORSDOF 8
ENDMDL
MODEL 8
REMARK VINA RESULT:      -4.7     17.103     20.335
REMARK  Name = pdb/CHEMBL3676019.pdb
REMARK                            x       y       z     vdW  Elec       q    Type
REMARK                         _______ _______ _______ _____ _____    ______ ____
ROOT
ATOM      1  C   LIG    1      -39.620  69.984  23.934  0.00  0.00    +0.126 A 
ATOM      2  N   LIG    1      -38.420  69.448  23.853  0.00  0.00    -0.212 NA
ATOM      3  C   LIG    1      -38.007  68.954  22.639  0.00  0.00    +0.170 A 
ATOM      4  C   LIG    1      -36.816  68.381  22.222  0.00  0.00    +0.100 A 
ATOM      5  C   LIG    1      -37.024  68.087  20.857  0.00  0.00    +0.150 A 
ATOM      6  N   LIG    1      -38.235  68.432  20.423  0.00  0.00    -0.173 NA
ATOM      7  N   LIG    1      -38.825  68.990  21.507  0.00  0.00    -0.221 N 
ATOM      8  C   LIG    1      -40.083  69.557  21.573  0.00  0.00    +0.118 A 
ATOM      9  C   LIG    1      -40.525  70.076  22.722  0.00  0.00    +0.063 A 
ENDROOT
BRANCH   1  11
ATOM     10  C   LIG    1      -39.345  71.477  25.964  0.00  0.00    +0.110 C 
ATOM     11  N   LIG    1      -40.080  70.481  25.150  0.00  0.00    -0.308 N 
ATOM     12  C   LIG    1      -41.054  69.767  25.977  0.00  0.00    +0.107 C 
ATOM     13  C   LIG    1      -40.695  70.113  27.411  0.00  0.00    +0.021 C 
ATOM     14  C   LIG    1      -40.123  71.510  27.296  0.00  0.00    +0.029 C 
BRANCH  10  16
ATOM     15  C   LIG    1      -38.282  73.764  25.681  0.00  0.00    +0.220 A 
ATOM     16  C   LIG    1      -39.307  72.864  25.363  0.00  0.00    +0.037 A 
ATOM     17  C   LIG    1      -40.325  73.336  24.518  0.00  0.00    +0.050 A 
ATOM     18  C   LIG    1      -40.256  74.623  24.006  0.00  0.00    +0.142 A 
ATOM     19  F   LIG    1      -41.211  75.076  23.186  0.00  0.00    -0.204 F 
ATOM     20  C   LIG    1      -39.194  75.428  24.365  0.00  0.00    +0.153 A 
ATOM     21  N   LIG    1      -38.213  75.032  25.207  0.00  0.00    -0.218 NA
BRANCH  15  23
ATOM     22  C   LIG    1      -36.892  74.330  27.483  0.00  0.00    +0.279 C 
ATOM     23  O   LIG    1      -37.292  73.333  26.543  0.00  0.00    -0.479 OA
ENDBRANCH  15  23
ENDBRANCH  10  16
ENDBRANCH   1  11
BRANCH   4  24
ATOM     24  C   LIG    1      -35.613  68.145  22.988  0.00  0.00    +0.249 C 
ATOM     25  N   LIG    1      -35.708  68.435  24.324  0.00  0.00    -0.311 N 
ATOM     26  H   LIG    1      -36.599  68.809  24.654  0.00  0.00    +0.149 HD
ATOM     27  O   LIG    1      -34.589  67.695  22.460  0.00  0.00    -0.270 OA
BRANCH  25  28
ATOM     28  C   LIG    1      -34.591  68.356  25.242  0.00  0.00    +0.107 C 
BRANCH  28  29
ATOM     29  C   LIG    1      -34.176  69.723  25.785  0.00  0.00    +0.046 C 
BRANCH  29  30
ATOM     30  C   LIG    1      -35.379  70.592  26.123  0.00  0.00    +0.157 C 
BRANCH  30  31
ATOM     31  O   LIG    1      -35.891  71.202  24.943  0.00  0.00    -0.395 OA
ATOM     32  H   LIG    1      -35.225  71.837  24.629  0.00  0.00    +0.209 HD
ENDBRANCH  30  31
ENDBRANCH  29  30
ENDBRANCH  28  29
ENDBRANCH  25  28
ENDBRANCH   4  24
TORSDOF 8
ENDMDL
MODEL 9
REMARK VINA RESULT:      -4.7     14.004     18.116
REMARK  Name = pdb/CHEMBL3676019.pdb
REMARK                            x       y       z     vdW  Elec       q    Type
REMARK                         _______ _______ _______ _____ _____    ______ ____
ROOT
ATOM      1  C   LIG    1      -38.533  75.091  27.090  0.00  0.00    +0.126 A 
ATOM      2  N   LIG    1      -37.242  75.168  27.341  0.00  0.00    -0.212 NA
ATOM      3  C   LIG    1      -36.728  74.401  28.358  0.00  0.00    +0.170 A 
ATOM      4  C   LIG    1      -35.438  74.226  28.833  0.00  0.00    +0.100 A 
ATOM      5  C   LIG    1      -35.574  73.305  29.894  0.00  0.00    +0.150 A 
ATOM      6  N   LIG    1      -36.832  72.916  30.095  0.00  0.00    -0.173 NA
ATOM      7  N   LIG    1      -37.533  73.564  29.135  0.00  0.00    -0.221 N 
ATOM      8  C   LIG    1      -38.888  73.464  28.879  0.00  0.00    +0.118 A 
ATOM      9  C   LIG    1      -39.435  74.168  27.885  0.00  0.00    +0.063 A 
ENDROOT
BRANCH   1  11
ATOM     10  C   LIG    1      -38.998  75.531  24.637  0.00  0.00    +0.110 C 
ATOM     11  N   LIG    1      -39.093  75.864  26.078  0.00  0.00    -0.308 N 
ATOM     12  C   LIG    1      -39.412  77.282  26.252  0.00  0.00    +0.107 C 
ATOM     13  C   LIG    1      -39.200  77.913  24.888  0.00  0.00    +0.021 C 
ATOM     14  C   LIG    1      -39.543  76.790  23.932  0.00  0.00    +0.029 C 
BRANCH  10  16
ATOM     15  C   LIG    1      -39.263  73.035  24.264  0.00  0.00    +0.220 A 
ATOM     16  C   LIG    1      -39.810  74.325  24.224  0.00  0.00    +0.037 A 
ATOM     17  C   LIG    1      -41.115  74.443  23.720  0.00  0.00    +0.050 A 
ATOM     18  C   LIG    1      -41.813  73.309  23.335  0.00  0.00    +0.142 A 
ATOM     19  F   LIG    1      -43.064  73.410  22.870  0.00  0.00    -0.204 F 
ATOM     20  C   LIG    1      -41.193  72.080  23.431  0.00  0.00    +0.153 A 
ATOM     21  N   LIG    1      -39.925  71.919  23.871  0.00  0.00    -0.218 NA
BRANCH  15  23
ATOM     22  C   LIG    1      -37.785  71.769  25.571  0.00  0.00    +0.279 C 
ATOM     23  O   LIG    1      -37.966  72.900  24.720  0.00  0.00    -0.479 OA
ENDBRANCH  15  23
ENDBRANCH  10  16
ENDBRANCH   1  11
BRANCH   4  24
ATOM     24  C   LIG    1      -34.213  74.826  28.355  0.00  0.00    +0.249 C 
ATOM     25  N   LIG    1      -34.356  76.061  27.778  0.00  0.00    -0.311 N 
ATOM     26  H   LIG    1      -35.304  76.434  27.716  0.00  0.00    +0.149 HD
ATOM     27  O   LIG    1      -33.122  74.257  28.485  0.00  0.00    -0.270 OA
BRANCH  25  28
ATOM     28  C   LIG    1      -33.269  76.785  27.156  0.00  0.00    +0.107 C 
BRANCH  28  29
ATOM     29  C   LIG    1      -32.952  78.100  27.868  0.00  0.00    +0.046 C 
BRANCH  29  30
ATOM     30  C   LIG    1      -32.366  79.136  26.918  0.00  0.00    +0.157 C 
BRANCH  30  31
ATOM     31  O   LIG    1      -32.376  78.639  25.584  0.00  0.00    -0.395 OA
ATOM     32  H   LIG    1      -32.021  79.339  25.008  0.00  0.00    +0.209 HD
ENDBRANCH  30  31
ENDBRANCH  29  30
ENDBRANCH  28  29
ENDBRANCH  25  28
ENDBRANCH   4  24
TORSDOF 8
ENDMDL
