MODEL 1
REMARK VINA RESULT:      -6.8      0.000      0.000
REMARK  Name = pdb/CHEMBL3971403.pdb
REMARK                            x       y       z     vdW  Elec       q    Type
REMARK                         _______ _______ _______ _____ _____    ______ ____
ROOT
ATOM      1  C   LIG    1      -22.115  82.536  15.675  0.00  0.00    +0.149 A 
ATOM      2  N   LIG    1      -20.843  82.136  15.852  0.00  0.00    -0.160 NA
ATOM      3  N   LIG    1      -20.896  80.765  15.790  0.00  0.00    -0.218 N 
ATOM      4  C   LIG    1      -22.208  80.307  15.644  0.00  0.00    +0.129 A 
ATOM      5  C   LIG    1      -22.993  81.436  15.629  0.00  0.00    +0.078 A 
ENDROOT
BRANCH   3   6
ATOM      6  C   LIG    1      -19.689  80.004  15.829  0.00  0.00    +0.067 A 
ATOM      7  C   LIG    1      -19.554  78.878  16.656  0.00  0.00    +0.028 A 
ATOM      8  C   LIG    1      -18.368  78.135  16.643  0.00  0.00    +0.002 A 
ATOM      9  C   LIG    1      -17.308  78.514  15.820  0.00  0.00    +0.000 A 
ATOM     10  C   LIG    1      -17.432  79.632  15.000  0.00  0.00    +0.002 A 
ATOM     11  C   LIG    1      -18.622  80.367  14.991  0.00  0.00    +0.028 A 
ENDBRANCH   3   6
BRANCH   4  12
ATOM     12  N   LIG    1      -22.677  78.992  15.602  0.00  0.00    -0.266 N 
ATOM     13  H   LIG    1      -23.175  78.641  16.410  0.00  0.00    +0.157 HD
ATOM     14  C   LIG    1      -22.515  78.134  14.452  0.00  0.00    +0.251 C 
ATOM     15  O   LIG    1      -21.905  78.515  13.458  0.00  0.00    -0.270 OA
BRANCH  14  16
ATOM     16  C   LIG    1      -23.017  76.747  14.529  0.00  0.00    +0.056 A 
ATOM     17  C   LIG    1      -23.978  76.240  13.659  0.00  0.00    +0.054 A 
ATOM     18 CL   LIG    1      -24.680  77.145  12.367  0.00  0.00    -0.083 Cl
ATOM     19  C   LIG    1      -24.408  74.926  13.808  0.00  0.00    +0.041 A 
ATOM     20  C   LIG    1      -23.894  74.098  14.818  0.00  0.00    +0.052 A 
ATOM     21 CL   LIG    1      -24.634  72.535  14.896  0.00  0.00    -0.083 Cl
ATOM     22  C   LIG    1      -22.898  74.555  15.709  0.00  0.00    +0.019 A 
ATOM     23  C   LIG    1      -22.482  75.900  15.530  0.00  0.00    +0.026 A 
BRANCH  22  24
ATOM     24  C   LIG    1      -22.300  73.752  16.814  0.00  0.00    +0.073 A 
ATOM     25  N   LIG    1      -21.040  73.294  16.575  0.00  0.00    -0.252 NA
ATOM     26  C   LIG    1      -20.429  72.562  17.548  0.00  0.00    +0.149 A 
ATOM     27  C   LIG    1      -21.008  72.268  18.765  0.00  0.00    +0.141 A 
ATOM     28  F   LIG    1      -20.355  71.553  19.689  0.00  0.00    -0.204 F 
ATOM     29  C   LIG    1      -22.290  72.720  19.009  0.00  0.00    +0.042 A 
ATOM     30  C   LIG    1      -22.949  73.447  18.015  0.00  0.00    +0.031 A 
ENDBRANCH  22  24
ENDBRANCH  14  16
ENDBRANCH   4  12
BRANCH   1  31
ATOM     31  C   LIG    1      -22.497  83.944  15.548  0.00  0.00    +0.236 C 
ATOM     32  N   LIG    1      -22.397  84.535  14.413  0.00  0.00    -0.244 NA
BRANCH  31  33
ATOM     33  O   LIG    1      -22.914  84.555  16.679  0.00  0.00    -0.491 OA
ATOM     34  H   LIG    1      -22.413  85.378  16.816  0.00  0.00    +0.294 HD
ENDBRANCH  31  33
BRANCH  32  35
ATOM     35  C   LIG    1      -22.773  85.949  14.386  0.00  0.00    +0.183 C 
BRANCH  35  36
ATOM     36  C   LIG    1      -21.560  86.793  14.194  0.00  0.00    +0.011 A 
ATOM     37  C   LIG    1      -21.477  88.171  14.158  0.00  0.00    +0.110 A 
ATOM     38  N   LIG    1      -20.164  88.475  13.951  0.00  0.00    -0.284 N 
ATOM     39  H   LIG    1      -19.738  89.390  13.857  0.00  0.00    +0.188 HD
ATOM     40  N   LIG    1      -19.374  87.394  13.866  0.00  0.00    -0.182 NA
ATOM     41  C   LIG    1      -20.222  86.374  14.018  0.00  0.00    +0.139 A 
ENDBRANCH  35  36
ENDBRANCH  32  35
ENDBRANCH   1  31
TORSDOF 8
ENDMDL
MODEL 2
REMARK VINA RESULT:      -6.6     17.646     19.232
REMARK  Name = pdb/CHEMBL3971403.pdb
REMARK                            x       y       z     vdW  Elec       q    Type
REMARK                         _______ _______ _______ _____ _____    ______ ____
ROOT
ATOM      1  C   LIG    1      -37.438  79.928  27.775  0.00  0.00    +0.149 A 
ATOM      2  N   LIG    1      -36.346  79.220  28.115  0.00  0.00    -0.160 NA
ATOM      3  N   LIG    1      -36.581  77.957  27.628  0.00  0.00    -0.218 N 
ATOM      4  C   LIG    1      -37.848  77.860  27.044  0.00  0.00    +0.129 A 
ATOM      5  C   LIG    1      -38.418  79.102  27.191  0.00  0.00    +0.078 A 
ENDROOT
BRANCH   3   6
ATOM      6  C   LIG    1      -35.564  76.960  27.715  0.00  0.00    +0.067 A 
ATOM      7  C   LIG    1      -34.210  77.267  27.510  0.00  0.00    +0.028 A 
ATOM      8  C   LIG    1      -33.236  76.270  27.639  0.00  0.00    +0.002 A 
ATOM      9  C   LIG    1      -33.603  74.963  27.958  0.00  0.00    +0.000 A 
ATOM     10  C   LIG    1      -34.945  74.649  28.158  0.00  0.00    +0.002 A 
ATOM     11  C   LIG    1      -35.922  75.645  28.054  0.00  0.00    +0.028 A 
ENDBRANCH   3   6
BRANCH   4  12
ATOM     12  N   LIG    1      -38.474  76.738  26.494  0.00  0.00    -0.266 N 
ATOM     13  H   LIG    1      -39.204  76.291  27.034  0.00  0.00    +0.157 HD
ATOM     14  C   LIG    1      -38.152  76.219  25.185  0.00  0.00    +0.251 C 
ATOM     15  O   LIG    1      -37.263  76.722  24.505  0.00  0.00    -0.270 OA
BRANCH  14  16
ATOM     16  C   LIG    1      -38.850  75.004  24.716  0.00  0.00    +0.056 A 
ATOM     17  C   LIG    1      -40.084  75.041  24.073  0.00  0.00    +0.054 A 
ATOM     18 CL   LIG    1      -40.938  76.498  23.714  0.00  0.00    -0.083 Cl
ATOM     19  C   LIG    1      -40.682  73.850  23.675  0.00  0.00    +0.041 A 
ATOM     20  C   LIG    1      -40.068  72.610  23.908  0.00  0.00    +0.052 A 
ATOM     21 CL   LIG    1      -41.022  71.248  23.429  0.00  0.00    -0.083 Cl
ATOM     22  C   LIG    1      -38.804  72.520  24.532  0.00  0.00    +0.019 A 
ATOM     23  C   LIG    1      -38.222  73.753  24.926  0.00  0.00    +0.026 A 
BRANCH  22  24
ATOM     24  C   LIG    1      -38.080  71.250  24.827  0.00  0.00    +0.073 A 
ATOM     25  N   LIG    1      -37.935  70.411  23.763  0.00  0.00    -0.252 NA
ATOM     26  C   LIG    1      -37.273  69.237  23.961  0.00  0.00    +0.149 A 
ATOM     27  C   LIG    1      -36.732  68.853  25.171  0.00  0.00    +0.141 A 
ATOM     28  F   LIG    1      -36.081  67.691  25.302  0.00  0.00    -0.204 F 
ATOM     29  C   LIG    1      -36.886  69.694  26.254  0.00  0.00    +0.042 A 
ATOM     30  C   LIG    1      -37.587  70.890  26.086  0.00  0.00    +0.031 A 
ENDBRANCH  22  24
ENDBRANCH  14  16
ENDBRANCH   4  12
BRANCH   1  31
ATOM     31  C   LIG    1      -37.553  81.370  27.997  0.00  0.00    +0.236 C 
ATOM     32  N   LIG    1      -37.833  82.149  27.016  0.00  0.00    -0.244 NA
BRANCH  31  33
ATOM     33  O   LIG    1      -37.319  81.802  29.257  0.00  0.00    -0.491 OA
ATOM     34  H   LIG    1      -36.522  82.360  29.274  0.00  0.00    +0.294 HD
ENDBRANCH  31  33
BRANCH  32  35
ATOM     35  C   LIG    1      -37.900  83.578  27.326  0.00  0.00    +0.183 C 
BRANCH  35  36
ATOM     36  C   LIG    1      -36.716  84.277  26.751  0.00  0.00    +0.011 A 
ATOM     37  C   LIG    1      -35.740  84.989  27.419  0.00  0.00    +0.110 A 
ATOM     38  N   LIG    1      -34.876  85.448  26.468  0.00  0.00    -0.284 N 
ATOM     39  H   LIG    1      -34.048  86.019  26.594  0.00  0.00    +0.188 HD
ATOM     40  N   LIG    1      -35.206  85.072  25.223  0.00  0.00    -0.182 NA
ATOM     41  C   LIG    1      -36.320  84.358  25.396  0.00  0.00    +0.139 A 
ENDBRANCH  35  36
ENDBRANCH  32  35
ENDBRANCH   1  31
TORSDOF 8
ENDMDL
MODEL 3
REMARK VINA RESULT:      -6.6     17.328     20.770
REMARK  Name = pdb/CHEMBL3971403.pdb
REMARK                            x       y       z     vdW  Elec       q    Type
REMARK                         _______ _______ _______ _____ _____    ______ ____
ROOT
ATOM      1  C   LIG    1      -35.512  69.014  24.999  0.00  0.00    +0.149 A 
ATOM      2  N   LIG    1      -36.646  69.727  25.126  0.00  0.00    -0.160 NA
ATOM      3  N   LIG    1      -36.259  70.895  25.736  0.00  0.00    -0.218 N 
ATOM      4  C   LIG    1      -34.897  70.882  26.053  0.00  0.00    +0.129 A 
ATOM      5  C   LIG    1      -34.432  69.658  25.636  0.00  0.00    +0.078 A 
ENDROOT
BRANCH   3   6
ATOM      6  C   LIG    1      -37.206  71.945  25.927  0.00  0.00    +0.067 A 
ATOM      7  C   LIG    1      -37.550  72.403  27.208  0.00  0.00    +0.028 A 
ATOM      8  C   LIG    1      -38.456  73.460  27.357  0.00  0.00    +0.002 A 
ATOM      9  C   LIG    1      -39.034  74.056  26.236  0.00  0.00    +0.000 A 
ATOM     10  C   LIG    1      -38.701  73.604  24.962  0.00  0.00    +0.002 A 
ATOM     11  C   LIG    1      -37.779  72.564  24.804  0.00  0.00    +0.028 A 
ENDBRANCH   3   6
BRANCH   4  12
ATOM     12  N   LIG    1      -34.146  71.850  26.725  0.00  0.00    -0.266 N 
ATOM     13  H   LIG    1      -33.641  72.528  26.168  0.00  0.00    +0.157 HD
ATOM     14  C   LIG    1      -34.091  71.946  28.165  0.00  0.00    +0.251 C 
ATOM     15  O   LIG    1      -34.677  71.135  28.876  0.00  0.00    -0.270 OA
BRANCH  14  16
ATOM     16  C   LIG    1      -33.235  72.985  28.772  0.00  0.00    +0.056 A 
ATOM     17  C   LIG    1      -32.250  72.699  29.713  0.00  0.00    +0.054 A 
ATOM     18 CL   LIG    1      -31.881  71.106  30.267  0.00  0.00    -0.083 Cl
ATOM     19  C   LIG    1      -31.496  73.738  30.248  0.00  0.00    +0.041 A 
ATOM     20  C   LIG    1      -31.705  75.070  29.858  0.00  0.00    +0.052 A 
ATOM     21 CL   LIG    1      -30.734  76.218  30.715  0.00  0.00    -0.083 Cl
ATOM     22  C   LIG    1      -32.672  75.410  28.887  0.00  0.00    +0.019 A 
ATOM     23  C   LIG    1      -33.426  74.327  28.363  0.00  0.00    +0.026 A 
BRANCH  22  24
ATOM     24  C   LIG    1      -32.970  76.794  28.418  0.00  0.00    +0.073 A 
ATOM     25  N   LIG    1      -33.972  77.426  29.092  0.00  0.00    -0.252 NA
ATOM     26  C   LIG    1      -34.288  78.698  28.721  0.00  0.00    +0.149 A 
ATOM     27  C   LIG    1      -33.647  79.387  27.712  0.00  0.00    +0.141 A 
ATOM     28  F   LIG    1      -33.994  80.641  27.400  0.00  0.00    -0.204 F 
ATOM     29  C   LIG    1      -32.639  78.747  27.019  0.00  0.00    +0.042 A 
ATOM     30  C   LIG    1      -32.316  77.432  27.359  0.00  0.00    +0.031 A 
ENDBRANCH  22  24
ENDBRANCH  14  16
ENDBRANCH   4  12
BRANCH   1  31
ATOM     31  C   LIG    1      -35.448  67.739  24.283  0.00  0.00    +0.236 C 
ATOM     32  N   LIG    1      -34.773  67.649  23.195  0.00  0.00    -0.244 NA
BRANCH  31  33
ATOM     33  O   LIG    1      -36.153  66.717  24.817  0.00  0.00    -0.491 OA
ATOM     34  H   LIG    1      -36.965  67.056  25.233  0.00  0.00    +0.294 HD
ENDBRANCH  31  33
BRANCH  32  35
ATOM     35  C   LIG    1      -34.789  66.344  22.532  0.00  0.00    +0.183 C 
BRANCH  35  36
ATOM     36  C   LIG    1      -34.451  66.504  21.090  0.00  0.00    +0.011 A 
ATOM     37  C   LIG    1      -33.204  66.474  20.497  0.00  0.00    +0.110 A 
ATOM     38  N   LIG    1      -33.403  66.678  19.163  0.00  0.00    -0.284 N 
ATOM     39  H   LIG    1      -32.710  66.731  18.426  0.00  0.00    +0.188 HD
ATOM     40  N   LIG    1      -34.696  66.822  18.834  0.00  0.00    -0.182 NA
ATOM     41  C   LIG    1      -35.331  66.712  20.003  0.00  0.00    +0.139 A 
ENDBRANCH  35  36
ENDBRANCH  32  35
ENDBRANCH   1  31
TORSDOF 8
ENDMDL
MODEL 4
REMARK VINA RESULT:      -6.6     18.445     20.075
REMARK  Name = pdb/CHEMBL3971403.pdb
REMARK                            x       y       z     vdW  Elec       q    Type
REMARK                         _______ _______ _______ _____ _____    ______ ____
ROOT
ATOM      1  C   LIG    1      -31.210  87.265  30.821  0.00  0.00    +0.149 A 
ATOM      2  N   LIG    1      -32.153  88.127  30.398  0.00  0.00    -0.160 NA
ATOM      3  N   LIG    1      -33.137  87.333  29.861  0.00  0.00    -0.218 N 
ATOM      4  C   LIG    1      -32.778  85.982  29.886  0.00  0.00    +0.129 A 
ATOM      5  C   LIG    1      -31.523  85.944  30.446  0.00  0.00    +0.078 A 
ENDROOT
BRANCH   3   6
ATOM      6  C   LIG    1      -34.357  87.920  29.409  0.00  0.00    +0.067 A 
ATOM      7  C   LIG    1      -34.411  88.708  28.249  0.00  0.00    +0.028 A 
ATOM      8  C   LIG    1      -35.632  89.238  27.816  0.00  0.00    +0.002 A 
ATOM      9  C   LIG    1      -36.800  89.001  28.540  0.00  0.00    +0.000 A 
ATOM     10  C   LIG    1      -36.753  88.224  29.695  0.00  0.00    +0.002 A 
ATOM     11  C   LIG    1      -35.541  87.672  30.122  0.00  0.00    +0.028 A 
ENDBRANCH   3   6
BRANCH   4  12
ATOM     12  N   LIG    1      -33.478  84.881  29.386  0.00  0.00    -0.266 N 
ATOM     13  H   LIG    1      -33.286  84.591  28.435  0.00  0.00    +0.157 HD
ATOM     14  C   LIG    1      -34.425  84.125  30.171  0.00  0.00    +0.251 C 
ATOM     15  O   LIG    1      -34.697  84.453  31.322  0.00  0.00    -0.270 OA
BRANCH  14  16
ATOM     16  C   LIG    1      -35.136  83.001  29.529  0.00  0.00    +0.056 A 
ATOM     17  C   LIG    1      -36.519  82.976  29.365  0.00  0.00    +0.054 A 
ATOM     18 CL   LIG    1      -37.569  84.255  29.856  0.00  0.00    -0.083 Cl
ATOM     19  C   LIG    1      -37.114  81.873  28.764  0.00  0.00    +0.041 A 
ATOM     20  C   LIG    1      -36.351  80.783  28.317  0.00  0.00    +0.052 A 
ATOM     21 CL   LIG    1      -37.292  79.471  27.692  0.00  0.00    -0.083 Cl
ATOM     22  C   LIG    1      -34.944  80.771  28.435  0.00  0.00    +0.019 A 
ATOM     23  C   LIG    1      -34.368  81.911  29.054  0.00  0.00    +0.026 A 
BRANCH  22  24
ATOM     24  C   LIG    1      -34.054  79.657  27.998  0.00  0.00    +0.073 A 
ATOM     25  N   LIG    1      -33.365  79.891  26.846  0.00  0.00    -0.252 NA
ATOM     26  C   LIG    1      -32.525  78.918  26.395  0.00  0.00    +0.149 A 
ATOM     27  C   LIG    1      -32.323  77.716  27.042  0.00  0.00    +0.141 A 
ATOM     28  F   LIG    1      -31.475  76.802  26.557  0.00  0.00    -0.204 F 
ATOM     29  C   LIG    1      -33.027  77.469  28.203  0.00  0.00    +0.042 A 
ATOM     30  C   LIG    1      -33.918  78.439  28.671  0.00  0.00    +0.031 A 
ENDBRANCH  22  24
ENDBRANCH  14  16
ENDBRANCH   4  12
BRANCH   1  31
ATOM     31  C   LIG    1      -30.027  87.686  31.574  0.00  0.00    +0.236 C 
ATOM     32  N   LIG    1      -30.114  87.896  32.837  0.00  0.00    -0.244 NA
BRANCH  31  33
ATOM     33  O   LIG    1      -28.893  87.859  30.859  0.00  0.00    -0.491 OA
ATOM     34  H   LIG    1      -28.911  87.295  30.065  0.00  0.00    +0.294 HD
ENDBRANCH  31  33
BRANCH  32  35
ATOM     35  C   LIG    1      -28.888  88.341  33.502  0.00  0.00    +0.183 C 
BRANCH  35  36
ATOM     36  C   LIG    1      -28.333  87.235  34.334  0.00  0.00    +0.011 A 
ATOM     37  C   LIG    1      -28.905  86.010  34.615  0.00  0.00    +0.110 A 
ATOM     38  N   LIG    1      -28.026  85.347  35.421  0.00  0.00    -0.284 N 
ATOM     39  H   LIG    1      -28.123  84.426  35.832  0.00  0.00    +0.188 HD
ATOM     40  N   LIG    1      -26.908  86.044  35.674  0.00  0.00    -0.182 NA
ATOM     41  C   LIG    1      -27.093  87.187  35.011  0.00  0.00    +0.139 A 
ENDBRANCH  35  36
ENDBRANCH  32  35
ENDBRANCH   1  31
TORSDOF 8
ENDMDL
MODEL 5
REMARK VINA RESULT:      -6.5     17.475     20.023
REMARK  Name = pdb/CHEMBL3971403.pdb
REMARK                            x       y       z     vdW  Elec       q    Type
REMARK                         _______ _______ _______ _____ _____    ______ ____
ROOT
ATOM      1  C   LIG    1      -31.565  74.307  29.843  0.00  0.00    +0.149 A 
ATOM      2  N   LIG    1      -31.512  75.621  29.560  0.00  0.00    -0.160 NA
ATOM      3  N   LIG    1      -32.583  75.844  28.730  0.00  0.00    -0.218 N 
ATOM      4  C   LIG    1      -33.263  74.658  28.439  0.00  0.00    +0.129 A 
ATOM      5  C   LIG    1      -32.579  73.668  29.103  0.00  0.00    +0.078 A 
ENDROOT
BRANCH   3   6
ATOM      6  C   LIG    1      -32.899  77.173  28.318  0.00  0.00    +0.067 A 
ATOM      7  C   LIG    1      -32.264  77.776  27.221  0.00  0.00    +0.028 A 
ATOM      8  C   LIG    1      -32.625  79.068  26.822  0.00  0.00    +0.002 A 
ATOM      9  C   LIG    1      -33.606  79.772  27.520  0.00  0.00    +0.000 A 
ATOM     10  C   LIG    1      -34.237  79.184  28.612  0.00  0.00    +0.002 A 
ATOM     11  C   LIG    1      -33.899  77.884  29.002  0.00  0.00    +0.028 A 
ENDBRANCH   3   6
BRANCH   4  12
ATOM     12  N   LIG    1      -34.358  74.462  27.594  0.00  0.00    -0.266 N 
ATOM     13  H   LIG    1      -34.174  74.192  26.636  0.00  0.00    +0.157 HD
ATOM     14  C   LIG    1      -35.728  74.588  28.035  0.00  0.00    +0.251 C 
ATOM     15  O   LIG    1      -35.994  74.928  29.184  0.00  0.00    -0.270 OA
BRANCH  14  16
ATOM     16  C   LIG    1      -36.809  74.395  27.047  0.00  0.00    +0.056 A 
ATOM     17  C   LIG    1      -37.204  73.140  26.593  0.00  0.00    +0.054 A 
ATOM     18 CL   LIG    1      -36.511  71.657  27.141  0.00  0.00    -0.083 Cl
ATOM     19  C   LIG    1      -38.221  73.045  25.650  0.00  0.00    +0.041 A 
ATOM     20  C   LIG    1      -38.860  74.188  25.145  0.00  0.00    +0.052 A 
ATOM     21 CL   LIG    1      -40.025  73.859  23.909  0.00  0.00    -0.083 Cl
ATOM     22  C   LIG    1      -38.516  75.482  25.594  0.00  0.00    +0.019 A 
ATOM     23  C   LIG    1      -37.473  75.544  26.555  0.00  0.00    +0.026 A 
BRANCH  22  24
ATOM     24  C   LIG    1      -39.132  76.752  25.111  0.00  0.00    +0.073 A 
ATOM     25  N   LIG    1      -39.933  77.382  26.015  0.00  0.00    -0.252 NA
ATOM     26  C   LIG    1      -40.521  78.553  25.642  0.00  0.00    +0.149 A 
ATOM     27  C   LIG    1      -40.342  79.143  24.408  0.00  0.00    +0.141 A 
ATOM     28  F   LIG    1      -40.936  80.303  24.102  0.00  0.00    -0.204 F 
ATOM     29  C   LIG    1      -39.541  78.503  23.484  0.00  0.00    +0.042 A 
ATOM     30  C   LIG    1      -38.952  77.286  23.831  0.00  0.00    +0.031 A 
ENDBRANCH  22  24
ENDBRANCH  14  16
ENDBRANCH   4  12
BRANCH   1  31
ATOM     31  C   LIG    1      -30.669  73.663  30.805  0.00  0.00    +0.236 C 
ATOM     32  N   LIG    1      -30.060  74.369  31.686  0.00  0.00    -0.244 NA
BRANCH  31  33
ATOM     33  O   LIG    1      -30.516  72.326  30.676  0.00  0.00    -0.491 OA
ATOM     34  H   LIG    1      -29.841  72.007  31.302  0.00  0.00    +0.294 HD
ENDBRANCH  31  33
BRANCH  32  35
ATOM     35  C   LIG    1      -29.163  73.644  32.587  0.00  0.00    +0.183 C 
BRANCH  35  36
ATOM     36  C   LIG    1      -27.758  73.758  32.103  0.00  0.00    +0.011 A 
ATOM     37  C   LIG    1      -26.904  72.744  31.718  0.00  0.00    +0.110 A 
ATOM     38  N   LIG    1      -25.728  73.339  31.366  0.00  0.00    -0.284 N 
ATOM     39  H   LIG    1      -24.873  72.900  31.046  0.00  0.00    +0.188 HD
ATOM     40  N   LIG    1      -25.755  74.676  31.476  0.00  0.00    -0.182 NA
ATOM     41  C   LIG    1      -26.988  74.930  31.919  0.00  0.00    +0.139 A 
ENDBRANCH  35  36
ENDBRANCH  32  35
ENDBRANCH   1  31
TORSDOF 8
ENDMDL
MODEL 6
REMARK VINA RESULT:      -6.5     18.523     20.300
REMARK  Name = pdb/CHEMBL3971403.pdb
REMARK                            x       y       z     vdW  Elec       q    Type
REMARK                         _______ _______ _______ _____ _____    ______ ____
ROOT
ATOM      1  C   LIG    1      -38.438  76.593  25.939  0.00  0.00    +0.149 A 
ATOM      2  N   LIG    1      -39.534  76.295  25.219  0.00  0.00    -0.160 NA
ATOM      3  N   LIG    1      -39.322  75.014  24.772  0.00  0.00    -0.218 N 
ATOM      4  C   LIG    1      -38.064  74.538  25.155  0.00  0.00    +0.129 A 
ATOM      5  C   LIG    1      -37.476  75.568  25.850  0.00  0.00    +0.078 A 
ENDROOT
BRANCH   3   6
ATOM      6  C   LIG    1      -40.351  74.330  24.057  0.00  0.00    +0.067 A 
ATOM      7  C   LIG    1      -40.324  72.939  23.878  0.00  0.00    +0.028 A 
ATOM      8  C   LIG    1      -41.368  72.297  23.202  0.00  0.00    +0.002 A 
ATOM      9  C   LIG    1      -42.434  73.035  22.689  0.00  0.00    +0.000 A 
ATOM     10  C   LIG    1      -42.466  74.417  22.858  0.00  0.00    +0.002 A 
ATOM     11  C   LIG    1      -41.438  75.063  23.553  0.00  0.00    +0.028 A 
ENDBRANCH   3   6
BRANCH   4  12
ATOM     12  N   LIG    1      -37.461  73.316  24.848  0.00  0.00    -0.266 N 
ATOM     13  H   LIG    1      -36.952  73.245  23.975  0.00  0.00    +0.157 HD
ATOM     14  C   LIG    1      -37.498  72.174  25.730  0.00  0.00    +0.251 C 
ATOM     15  O   LIG    1      -38.116  72.213  26.791  0.00  0.00    -0.270 OA
BRANCH  14  16
ATOM     16  C   LIG    1      -36.857  70.919  25.289  0.00  0.00    +0.056 A 
ATOM     17  C   LIG    1      -35.736  70.381  25.915  0.00  0.00    +0.054 A 
ATOM     18 CL   LIG    1      -34.972  71.085  27.293  0.00  0.00    -0.083 Cl
ATOM     19  C   LIG    1      -35.183  69.201  25.428  0.00  0.00    +0.041 A 
ATOM     20  C   LIG    1      -35.733  68.539  24.319  0.00  0.00    +0.052 A 
ATOM     21 CL   LIG    1      -34.838  67.147  23.811  0.00  0.00    -0.083 Cl
ATOM     22  C   LIG    1      -36.886  69.028  23.666  0.00  0.00    +0.019 A 
ATOM     23  C   LIG    1      -37.423  70.234  24.187  0.00  0.00    +0.026 A 
BRANCH  22  24
ATOM     24  C   LIG    1      -37.534  68.399  22.479  0.00  0.00    +0.073 A 
ATOM     25  N   LIG    1      -38.306  67.311  22.756  0.00  0.00    -0.252 NA
ATOM     26  C   LIG    1      -38.936  66.694  21.718  0.00  0.00    +0.149 A 
ATOM     27  C   LIG    1      -38.847  67.113  20.406  0.00  0.00    +0.141 A 
ATOM     28  F   LIG    1      -39.499  66.472  19.428  0.00  0.00    -0.204 F 
ATOM     29  C   LIG    1      -38.056  68.207  20.119  0.00  0.00    +0.042 A 
ATOM     30  C   LIG    1      -37.375  68.839  21.161  0.00  0.00    +0.031 A 
ENDBRANCH  22  24
ENDBRANCH  14  16
ENDBRANCH   4  12
BRANCH   1  31
ATOM     31  C   LIG    1      -38.300  77.833  26.705  0.00  0.00    +0.236 C 
ATOM     32  N   LIG    1      -37.586  77.851  27.771  0.00  0.00    -0.244 NA
BRANCH  31  33
ATOM     33  O   LIG    1      -38.983  78.903  26.239  0.00  0.00    -0.491 OA
ATOM     34  H   LIG    1      -38.384  79.665  26.149  0.00  0.00    +0.294 HD
ENDBRANCH  31  33
BRANCH  32  35
ATOM     35  C   LIG    1      -37.529  79.126  28.488  0.00  0.00    +0.183 C 
BRANCH  35  36
ATOM     36  C   LIG    1      -36.384  79.938  27.987  0.00  0.00    +0.011 A 
ATOM     37  C   LIG    1      -35.054  79.577  27.905  0.00  0.00    +0.110 A 
ATOM     38  N   LIG    1      -34.390  80.653  27.394  0.00  0.00    -0.284 N 
ATOM     39  H   LIG    1      -33.398  80.750  27.210  0.00  0.00    +0.188 HD
ATOM     40  N   LIG    1      -35.194  81.692  27.118  0.00  0.00    -0.182 NA
ATOM     41  C   LIG    1      -36.404  81.256  27.474  0.00  0.00    +0.139 A 
ENDBRANCH  35  36
ENDBRANCH  32  35
ENDBRANCH   1  31
TORSDOF 8
ENDMDL
MODEL 7
REMARK VINA RESULT:      -6.5     17.622     20.714
REMARK  Name = pdb/CHEMBL3971403.pdb
REMARK                            x       y       z     vdW  Elec       q    Type
REMARK                         _______ _______ _______ _____ _____    ______ ____
ROOT
ATOM      1  C   LIG    1      -34.633  73.168  28.122  0.00  0.00    +0.149 A 
ATOM      2  N   LIG    1      -34.238  71.882  28.156  0.00  0.00    -0.160 NA
ATOM      3  N   LIG    1      -35.206  71.201  27.459  0.00  0.00    -0.218 N 
ATOM      4  C   LIG    1      -36.238  72.049  27.049  0.00  0.00    +0.129 A 
ATOM      5  C   LIG    1      -35.902  73.295  27.523  0.00  0.00    +0.078 A 
ENDROOT
BRANCH   3   6
ATOM      6  C   LIG    1      -35.046  69.806  27.200  0.00  0.00    +0.067 A 
ATOM      7  C   LIG    1      -34.450  69.339  26.018  0.00  0.00    +0.028 A 
ATOM      8  C   LIG    1      -34.278  67.965  25.813  0.00  0.00    +0.002 A 
ATOM      9  C   LIG    1      -34.710  67.050  26.773  0.00  0.00    +0.000 A 
ATOM     10  C   LIG    1      -35.307  67.505  27.945  0.00  0.00    +0.002 A 
ATOM     11  C   LIG    1      -35.462  68.878  28.168  0.00  0.00    +0.028 A 
ENDBRANCH   3   6
BRANCH   4  12
ATOM     12  N   LIG    1      -37.419  71.729  26.374  0.00  0.00    -0.266 N 
ATOM     13  H   LIG    1      -38.274  71.682  26.912  0.00  0.00    +0.157 HD
ATOM     14  C   LIG    1      -37.475  71.502  24.949  0.00  0.00    +0.251 C 
ATOM     15  O   LIG    1      -36.458  71.534  24.262  0.00  0.00    -0.270 OA
BRANCH  14  16
ATOM     16  C   LIG    1      -38.770  71.132  24.343  0.00  0.00    +0.056 A 
ATOM     17  C   LIG    1      -39.135  69.814  24.082  0.00  0.00    +0.054 A 
ATOM     18 CL   LIG    1      -38.145  68.450  24.456  0.00  0.00    -0.083 Cl
ATOM     19  C   LIG    1      -40.368  69.550  23.495  0.00  0.00    +0.041 A 
ATOM     20  C   LIG    1      -41.254  70.586  23.161  0.00  0.00    +0.052 A 
ATOM     21 CL   LIG    1      -42.688  70.054  22.349  0.00  0.00    -0.083 Cl
ATOM     22  C   LIG    1      -40.944  71.936  23.430  0.00  0.00    +0.019 A 
ATOM     23  C   LIG    1      -39.678  72.171  24.027  0.00  0.00    +0.026 A 
BRANCH  22  24
ATOM     24  C   LIG    1      -41.818  73.101  23.104  0.00  0.00    +0.073 A 
ATOM     25  N   LIG    1      -41.305  74.316  23.442  0.00  0.00    -0.252 NA
ATOM     26  C   LIG    1      -42.048  75.424  23.162  0.00  0.00    +0.149 A 
ATOM     27  C   LIG    1      -43.282  75.386  22.547  0.00  0.00    +0.141 A 
ATOM     28  F   LIG    1      -43.961  76.510  22.287  0.00  0.00    -0.204 F 
ATOM     29  C   LIG    1      -43.812  74.156  22.213  0.00  0.00    +0.042 A 
ATOM     30  C   LIG    1      -43.084  73.004  22.517  0.00  0.00    +0.031 A 
ENDBRANCH  22  24
ENDBRANCH  14  16
ENDBRANCH   4  12
BRANCH   1  31
ATOM     31  C   LIG    1      -33.819  74.265  28.647  0.00  0.00    +0.236 C 
ATOM     32  N   LIG    1      -33.690  75.348  27.970  0.00  0.00    -0.244 NA
BRANCH  31  33
ATOM     33  O   LIG    1      -33.213  74.045  29.836  0.00  0.00    -0.491 OA
ATOM     34  H   LIG    1      -32.544  74.733  30.000  0.00  0.00    +0.294 HD
ENDBRANCH  31  33
BRANCH  32  35
ATOM     35  C   LIG    1      -32.835  76.379  28.560  0.00  0.00    +0.183 C 
BRANCH  35  36
ATOM     36  C   LIG    1      -32.770  77.562  27.655  0.00  0.00    +0.011 A 
ATOM     37  C   LIG    1      -32.148  77.663  26.427  0.00  0.00    +0.110 A 
ATOM     38  N   LIG    1      -32.355  78.938  25.990  0.00  0.00    -0.284 N 
ATOM     39  H   LIG    1      -32.030  79.369  25.132  0.00  0.00    +0.188 HD
ATOM     40  N   LIG    1      -33.086  79.679  26.838  0.00  0.00    -0.182 NA
ATOM     41  C   LIG    1      -33.340  78.841  27.846  0.00  0.00    +0.139 A 
ENDBRANCH  35  36
ENDBRANCH  32  35
ENDBRANCH   1  31
TORSDOF 8
ENDMDL
MODEL 8
REMARK VINA RESULT:      -6.5      4.571      6.331
REMARK  Name = pdb/CHEMBL3971403.pdb
REMARK                            x       y       z     vdW  Elec       q    Type
REMARK                         _______ _______ _______ _____ _____    ______ ____
ROOT
ATOM      1  C   LIG    1      -22.636  82.941  15.438  0.00  0.00    +0.149 A 
ATOM      2  N   LIG    1      -21.709  82.077  15.888  0.00  0.00    -0.160 NA
ATOM      3  N   LIG    1      -22.043  80.875  15.313  0.00  0.00    -0.218 N 
ATOM      4  C   LIG    1      -23.217  80.974  14.561  0.00  0.00    +0.129 A 
ATOM      5  C   LIG    1      -23.628  82.279  14.688  0.00  0.00    +0.078 A 
ENDROOT
BRANCH   3   6
ATOM      6  C   LIG    1      -21.193  79.742  15.488  0.00  0.00    +0.067 A 
ATOM      7  C   LIG    1      -21.407  78.544  14.789  0.00  0.00    +0.028 A 
ATOM      8  C   LIG    1      -20.533  77.464  14.959  0.00  0.00    +0.002 A 
ATOM      9  C   LIG    1      -19.452  77.565  15.834  0.00  0.00    +0.000 A 
ATOM     10  C   LIG    1      -19.235  78.748  16.536  0.00  0.00    +0.002 A 
ATOM     11  C   LIG    1      -20.091  79.839  16.354  0.00  0.00    +0.028 A 
ENDBRANCH   3   6
BRANCH   4  12
ATOM     12  N   LIG    1      -23.906  79.968  13.878  0.00  0.00    -0.266 N 
ATOM     13  H   LIG    1      -23.519  79.640  13.002  0.00  0.00    +0.157 HD
ATOM     14  C   LIG    1      -25.114  79.358  14.382  0.00  0.00    +0.251 C 
ATOM     15  O   LIG    1      -25.624  79.737  15.432  0.00  0.00    -0.270 OA
BRANCH  14  16
ATOM     16  C   LIG    1      -25.782  78.329  13.560  0.00  0.00    +0.056 A 
ATOM     17  C   LIG    1      -25.344  77.009  13.495  0.00  0.00    +0.054 A 
ATOM     18 CL   LIG    1      -23.994  76.399  14.383  0.00  0.00    -0.083 Cl
ATOM     19  C   LIG    1      -26.020  76.104  12.685  0.00  0.00    +0.041 A 
ATOM     20  C   LIG    1      -27.138  76.493  11.929  0.00  0.00    +0.052 A 
ATOM     21 CL   LIG    1      -27.771  75.244  10.911  0.00  0.00    -0.083 Cl
ATOM     22  C   LIG    1      -27.639  77.812  11.981  0.00  0.00    +0.019 A 
ATOM     23  C   LIG    1      -26.925  78.710  12.816  0.00  0.00    +0.026 A 
BRANCH  22  24
ATOM     24  C   LIG    1      -28.812  78.316  11.209  0.00  0.00    +0.073 A 
ATOM     25  N   LIG    1      -29.913  78.599  11.959  0.00  0.00    -0.252 NA
ATOM     26  C   LIG    1      -31.018  79.074  11.319  0.00  0.00    +0.149 A 
ATOM     27  C   LIG    1      -31.082  79.296   9.959  0.00  0.00    +0.141 A 
ATOM     28  F   LIG    1      -32.192  79.776   9.386  0.00  0.00    -0.204 F 
ATOM     29  C   LIG    1      -29.972  79.000   9.193  0.00  0.00    +0.042 A 
ATOM     30  C   LIG    1      -28.837  78.483   9.821  0.00  0.00    +0.031 A 
ENDBRANCH  22  24
ENDBRANCH  14  16
ENDBRANCH   4  12
BRANCH   1  31
ATOM     31  C   LIG    1      -22.585  84.378  15.712  0.00  0.00    +0.236 C 
ATOM     32  N   LIG    1      -22.229  85.194  14.787  0.00  0.00    -0.244 NA
BRANCH  31  33
ATOM     33  O   LIG    1      -22.896  84.759  16.971  0.00  0.00    -0.491 OA
ATOM     34  H   LIG    1      -23.324  84.023  17.444  0.00  0.00    +0.294 HD
ENDBRANCH  31  33
BRANCH  32  35
ATOM     35  C   LIG    1      -22.179  86.609  15.159  0.00  0.00    +0.183 C 
BRANCH  35  36
ATOM     36  C   LIG    1      -21.165  87.316  14.326  0.00  0.00    +0.011 A 
ATOM     37  C   LIG    1      -21.299  88.516  13.656  0.00  0.00    +0.110 A 
ATOM     38  N   LIG    1      -20.110  88.745  13.029  0.00  0.00    -0.284 N 
ATOM     39  H   LIG    1      -19.853  89.525  12.435  0.00  0.00    +0.188 HD
ATOM     40  N   LIG    1      -19.197  87.788  13.254  0.00  0.00    -0.182 NA
ATOM     41  C   LIG    1      -19.837  86.924  14.044  0.00  0.00    +0.139 A 
ENDBRANCH  35  36
ENDBRANCH  32  35
ENDBRANCH   1  31
TORSDOF 8
ENDMDL
MODEL 9
REMARK VINA RESULT:      -6.5     17.736     20.555
REMARK  Name = pdb/CHEMBL3971403.pdb
REMARK                            x       y       z     vdW  Elec       q    Type
REMARK                         _______ _______ _______ _____ _____    ______ ____
ROOT
ATOM      1  C   LIG    1      -26.615  76.028  31.893  0.00  0.00    +0.149 A 
ATOM      2  N   LIG    1      -25.515  75.705  31.189  0.00  0.00    -0.160 NA
ATOM      3  N   LIG    1      -24.547  76.570  31.635  0.00  0.00    -0.218 N 
ATOM      4  C   LIG    1      -25.059  77.479  32.566  0.00  0.00    +0.129 A 
ATOM      5  C   LIG    1      -26.393  77.170  32.687  0.00  0.00    +0.078 A 
ENDROOT
BRANCH   3   6
ATOM      6  C   LIG    1      -23.203  76.434  31.173  0.00  0.00    +0.067 A 
ATOM      7  C   LIG    1      -22.211  75.829  31.960  0.00  0.00    +0.028 A 
ATOM      8  C   LIG    1      -20.912  75.680  31.461  0.00  0.00    +0.002 A 
ATOM      9  C   LIG    1      -20.589  76.143  30.186  0.00  0.00    +0.000 A 
ATOM     10  C   LIG    1      -21.567  76.749  29.401  0.00  0.00    +0.002 A 
ATOM     11  C   LIG    1      -22.873  76.881  29.884  0.00  0.00    +0.028 A 
ENDBRANCH   3   6
BRANCH   4  12
ATOM     12  N   LIG    1      -24.410  78.541  33.200  0.00  0.00    -0.266 N 
ATOM     13  H   LIG    1      -24.511  79.465  32.799  0.00  0.00    +0.157 HD
ATOM     14  C   LIG    1      -23.641  78.385  34.413  0.00  0.00    +0.251 C 
ATOM     15  O   LIG    1      -23.481  77.280  34.924  0.00  0.00    -0.270 OA
BRANCH  14  16
ATOM     16  C   LIG    1      -22.965  79.570  34.978  0.00  0.00    +0.056 A 
ATOM     17  C   LIG    1      -21.613  79.838  34.779  0.00  0.00    +0.054 A 
ATOM     18 CL   LIG    1      -20.566  78.847  33.829  0.00  0.00    -0.083 Cl
ATOM     19  C   LIG    1      -21.049  80.968  35.359  0.00  0.00    +0.041 A 
ATOM     20  C   LIG    1      -21.813  81.848  36.141  0.00  0.00    +0.052 A 
ATOM     21 CL   LIG    1      -20.901  83.135  36.853  0.00  0.00    -0.083 Cl
ATOM     22  C   LIG    1      -23.193  81.637  36.351  0.00  0.00    +0.019 A 
ATOM     23  C   LIG    1      -23.738  80.474  35.747  0.00  0.00    +0.026 A 
BRANCH  22  24
ATOM     24  C   LIG    1      -24.082  82.511  37.171  0.00  0.00    +0.073 A 
ATOM     25  N   LIG    1      -25.255  82.861  36.572  0.00  0.00    -0.252 NA
ATOM     26  C   LIG    1      -26.118  83.650  37.270  0.00  0.00    +0.149 A 
ATOM     27  C   LIG    1      -25.880  84.105  38.551  0.00  0.00    +0.141 A 
ATOM     28  F   LIG    1      -26.772  84.869  39.192  0.00  0.00    -0.204 F 
ATOM     29  C   LIG    1      -24.688  83.763  39.158  0.00  0.00    +0.042 A 
ATOM     30  C   LIG    1      -23.772  82.980  38.451  0.00  0.00    +0.031 A 
ENDBRANCH  22  24
ENDBRANCH  14  16
ENDBRANCH   4  12
BRANCH   1  31
ATOM     31  C   LIG    1      -27.862  75.265  31.818  0.00  0.00    +0.236 C 
ATOM     32  N   LIG    1      -28.958  75.858  31.508  0.00  0.00    -0.244 NA
BRANCH  31  33
ATOM     33  O   LIG    1      -27.778  73.950  32.120  0.00  0.00    -0.491 OA
ATOM     34  H   LIG    1      -28.037  73.415  31.349  0.00  0.00    +0.294 HD
ENDBRANCH  31  33
BRANCH  32  35
ATOM     35  C   LIG    1      -30.159  75.021  31.486  0.00  0.00    +0.183 C 
BRANCH  35  36
ATOM     36  C   LIG    1      -31.247  75.718  30.744  0.00  0.00    +0.011 A 
ATOM     37  C   LIG    1      -31.161  76.401  29.546  0.00  0.00    +0.110 A 
ATOM     38  N   LIG    1      -32.413  76.872  29.277  0.00  0.00    -0.284 N 
ATOM     39  H   LIG    1      -32.718  77.428  28.487  0.00  0.00    +0.188 HD
ATOM     40  N   LIG    1      -33.320  76.531  30.205  0.00  0.00    -0.182 NA
ATOM     41  C   LIG    1      -32.613  75.828  31.092  0.00  0.00    +0.139 A 
ENDBRANCH  35  36
ENDBRANCH  32  35
ENDBRANCH   1  31
TORSDOF 8
ENDMDL
