MODEL 1
REMARK VINA RESULT:      -6.9      0.000      0.000
REMARK  Name = pdb/CHEMBL3960393.pdb
REMARK                            x       y       z     vdW  Elec       q    Type
REMARK                         _______ _______ _______ _____ _____    ______ ____
ROOT
ATOM      1  C   LIG    1      -38.672  72.595  24.857  0.00  0.00    +0.126 A 
ATOM      2  N   LIG    1      -37.866  73.583  25.190  0.00  0.00    -0.211 NA
ATOM      3  C   LIG    1      -38.272  74.868  24.919  0.00  0.00    +0.179 A 
ATOM      4  C   LIG    1      -37.674  76.099  25.115  0.00  0.00    +0.098 A 
ATOM      5  C   LIG    1      -38.581  77.036  24.577  0.00  0.00    +0.160 A 
ATOM      6  N   LIG    1      -39.683  76.468  24.088  0.00  0.00    -0.171 NA
ATOM      7  N   LIG    1      -39.489  75.146  24.295  0.00  0.00    -0.220 N 
ATOM      8  C   LIG    1      -40.355  74.120  23.963  0.00  0.00    +0.118 A 
ATOM      9  C   LIG    1      -40.020  72.852  24.219  0.00  0.00    +0.063 A 
ENDROOT
BRANCH   1  11
ATOM     10  C   LIG    1      -37.609  70.447  24.058  0.00  0.00    +0.108 C 
ATOM     11  N   LIG    1      -38.276  71.279  25.073  0.00  0.00    -0.308 N 
ATOM     12  C   LIG    1      -38.316  70.604  26.368  0.00  0.00    +0.107 C 
ATOM     13  C   LIG    1      -37.697  69.234  26.138  0.00  0.00    +0.021 C 
ATOM     14  C   LIG    1      -36.814  69.446  24.922  0.00  0.00    +0.029 C 
BRANCH  10  18
ATOM     15  F   LIG    1      -42.148  69.068  22.719  0.00  0.00    -0.205 F 
ATOM     16  C   LIG    1      -40.838  69.115  22.449  0.00  0.00    +0.124 A 
ATOM     17  C   LIG    1      -39.973  69.705  23.367  0.00  0.00    +0.046 A 
ATOM     18  C   LIG    1      -38.592  69.770  23.114  0.00  0.00    +0.011 A 
ATOM     19  C   LIG    1      -38.134  69.229  21.903  0.00  0.00    +0.129 A 
ATOM     20  F   LIG    1      -36.830  69.280  21.597  0.00  0.00    -0.205 F 
ATOM     21  C   LIG    1      -39.002  68.631  20.986  0.00  0.00    +0.041 A 
ATOM     22  C   LIG    1      -40.366  68.574  21.261  0.00  0.00    +0.041 A 
ENDBRANCH  10  18
ENDBRANCH   1  11
BRANCH   4  23
ATOM     23  N   LIG    1      -36.443  76.293  25.715  0.00  0.00    -0.276 N 
ATOM     24  H   LIG    1      -35.635  76.408  25.108  0.00  0.00    +0.155 HD
ATOM     25  C   LIG    1      -36.269  76.432  27.074  0.00  0.00    +0.267 C 
ATOM     26  O   LIG    1      -37.166  76.428  27.921  0.00  0.00    -0.268 OA
BRANCH  25  27
ATOM     27  C   LIG    1      -34.853  76.631  27.506  0.00  0.00    +0.127 A 
ATOM     28  N   LIG    1      -34.281  77.828  27.195  0.00  0.00    -0.250 NA
ATOM     29  C   LIG    1      -33.001  78.005  27.587  0.00  0.00    +0.113 A 
ATOM     30  C   LIG    1      -32.265  77.051  28.267  0.00  0.00    +0.040 A 
ATOM     31  C   LIG    1      -32.885  75.843  28.563  0.00  0.00    +0.045 A 
ATOM     32 CL   LIG    1      -32.012  74.621  29.402  0.00  0.00    -0.083 Cl
ATOM     33  C   LIG    1      -34.199  75.615  28.186  0.00  0.00    +0.053 A 
ENDBRANCH  25  27
ENDBRANCH   4  23
TORSDOF 4
ENDMDL
MODEL 2
REMARK VINA RESULT:      -6.8      2.085      3.738
REMARK  Name = pdb/CHEMBL3960393.pdb
REMARK                            x       y       z     vdW  Elec       q    Type
REMARK                         _______ _______ _______ _____ _____    ______ ____
ROOT
ATOM      1  C   LIG    1      -39.106  73.017  24.597  0.00  0.00    +0.126 A 
ATOM      2  N   LIG    1      -38.208  73.908  24.966  0.00  0.00    -0.211 NA
ATOM      3  C   LIG    1      -38.504  75.239  24.783  0.00  0.00    +0.179 A 
ATOM      4  C   LIG    1      -37.795  76.399  25.034  0.00  0.00    +0.098 A 
ATOM      5  C   LIG    1      -38.626  77.442  24.577  0.00  0.00    +0.160 A 
ATOM      6  N   LIG    1      -39.786  77.004  24.087  0.00  0.00    -0.171 NA
ATOM      7  N   LIG    1      -39.706  75.659  24.210  0.00  0.00    -0.220 N 
ATOM      8  C   LIG    1      -40.666  74.735  23.843  0.00  0.00    +0.118 A 
ATOM      9  C   LIG    1      -40.440  73.430  24.013  0.00  0.00    +0.063 A 
ENDROOT
BRANCH   1  11
ATOM     10  C   LIG    1      -38.569  70.994  26.011  0.00  0.00    +0.108 C 
ATOM     11  N   LIG    1      -38.824  71.661  24.724  0.00  0.00    -0.308 N 
ATOM     12  C   LIG    1      -38.904  70.693  23.633  0.00  0.00    +0.107 C 
ATOM     13  C   LIG    1      -38.613  69.339  24.260  0.00  0.00    +0.021 C 
ATOM     14  C   LIG    1      -38.988  69.538  25.718  0.00  0.00    +0.029 C 
BRANCH  10  18
ATOM     15  F   LIG    1      -33.761  69.984  25.611  0.00  0.00    -0.205 F 
ATOM     16  C   LIG    1      -34.747  70.633  26.242  0.00  0.00    +0.124 A 
ATOM     17  C   LIG    1      -36.061  70.451  25.820  0.00  0.00    +0.046 A 
ATOM     18  C   LIG    1      -37.121  71.118  26.461  0.00  0.00    +0.011 A 
ATOM     19  C   LIG    1      -36.792  71.973  27.524  0.00  0.00    +0.129 A 
ATOM     20  F   LIG    1      -37.757  72.651  28.161  0.00  0.00    -0.205 F 
ATOM     21  C   LIG    1      -35.473  72.149  27.950  0.00  0.00    +0.041 A 
ATOM     22  C   LIG    1      -34.442  71.474  27.302  0.00  0.00    +0.041 A 
ENDBRANCH  10  18
ENDBRANCH   1  11
BRANCH   4  23
ATOM     23  N   LIG    1      -36.538  76.447  25.609  0.00  0.00    -0.276 N 
ATOM     24  H   LIG    1      -35.739  76.570  24.991  0.00  0.00    +0.155 HD
ATOM     25  C   LIG    1      -36.319  76.433  26.969  0.00  0.00    +0.267 C 
ATOM     26  O   LIG    1      -37.193  76.401  27.841  0.00  0.00    -0.268 OA
BRANCH  25  27
ATOM     27  C   LIG    1      -34.882  76.491  27.372  0.00  0.00    +0.127 A 
ATOM     28  N   LIG    1      -34.169  77.569  26.942  0.00  0.00    -0.250 NA
ATOM     29  C   LIG    1      -32.871  77.619  27.308  0.00  0.00    +0.113 A 
ATOM     30  C   LIG    1      -32.249  76.650  28.074  0.00  0.00    +0.040 A 
ATOM     31  C   LIG    1      -33.011  75.566  28.492  0.00  0.00    +0.045 A 
ATOM     32 CL   LIG    1      -32.285  74.330  29.443  0.00  0.00    -0.083 Cl
ATOM     33  C   LIG    1      -34.350  75.471  28.146  0.00  0.00    +0.053 A 
ENDBRANCH  25  27
ENDBRANCH   4  23
TORSDOF 4
ENDMDL
MODEL 3
REMARK VINA RESULT:      -6.7      4.319      9.062
REMARK  Name = pdb/CHEMBL3960393.pdb
REMARK                            x       y       z     vdW  Elec       q    Type
REMARK                         _______ _______ _______ _____ _____    ______ ____
ROOT
ATOM      1  C   LIG    1      -37.234  79.586  28.236  0.00  0.00    +0.126 A 
ATOM      2  N   LIG    1      -37.876  78.764  27.430  0.00  0.00    -0.211 NA
ATOM      3  C   LIG    1      -38.683  79.308  26.460  0.00  0.00    +0.179 A 
ATOM      4  C   LIG    1      -39.492  78.745  25.490  0.00  0.00    +0.098 A 
ATOM      5  C   LIG    1      -40.100  79.839  24.841  0.00  0.00    +0.160 A 
ATOM      6  N   LIG    1      -39.711  81.016  25.332  0.00  0.00    -0.171 NA
ATOM      7  N   LIG    1      -38.849  80.688  26.321  0.00  0.00    -0.220 N 
ATOM      8  C   LIG    1      -38.163  81.561  27.144  0.00  0.00    +0.118 A 
ATOM      9  C   LIG    1      -37.350  81.089  28.094  0.00  0.00    +0.063 A 
ENDROOT
BRANCH   1  11
ATOM     10  C   LIG    1      -35.091  79.559  29.574  0.00  0.00    +0.108 C 
ATOM     11  N   LIG    1      -36.445  79.072  29.259  0.00  0.00    -0.308 N 
ATOM     12  C   LIG    1      -36.904  78.106  30.254  0.00  0.00    +0.107 C 
ATOM     13  C   LIG    1      -35.742  77.921  31.217  0.00  0.00    +0.021 C 
ATOM     14  C   LIG    1      -34.955  79.211  31.071  0.00  0.00    +0.029 C 
BRANCH  10  18
ATOM     15  F   LIG    1      -31.989  75.893  28.465  0.00  0.00    -0.205 F 
ATOM     16  C   LIG    1      -32.507  77.089  28.158  0.00  0.00    +0.124 A 
ATOM     17  C   LIG    1      -33.454  77.658  29.004  0.00  0.00    +0.046 A 
ATOM     18  C   LIG    1      -34.018  78.913  28.711  0.00  0.00    +0.011 A 
ATOM     19  C   LIG    1      -33.593  79.549  27.535  0.00  0.00    +0.129 A 
ATOM     20  F   LIG    1      -34.110  80.737  27.192  0.00  0.00    -0.205 F 
ATOM     21  C   LIG    1      -32.638  78.979  26.690  0.00  0.00    +0.041 A 
ATOM     22  C   LIG    1      -32.091  77.737  27.004  0.00  0.00    +0.041 A 
ENDBRANCH  10  18
ENDBRANCH   1  11
BRANCH   4  23
ATOM     23  N   LIG    1      -39.628  77.388  25.266  0.00  0.00    -0.276 N 
ATOM     24  H   LIG    1      -40.521  76.958  25.496  0.00  0.00    +0.155 HD
ATOM     25  C   LIG    1      -38.660  76.611  24.667  0.00  0.00    +0.267 C 
ATOM     26  O   LIG    1      -37.576  77.014  24.234  0.00  0.00    -0.268 OA
BRANCH  25  27
ATOM     27  C   LIG    1      -39.015  75.167  24.525  0.00  0.00    +0.127 A 
ATOM     28  N   LIG    1      -40.252  74.887  24.029  0.00  0.00    -0.250 NA
ATOM     29  C   LIG    1      -40.571  73.581  23.902  0.00  0.00    +0.113 A 
ATOM     30  C   LIG    1      -39.722  72.546  24.249  0.00  0.00    +0.040 A 
ATOM     31  C   LIG    1      -38.469  72.874  24.752  0.00  0.00    +0.045 A 
ATOM     32 CL   LIG    1      -37.378  71.623  25.203  0.00  0.00    -0.083 Cl
ATOM     33  C   LIG    1      -38.094  74.200  24.897  0.00  0.00    +0.053 A 
ENDBRANCH  25  27
ENDBRANCH   4  23
TORSDOF 4
ENDMDL
MODEL 4
REMARK VINA RESULT:      -6.7      3.553      6.281
REMARK  Name = pdb/CHEMBL3960393.pdb
REMARK                            x       y       z     vdW  Elec       q    Type
REMARK                         _______ _______ _______ _____ _____    ______ ____
ROOT
ATOM      1  C   LIG    1      -33.293  73.434  29.022  0.00  0.00    +0.126 A 
ATOM      2  N   LIG    1      -34.008  74.214  28.235  0.00  0.00    -0.211 NA
ATOM      3  C   LIG    1      -33.590  75.512  28.057  0.00  0.00    +0.179 A 
ATOM      4  C   LIG    1      -34.107  76.571  27.334  0.00  0.00    +0.098 A 
ATOM      5  C   LIG    1      -33.242  77.652  27.600  0.00  0.00    +0.160 A 
ATOM      6  N   LIG    1      -32.236  77.324  28.412  0.00  0.00    -0.171 NA
ATOM      7  N   LIG    1      -32.455  76.019  28.691  0.00  0.00    -0.220 N 
ATOM      8  C   LIG    1      -31.682  75.205  29.499  0.00  0.00    +0.118 A 
ATOM      9  C   LIG    1      -32.031  73.930  29.695  0.00  0.00    +0.063 A 
ENDROOT
BRANCH   1  11
ATOM     10  C   LIG    1      -33.719  71.070  28.242  0.00  0.00    +0.108 C 
ATOM     11  N   LIG    1      -33.710  72.130  29.263  0.00  0.00    -0.308 N 
ATOM     12  C   LIG    1      -34.035  71.596  30.584  0.00  0.00    +0.107 C 
ATOM     13  C   LIG    1      -34.334  70.120  30.369  0.00  0.00    +0.021 C 
ATOM     14  C   LIG    1      -33.582  69.790  29.093  0.00  0.00    +0.029 C 
BRANCH  10  18
ATOM     15  F   LIG    1      -38.396  72.358  27.368  0.00  0.00    -0.205 F 
ATOM     16  C   LIG    1      -37.279  71.747  26.955  0.00  0.00    +0.124 A 
ATOM     17  C   LIG    1      -36.167  71.720  27.792  0.00  0.00    +0.046 A 
ATOM     18  C   LIG    1      -34.978  71.086  27.389  0.00  0.00    +0.011 A 
ATOM     19  C   LIG    1      -34.964  70.500  26.114  0.00  0.00    +0.129 A 
ATOM     20  F   LIG    1      -33.853  69.898  25.666  0.00  0.00    -0.205 F 
ATOM     21  C   LIG    1      -36.083  70.521  25.278  0.00  0.00    +0.041 A 
ATOM     22  C   LIG    1      -37.250  71.151  25.702  0.00  0.00    +0.041 A 
ENDBRANCH  10  18
ENDBRANCH   1  11
BRANCH   4  23
ATOM     23  N   LIG    1      -35.240  76.509  26.543  0.00  0.00    -0.276 N 
ATOM     24  H   LIG    1      -35.113  76.345  25.547  0.00  0.00    +0.155 HD
ATOM     25  C   LIG    1      -36.523  76.563  27.041  0.00  0.00    +0.267 C 
ATOM     26  O   LIG    1      -36.832  76.647  28.233  0.00  0.00    -0.268 OA
BRANCH  25  27
ATOM     27  C   LIG    1      -37.599  76.482  26.008  0.00  0.00    +0.127 A 
ATOM     28  N   LIG    1      -38.072  77.664  25.524  0.00  0.00    -0.250 NA
ATOM     29  C   LIG    1      -39.045  77.587  24.590  0.00  0.00    +0.113 A 
ATOM     30  C   LIG    1      -39.569  76.396  24.121  0.00  0.00    +0.040 A 
ATOM     31  C   LIG    1      -39.060  75.213  24.642  0.00  0.00    +0.045 A 
ATOM     32 CL   LIG    1      -39.682  73.705  24.098  0.00  0.00    -0.083 Cl
ATOM     33  C   LIG    1      -38.058  75.239  25.599  0.00  0.00    +0.053 A 
ENDBRANCH  25  27
ENDBRANCH   4  23
TORSDOF 4
ENDMDL
MODEL 5
REMARK VINA RESULT:      -6.5      4.682      6.969
REMARK  Name = pdb/CHEMBL3960393.pdb
REMARK                            x       y       z     vdW  Elec       q    Type
REMARK                         _______ _______ _______ _____ _____    ______ ____
ROOT
ATOM      1  C   LIG    1      -38.936  69.099  23.241  0.00  0.00    +0.126 A 
ATOM      2  N   LIG    1      -37.858  68.718  23.897  0.00  0.00    -0.211 NA
ATOM      3  C   LIG    1      -36.807  68.206  23.173  0.00  0.00    +0.179 A 
ATOM      4  C   LIG    1      -35.571  67.707  23.542  0.00  0.00    +0.098 A 
ATOM      5  C   LIG    1      -34.972  67.289  22.336  0.00  0.00    +0.160 A 
ATOM      6  N   LIG    1      -35.740  67.511  21.270  0.00  0.00    -0.171 NA
ATOM      7  N   LIG    1      -36.861  68.067  21.785  0.00  0.00    -0.220 N 
ATOM      8  C   LIG    1      -37.975  68.485  21.082  0.00  0.00    +0.118 A 
ATOM      9  C   LIG    1      -39.020  69.007  21.732  0.00  0.00    +0.063 A 
ENDROOT
BRANCH   1  11
ATOM     10  C   LIG    1      -40.865  70.710  23.493  0.00  0.00    +0.108 C 
ATOM     11  N   LIG    1      -40.036  69.579  23.942  0.00  0.00    -0.308 N 
ATOM     12  C   LIG    1      -40.613  68.934  25.119  0.00  0.00    +0.107 C 
ATOM     13  C   LIG    1      -41.846  69.751  25.474  0.00  0.00    +0.021 C 
ATOM     14  C   LIG    1      -42.224  70.408  24.159  0.00  0.00    +0.029 C 
BRANCH  10  18
ATOM     15  F   LIG    1      -37.389  73.550  25.529  0.00  0.00    -0.205 F 
ATOM     16  C   LIG    1      -38.558  73.454  24.883  0.00  0.00    +0.124 A 
ATOM     17  C   LIG    1      -39.065  72.195  24.575  0.00  0.00    +0.046 A 
ATOM     18  C   LIG    1      -40.289  72.058  23.897  0.00  0.00    +0.011 A 
ATOM     19  C   LIG    1      -40.961  73.238  23.541  0.00  0.00    +0.129 A 
ATOM     20  F   LIG    1      -42.123  73.172  22.876  0.00  0.00    -0.205 F 
ATOM     21  C   LIG    1      -40.454  74.501  23.857  0.00  0.00    +0.041 A 
ATOM     22  C   LIG    1      -39.242  74.610  24.532  0.00  0.00    +0.041 A 
ENDBRANCH  10  18
ENDBRANCH   1  11
BRANCH   4  23
ATOM     23  N   LIG    1      -35.095  67.657  24.839  0.00  0.00    -0.276 N 
ATOM     24  H   LIG    1      -35.176  66.774  25.338  0.00  0.00    +0.155 HD
ATOM     25  C   LIG    1      -34.437  68.701  25.452  0.00  0.00    +0.267 C 
ATOM     26  O   LIG    1      -34.167  69.788  24.934  0.00  0.00    -0.268 OA
BRANCH  25  27
ATOM     27  C   LIG    1      -34.010  68.432  26.858  0.00  0.00    +0.127 A 
ATOM     28  N   LIG    1      -34.318  67.206  27.366  0.00  0.00    -0.250 NA
ATOM     29  C   LIG    1      -33.931  66.965  28.637  0.00  0.00    +0.113 A 
ATOM     30  C   LIG    1      -33.259  67.883  29.424  0.00  0.00    +0.040 A 
ATOM     31  C   LIG    1      -32.965  69.122  28.868  0.00  0.00    +0.045 A 
ATOM     32 CL   LIG    1      -32.136  70.301  29.806  0.00  0.00    -0.083 Cl
ATOM     33  C   LIG    1      -33.337  69.415  27.566  0.00  0.00    +0.053 A 
ENDBRANCH  25  27
ENDBRANCH   4  23
TORSDOF 4
ENDMDL
MODEL 6
REMARK VINA RESULT:      -6.5      4.208      8.750
REMARK  Name = pdb/CHEMBL3960393.pdb
REMARK                            x       y       z     vdW  Elec       q    Type
REMARK                         _______ _______ _______ _____ _____    ______ ____
ROOT
ATOM      1  C   LIG    1      -38.007  78.747  27.239  0.00  0.00    +0.126 A 
ATOM      2  N   LIG    1      -38.230  77.719  26.445  0.00  0.00    -0.211 NA
ATOM      3  C   LIG    1      -39.007  77.918  25.329  0.00  0.00    +0.179 A 
ATOM      4  C   LIG    1      -39.441  77.071  24.327  0.00  0.00    +0.098 A 
ATOM      5  C   LIG    1      -40.252  77.871  23.497  0.00  0.00    +0.160 A 
ATOM      6  N   LIG    1      -40.329  79.136  23.911  0.00  0.00    -0.171 NA
ATOM      7  N   LIG    1      -39.571  79.160  25.031  0.00  0.00    -0.220 N 
ATOM      8  C   LIG    1      -39.326  80.253  25.841  0.00  0.00    +0.118 A 
ATOM      9  C   LIG    1      -38.563  80.121  26.930  0.00  0.00    +0.063 A 
ENDROOT
BRANCH   1  11
ATOM     10  C   LIG    1      -36.047  79.339  28.718  0.00  0.00    +0.108 C 
ATOM     11  N   LIG    1      -37.264  78.574  28.401  0.00  0.00    -0.308 N 
ATOM     12  C   LIG    1      -37.673  77.740  29.528  0.00  0.00    +0.107 C 
ATOM     13  C   LIG    1      -36.609  77.939  30.597  0.00  0.00    +0.021 C 
ATOM     14  C   LIG    1      -36.023  79.298  30.260  0.00  0.00    +0.029 C 
BRANCH  10  18
ATOM     15  F   LIG    1      -33.383  75.559  27.011  0.00  0.00    -0.205 F 
ATOM     16  C   LIG    1      -33.499  76.875  27.224  0.00  0.00    +0.124 A 
ATOM     17  C   LIG    1      -34.643  77.366  27.847  0.00  0.00    +0.046 A 
ATOM     18  C   LIG    1      -34.798  78.743  28.086  0.00  0.00    +0.011 A 
ATOM     19  C   LIG    1      -33.761  79.589  27.661  0.00  0.00    +0.129 A 
ATOM     20  F   LIG    1      -33.860  80.913  27.843  0.00  0.00    -0.205 F 
ATOM     21  C   LIG    1      -32.610  79.094  27.042  0.00  0.00    +0.041 A 
ATOM     22  C   LIG    1      -32.479  77.726  26.821  0.00  0.00    +0.041 A 
ENDBRANCH  10  18
ENDBRANCH   1  11
BRANCH   4  23
ATOM     23  N   LIG    1      -39.111  75.732  24.227  0.00  0.00    -0.276 N 
ATOM     24  H   LIG    1      -38.242  75.493  23.754  0.00  0.00    +0.155 HD
ATOM     25  C   LIG    1      -39.841  74.719  24.810  0.00  0.00    +0.267 C 
ATOM     26  O   LIG    1      -40.850  74.865  25.505  0.00  0.00    -0.268 OA
BRANCH  25  27
ATOM     27  C   LIG    1      -39.306  73.345  24.573  0.00  0.00    +0.127 A 
ATOM     28  N   LIG    1      -38.023  73.112  24.968  0.00  0.00    -0.250 NA
ATOM     29  C   LIG    1      -37.541  71.869  24.753  0.00  0.00    +0.113 A 
ATOM     30  C   LIG    1      -38.270  70.853  24.162  0.00  0.00    +0.040 A 
ATOM     31  C   LIG    1      -39.574  71.133  23.772  0.00  0.00    +0.045 A 
ATOM     32 CL   LIG    1      -40.522  69.906  23.026  0.00  0.00    -0.083 Cl
ATOM     33  C   LIG    1      -40.116  72.392  23.975  0.00  0.00    +0.053 A 
ENDBRANCH  25  27
ENDBRANCH   4  23
TORSDOF 4
ENDMDL
MODEL 7
REMARK VINA RESULT:      -6.1      5.097      8.325
REMARK  Name = pdb/CHEMBL3960393.pdb
REMARK                            x       y       z     vdW  Elec       q    Type
REMARK                         _______ _______ _______ _____ _____    ______ ____
ROOT
ATOM      1  C   LIG    1      -39.097  69.720  25.911  0.00  0.00    +0.126 A 
ATOM      2  N   LIG    1      -38.171  68.877  25.499  0.00  0.00    -0.211 NA
ATOM      3  C   LIG    1      -37.223  68.464  26.404  0.00  0.00    +0.179 A 
ATOM      4  C   LIG    1      -36.130  67.624  26.297  0.00  0.00    +0.098 A 
ATOM      5  C   LIG    1      -35.524  67.648  27.570  0.00  0.00    +0.160 A 
ATOM      6  N   LIG    1      -36.174  68.423  28.439  0.00  0.00    -0.171 NA
ATOM      7  N   LIG    1      -37.207  68.921  27.723  0.00  0.00    -0.220 N 
ATOM      8  C   LIG    1      -38.186  69.786  28.175  0.00  0.00    +0.118 A 
ATOM      9  C   LIG    1      -39.144  70.208  27.343  0.00  0.00    +0.063 A 
ENDROOT
BRANCH   1  11
ATOM     10  C   LIG    1      -39.713  70.963  23.800  0.00  0.00    +0.108 C 
ATOM     11  N   LIG    1      -40.045  70.197  25.013  0.00  0.00    -0.308 N 
ATOM     12  C   LIG    1      -41.467  69.867  25.058  0.00  0.00    +0.107 C 
ATOM     13  C   LIG    1      -42.082  70.525  23.832  0.00  0.00    +0.021 C 
ATOM     14  C   LIG    1      -40.910  70.654  22.876  0.00  0.00    +0.029 C 
BRANCH  10  18
ATOM     15  F   LIG    1      -41.327  75.620  23.862  0.00  0.00    -0.205 F 
ATOM     16  C   LIG    1      -40.350  74.741  24.122  0.00  0.00    +0.124 A 
ATOM     17  C   LIG    1      -40.543  73.398  23.813  0.00  0.00    +0.046 A 
ATOM     18  C   LIG    1      -39.538  72.449  24.072  0.00  0.00    +0.011 A 
ATOM     19  C   LIG    1      -38.352  72.915  24.661  0.00  0.00    +0.129 A 
ATOM     20  F   LIG    1      -37.365  72.054  24.950  0.00  0.00    -0.205 F 
ATOM     21  C   LIG    1      -38.158  74.264  24.964  0.00  0.00    +0.041 A 
ATOM     22  C   LIG    1      -39.167  75.185  24.694  0.00  0.00    +0.041 A 
ENDBRANCH  10  18
ENDBRANCH   1  11
BRANCH   4  23
ATOM     23  N   LIG    1      -35.767  66.941  25.151  0.00  0.00    -0.276 N 
ATOM     24  H   LIG    1      -36.097  65.985  25.045  0.00  0.00    +0.155 HD
ATOM     25  C   LIG    1      -35.069  67.513  24.110  0.00  0.00    +0.267 C 
ATOM     26  O   LIG    1      -34.701  68.690  24.047  0.00  0.00    -0.268 OA
BRANCH  25  27
ATOM     27  C   LIG    1      -34.781  66.593  22.969  0.00  0.00    +0.127 A 
ATOM     28  N   LIG    1      -34.022  67.095  21.955  0.00  0.00    -0.250 NA
ATOM     29  C   LIG    1      -33.763  66.261  20.925  0.00  0.00    +0.113 A 
ATOM     30  C   LIG    1      -34.224  64.959  20.854  0.00  0.00    +0.040 A 
ATOM     31  C   LIG    1      -34.996  64.486  21.909  0.00  0.00    +0.045 A 
ATOM     32 CL   LIG    1      -35.599  62.876  21.868  0.00  0.00    -0.083 Cl
ATOM     33  C   LIG    1      -35.285  65.302  22.991  0.00  0.00    +0.053 A 
ENDBRANCH  25  27
ENDBRANCH   4  23
TORSDOF 4
ENDMDL
MODEL 8
REMARK VINA RESULT:      -6.1      4.304      7.123
REMARK  Name = pdb/CHEMBL3960393.pdb
REMARK                            x       y       z     vdW  Elec       q    Type
REMARK                         _______ _______ _______ _____ _____    ______ ____
ROOT
ATOM      1  C   LIG    1      -36.103  68.026  23.067  0.00  0.00    +0.126 A 
ATOM      2  N   LIG    1      -36.404  69.195  23.596  0.00  0.00    -0.211 NA
ATOM      3  C   LIG    1      -35.956  69.467  24.867  0.00  0.00    +0.179 A 
ATOM      4  C   LIG    1      -36.108  70.559  25.700  0.00  0.00    +0.098 A 
ATOM      5  C   LIG    1      -35.451  70.202  26.895  0.00  0.00    +0.160 A 
ATOM      6  N   LIG    1      -34.902  68.988  26.842  0.00  0.00    -0.171 NA
ATOM      7  N   LIG    1      -35.215  68.541  25.605  0.00  0.00    -0.220 N 
ATOM      8  C   LIG    1      -34.871  67.321  25.053  0.00  0.00    +0.118 A 
ATOM      9  C   LIG    1      -35.265  67.010  23.815  0.00  0.00    +0.063 A 
ENDROOT
BRANCH   1  11
ATOM     10  C   LIG    1      -36.626  66.323  21.276  0.00  0.00    +0.108 C 
ATOM     11  N   LIG    1      -36.578  67.697  21.803  0.00  0.00    -0.308 N 
ATOM     12  C   LIG    1      -37.240  68.634  20.898  0.00  0.00    +0.107 C 
ATOM     13  C   LIG    1      -37.671  67.810  19.694  0.00  0.00    +0.021 C 
ATOM     14  C   LIG    1      -37.776  66.402  20.251  0.00  0.00    +0.029 C 
BRANCH  10  18
ATOM     15  F   LIG    1      -31.998  67.151  19.793  0.00  0.00    -0.205 F 
ATOM     16  C   LIG    1      -33.015  66.294  19.952  0.00  0.00    +0.124 A 
ATOM     17  C   LIG    1      -34.218  66.756  20.480  0.00  0.00    +0.046 A 
ATOM     18  C   LIG    1      -35.306  65.883  20.660  0.00  0.00    +0.011 A 
ATOM     19  C   LIG    1      -35.119  64.541  20.298  0.00  0.00    +0.129 A 
ATOM     20  F   LIG    1      -36.113  63.657  20.465  0.00  0.00    -0.205 F 
ATOM     21  C   LIG    1      -33.913  64.080  19.763  0.00  0.00    +0.041 A 
ATOM     22  C   LIG    1      -32.852  64.965  19.590  0.00  0.00    +0.041 A 
ENDBRANCH  10  18
ENDBRANCH   1  11
BRANCH   4  23
ATOM     23  N   LIG    1      -36.780  71.720  25.365  0.00  0.00    -0.276 N 
ATOM     24  H   LIG    1      -36.223  72.525  25.085  0.00  0.00    +0.155 HD
ATOM     25  C   LIG    1      -38.153  71.817  25.299  0.00  0.00    +0.267 C 
ATOM     26  O   LIG    1      -38.952  70.899  25.500  0.00  0.00    -0.268 OA
BRANCH  25  27
ATOM     27  C   LIG    1      -38.667  73.167  24.919  0.00  0.00    +0.127 A 
ATOM     28  N   LIG    1      -37.848  74.227  25.170  0.00  0.00    -0.250 NA
ATOM     29  C   LIG    1      -38.315  75.446  24.825  0.00  0.00    +0.113 A 
ATOM     30  C   LIG    1      -39.555  75.660  24.250  0.00  0.00    +0.040 A 
ATOM     31  C   LIG    1      -40.360  74.553  24.012  0.00  0.00    +0.045 A 
ATOM     32 CL   LIG    1      -41.913  74.766  23.303  0.00  0.00    -0.083 Cl
ATOM     33  C   LIG    1      -39.923  73.280  24.344  0.00  0.00    +0.053 A 
ENDBRANCH  25  27
ENDBRANCH   4  23
TORSDOF 4
ENDMDL
MODEL 9
REMARK VINA RESULT:      -6.0     18.577     20.477
REMARK  Name = pdb/CHEMBL3960393.pdb
REMARK                            x       y       z     vdW  Elec       q    Type
REMARK                         _______ _______ _______ _____ _____    ______ ____
ROOT
ATOM      1  C   LIG    1      -33.455  93.623  20.565  0.00  0.00    +0.126 A 
ATOM      2  N   LIG    1      -33.338  93.591  21.877  0.00  0.00    -0.211 NA
ATOM      3  C   LIG    1      -32.171  94.058  22.435  0.00  0.00    +0.179 A 
ATOM      4  C   LIG    1      -31.727  94.145  23.741  0.00  0.00    +0.098 A 
ATOM      5  C   LIG    1      -30.421  94.669  23.649  0.00  0.00    +0.160 A 
ATOM      6  N   LIG    1      -30.050  94.920  22.393  0.00  0.00    -0.171 NA
ATOM      7  N   LIG    1      -31.119  94.543  21.655  0.00  0.00    -0.220 N 
ATOM      8  C   LIG    1      -31.238  94.605  20.280  0.00  0.00    +0.118 A 
ATOM      9  C   LIG    1      -32.356  94.180  19.684  0.00  0.00    +0.063 A 
ENDROOT
BRANCH   1  11
ATOM     10  C   LIG    1      -34.882  91.679  19.814  0.00  0.00    +0.108 C 
ATOM     11  N   LIG    1      -34.600  93.117  19.962  0.00  0.00    -0.308 N 
ATOM     12  C   LIG    1      -35.744  93.925  19.546  0.00  0.00    +0.107 C 
ATOM     13  C   LIG    1      -36.785  92.939  19.041  0.00  0.00    +0.021 C 
ATOM     14  C   LIG    1      -36.424  91.649  19.755  0.00  0.00    +0.029 C 
BRANCH  10  18
ATOM     15  F   LIG    1      -32.107  91.964  15.751  0.00  0.00    -0.205 F 
ATOM     16  C   LIG    1      -32.836  91.219  16.591  0.00  0.00    +0.124 A 
ATOM     17  C   LIG    1      -33.454  91.827  17.680  0.00  0.00    +0.046 A 
ATOM     18  C   LIG    1      -34.226  91.074  18.582  0.00  0.00    +0.011 A 
ATOM     19  C   LIG    1      -34.332  89.696  18.341  0.00  0.00    +0.129 A 
ATOM     20  F   LIG    1      -35.039  88.923  19.178  0.00  0.00    -0.205 F 
ATOM     21  C   LIG    1      -33.717  89.088  17.244  0.00  0.00    +0.041 A 
ATOM     22  C   LIG    1      -32.961  89.856  16.363  0.00  0.00    +0.041 A 
ENDBRANCH  10  18
ENDBRANCH   1  11
BRANCH   4  23
ATOM     23  N   LIG    1      -32.462  93.773  24.851  0.00  0.00    -0.276 N 
ATOM     24  H   LIG    1      -33.119  94.450  25.232  0.00  0.00    +0.155 HD
ATOM     25  C   LIG    1      -32.421  92.514  25.408  0.00  0.00    +0.267 C 
ATOM     26  O   LIG    1      -31.759  91.560  24.989  0.00  0.00    -0.268 OA
BRANCH  25  27
ATOM     27  C   LIG    1      -33.295  92.330  26.606  0.00  0.00    +0.127 A 
ATOM     28  N   LIG    1      -34.267  93.264  26.802  0.00  0.00    -0.250 NA
ATOM     29  C   LIG    1      -35.055  93.096  27.886  0.00  0.00    +0.113 A 
ATOM     30  C   LIG    1      -34.920  92.050  28.781  0.00  0.00    +0.040 A 
ATOM     31  C   LIG    1      -33.915  91.120  28.545  0.00  0.00    +0.045 A 
ATOM     32 CL   LIG    1      -33.700  89.804  29.632  0.00  0.00    -0.083 Cl
ATOM     33  C   LIG    1      -33.082  91.247  27.444  0.00  0.00    +0.053 A 
ENDBRANCH  25  27
ENDBRANCH   4  23
TORSDOF 4
ENDMDL
