MODEL 1
REMARK VINA RESULT:      -6.7      0.000      0.000
REMARK  Name = modded_pdb/CHEMBL1983268_nitrogen_modded_with_ethanol_version_1.pdb
REMARK                            x       y       z     vdW  Elec       q    Type
REMARK                         _______ _______ _______ _____ _____    ______ ____
ROOT
ATOM      1  C   LIG    1      -21.896  81.026  15.915  0.00  0.00    +0.250 C 
ATOM      2  N   LIG    1      -20.844  80.617  15.023  0.00  0.00    -0.267 N 
ATOM      3  O   LIG    1      -21.660  81.684  16.907  0.00  0.00    -0.270 OA
ENDROOT
BRANCH   2   4
ATOM      4  C   LIG    1      -21.049  79.625  14.045  0.00  0.00    +0.193 C 
ATOM      5  C   LIG    1      -20.918  78.212  14.185  0.00  0.00    +0.020 A 
ATOM      6  C   LIG    1      -20.499  77.316  15.179  0.00  0.00    +0.013 A 
ATOM      7  C   LIG    1      -20.423  75.944  14.882  0.00  0.00    -0.043 A 
ATOM      8  C   LIG    1      -20.943  75.467  13.667  0.00  0.00    +0.006 A 
ATOM      9  C   LIG    1      -21.467  76.328  12.702  0.00  0.00    +0.025 A 
ATOM     10  C   LIG    1      -21.377  77.685  12.980  0.00  0.00    +0.050 A 
ATOM     11  N   LIG    1      -21.681  78.772  12.222  0.00  0.00    -0.260 N 
ATOM     12  H   LIG    1      -22.136  78.801  11.315  0.00  0.00    +0.168 HD
ATOM     13  N   LIG    1      -21.187  79.901  12.738  0.00  0.00    -0.110 NA
BRANCH   7  14
ATOM     14  C   LIG    1      -19.813  74.986  15.880  0.00  0.00    +0.070 C 
BRANCH  14  15
ATOM     15  C   LIG    1      -20.799  74.198  16.722  0.00  0.00    -0.038 A 
ATOM     16  C   LIG    1      -20.394  73.487  17.863  0.00  0.00    +0.042 A 
ATOM     17  C   LIG    1      -21.317  72.711  18.572  0.00  0.00    +0.126 A 
ATOM     18  F   LIG    1      -20.905  72.005  19.633  0.00  0.00    -0.205 F 
ATOM     19  C   LIG    1      -22.649  72.642  18.189  0.00  0.00    +0.076 A 
ATOM     20  C   LIG    1      -23.055  73.367  17.081  0.00  0.00    +0.126 A 
ATOM     21  F   LIG    1      -24.335  73.316  16.691  0.00  0.00    -0.205 F 
ATOM     22  C   LIG    1      -22.152  74.136  16.350  0.00  0.00    +0.042 A 
ENDBRANCH  14  15
ENDBRANCH   7  14
ENDBRANCH   2   4
BRANCH   1  26
ATOM     23  C   LIG    1      -25.573  79.325  14.374  0.00  0.00    +0.032 A 
ATOM     24  C   LIG    1      -25.007  80.535  13.980  0.00  0.00    +0.046 A 
ATOM     25  C   LIG    1      -24.125  81.391  14.653  0.00  0.00    +0.041 A 
ATOM     26  C   LIG    1      -23.382  80.703  15.627  0.00  0.00    +0.058 A 
ATOM     27  C   LIG    1      -23.935  79.504  16.047  0.00  0.00    +0.017 A 
ATOM     28  C   LIG    1      -25.091  78.891  15.564  0.00  0.00    +0.024 A 
BRANCH  23  33
ATOM     29  C   LIG    1      -26.317  75.983  11.234  0.00  0.00    +0.105 C 
ATOM     30  N   LIG    1      -27.552  76.659  11.633  0.00  0.00    -0.302 NA
ATOM     31  C   LIG    1      -27.497  78.100  11.324  0.00  0.00    +0.103 C 
ATOM     32  C   LIG    1      -26.485  78.925  12.154  0.00  0.00    +0.120 C 
ATOM     33  N   LIG    1      -26.562  78.667  13.619  0.00  0.00    -0.327 N 
ATOM     34  C   LIG    1      -26.791  77.253  13.983  0.00  0.00    +0.120 C 
ATOM     35  C   LIG    1      -27.808  76.533  13.080  0.00  0.00    +0.103 C 
ENDBRANCH  23  33
BRANCH  25  36
ATOM     36  N   LIG    1      -23.997  82.730  14.265  0.00  0.00    -0.340 N 
ATOM     37  H   LIG    1      -24.918  83.098  14.021  0.00  0.00    +0.146 HD
BRANCH  36  38
ATOM     38  C   LIG    1      -22.957  83.323  13.336  0.00  0.00    +0.075 C 
ATOM     39  C   LIG    1      -21.974  84.329  13.938  0.00  0.00    +0.050 C 
ATOM     40  C   LIG    1      -22.536  85.739  13.958  0.00  0.00    +0.161 C 
ATOM     41  O   LIG    1      -22.998  86.157  12.668  0.00  0.00    -0.380 OA
ATOM     42  C   LIG    1      -23.915  85.290  12.005  0.00  0.00    +0.161 C 
ATOM     43  C   LIG    1      -23.468  83.843  11.986  0.00  0.00    +0.050 C 
ENDBRANCH  36  38
ENDBRANCH  25  36
ENDBRANCH   1  26
BRANCH   2  44
ATOM     44  C   LIG    1      -19.428  80.987  15.292  0.00  0.00    +0.138 C 
BRANCH  44  45
ATOM     45  C   LIG    1      -18.555  80.167  16.248  0.00  0.00    +0.175 C 
BRANCH  45  46
ATOM     46  O   LIG    1      -17.513  80.996  16.782  0.00  0.00    -0.393 OA
ATOM     47  H   LIG    1      -16.672  80.578  16.525  0.00  0.00    +0.209 HD
ENDBRANCH  45  46
ENDBRANCH  44  45
ENDBRANCH   2  44
TORSDOF 10
ENDMDL
MODEL 2
REMARK VINA RESULT:      -6.5      4.178      8.716
REMARK  Name = modded_pdb/CHEMBL1983268_nitrogen_modded_with_ethanol_version_1.pdb
REMARK                            x       y       z     vdW  Elec       q    Type
REMARK                         _______ _______ _______ _____ _____    ______ ____
ROOT
ATOM      1  C   LIG    1      -22.880  80.771  15.749  0.00  0.00    +0.250 C 
ATOM      2  N   LIG    1      -23.687  80.176  14.716  0.00  0.00    -0.267 N 
ATOM      3  O   LIG    1      -22.706  80.212  16.812  0.00  0.00    -0.270 OA
ENDROOT
BRANCH   2   4
ATOM      4  C   LIG    1      -24.136  80.922  13.609  0.00  0.00    +0.193 C 
ATOM      5  C   LIG    1      -23.469  81.142  12.368  0.00  0.00    +0.020 A 
ATOM      6  C   LIG    1      -22.216  80.842  11.812  0.00  0.00    +0.013 A 
ATOM      7  C   LIG    1      -21.893  81.339  10.537  0.00  0.00    -0.043 A 
ATOM      8  C   LIG    1      -22.885  81.962   9.763  0.00  0.00    +0.006 A 
ATOM      9  C   LIG    1      -24.174  82.177  10.251  0.00  0.00    +0.025 A 
ATOM     10  C   LIG    1      -24.398  81.806  11.571  0.00  0.00    +0.050 A 
ATOM     11  N   LIG    1      -25.481  81.978  12.373  0.00  0.00    -0.260 N 
ATOM     12  H   LIG    1      -26.399  82.335  12.126  0.00  0.00    +0.168 HD
ATOM     13  N   LIG    1      -25.201  81.739  13.658  0.00  0.00    -0.110 NA
BRANCH   7  14
ATOM     14  C   LIG    1      -20.492  81.173   9.993  0.00  0.00    +0.070 C 
BRANCH  14  15
ATOM     15  C   LIG    1      -19.444  82.099  10.583  0.00  0.00    -0.038 A 
ATOM     16  C   LIG    1      -18.573  81.676  11.600  0.00  0.00    +0.042 A 
ATOM     17  C   LIG    1      -17.670  82.579  12.172  0.00  0.00    +0.126 A 
ATOM     18  F   LIG    1      -16.876  82.170  13.170  0.00  0.00    -0.205 F 
ATOM     19  C   LIG    1      -17.592  83.895  11.741  0.00  0.00    +0.076 A 
ATOM     20  C   LIG    1      -18.431  84.305  10.717  0.00  0.00    +0.126 A 
ATOM     21  F   LIG    1      -18.376  85.571  10.284  0.00  0.00    -0.205 F 
ATOM     22  C   LIG    1      -19.349  83.428  10.141  0.00  0.00    +0.042 A 
ENDBRANCH  14  15
ENDBRANCH   7  14
ENDBRANCH   2   4
BRANCH   1  26
ATOM     23  C   LIG    1      -21.174  84.369  14.038  0.00  0.00    +0.032 A 
ATOM     24  C   LIG    1      -20.476  83.206  14.353  0.00  0.00    +0.046 A 
ATOM     25  C   LIG    1      -20.769  82.186  15.268  0.00  0.00    +0.041 A 
ATOM     26  C   LIG    1      -22.146  82.116  15.538  0.00  0.00    +0.058 A 
ATOM     27  C   LIG    1      -22.859  83.268  15.248  0.00  0.00    +0.017 A 
ATOM     28  C   LIG    1      -22.373  84.439  14.666  0.00  0.00    +0.024 A 
BRANCH  23  33
ATOM     29  C   LIG    1      -20.978  88.946  13.260  0.00  0.00    +0.105 C 
ATOM     30  N   LIG    1      -20.229  88.177  12.265  0.00  0.00    -0.302 NA
ATOM     31  C   LIG    1      -21.107  87.241  11.538  0.00  0.00    +0.103 C 
ATOM     32  C   LIG    1      -21.679  86.072  12.375  0.00  0.00    +0.120 C 
ATOM     33  N   LIG    1      -20.652  85.362  13.188  0.00  0.00    -0.327 N 
ATOM     34  C   LIG    1      -19.637  86.243  13.802  0.00  0.00    +0.120 C 
ATOM     35  C   LIG    1      -19.153  87.377  12.881  0.00  0.00    +0.103 C 
ENDBRANCH  23  33
BRANCH  25  36
ATOM     36  N   LIG    1      -19.761  81.329  15.725  0.00  0.00    -0.340 N 
ATOM     37  H   LIG    1      -19.064  81.872  16.237  0.00  0.00    +0.146 HD
BRANCH  36  38
ATOM     38  C   LIG    1      -19.067  80.228  14.948  0.00  0.00    +0.075 C 
ATOM     39  C   LIG    1      -19.952  79.267  14.152  0.00  0.00    +0.050 C 
ATOM     40  C   LIG    1      -20.470  78.124  15.007  0.00  0.00    +0.161 C 
ATOM     41  O   LIG    1      -19.415  77.434  15.686  0.00  0.00    -0.380 OA
ATOM     42  C   LIG    1      -18.518  78.231  16.454  0.00  0.00    +0.161 C 
ATOM     43  C   LIG    1      -17.991  79.437  15.703  0.00  0.00    +0.050 C 
ENDBRANCH  36  38
ENDBRANCH  25  36
ENDBRANCH   1  26
BRANCH   2  44
ATOM     44  C   LIG    1      -24.338  78.855  14.922  0.00  0.00    +0.138 C 
BRANCH  44  45
ATOM     45  C   LIG    1      -25.852  78.675  14.765  0.00  0.00    +0.175 C 
BRANCH  45  46
ATOM     46  O   LIG    1      -26.488  78.787  16.046  0.00  0.00    -0.393 OA
ATOM     47  H   LIG    1      -27.428  78.578  15.904  0.00  0.00    +0.209 HD
ENDBRANCH  45  46
ENDBRANCH  44  45
ENDBRANCH   2  44
TORSDOF 10
ENDMDL
MODEL 3
REMARK VINA RESULT:      -6.5      3.489      5.497
REMARK  Name = modded_pdb/CHEMBL1983268_nitrogen_modded_with_ethanol_version_1.pdb
REMARK                            x       y       z     vdW  Elec       q    Type
REMARK                         _______ _______ _______ _____ _____    ______ ____
ROOT
ATOM      1  C   LIG    1      -21.764  83.674  11.392  0.00  0.00    +0.250 C 
ATOM      2  N   LIG    1      -21.214  84.523  12.416  0.00  0.00    -0.267 N 
ATOM      3  O   LIG    1      -21.357  83.721  10.249  0.00  0.00    -0.270 OA
ENDROOT
BRANCH   2   4
ATOM      4  C   LIG    1      -21.856  84.693  13.658  0.00  0.00    +0.193 C 
ATOM      5  C   LIG    1      -21.963  83.757  14.728  0.00  0.00    +0.020 A 
ATOM      6  C   LIG    1      -21.613  82.418  14.956  0.00  0.00    +0.013 A 
ATOM      7  C   LIG    1      -21.992  81.803  16.162  0.00  0.00    -0.043 A 
ATOM      8  C   LIG    1      -22.543  82.581  17.194  0.00  0.00    +0.006 A 
ATOM      9  C   LIG    1      -22.803  83.942  17.032  0.00  0.00    +0.025 A 
ATOM     10  C   LIG    1      -22.553  84.467  15.771  0.00  0.00    +0.050 A 
ATOM     11  N   LIG    1      -22.798  85.700  15.255  0.00  0.00    -0.260 N 
ATOM     12  H   LIG    1      -23.132  86.530  15.735  0.00  0.00    +0.168 HD
ATOM     13  N   LIG    1      -22.676  85.723  13.924  0.00  0.00    -0.110 NA
BRANCH   7  14
ATOM     14  C   LIG    1      -21.777  80.320  16.356  0.00  0.00    +0.070 C 
BRANCH  14  15
ATOM     15  C   LIG    1      -22.778  79.414  15.664  0.00  0.00    -0.038 A 
ATOM     16  C   LIG    1      -24.144  79.733  15.602  0.00  0.00    +0.042 A 
ATOM     17  C   LIG    1      -25.049  78.838  15.022  0.00  0.00    +0.126 A 
ATOM     18  F   LIG    1      -26.354  79.139  15.009  0.00  0.00    -0.205 F 
ATOM     19  C   LIG    1      -24.627  77.635  14.475  0.00  0.00    +0.076 A 
ATOM     20  C   LIG    1      -23.275  77.333  14.510  0.00  0.00    +0.126 A 
ATOM     21  F   LIG    1      -22.843  76.177  13.990  0.00  0.00    -0.205 F 
ATOM     22  C   LIG    1      -22.356  78.202  15.095  0.00  0.00    +0.042 A 
ENDBRANCH  14  15
ENDBRANCH   7  14
ENDBRANCH   2   4
BRANCH   1  26
ATOM     23  C   LIG    1      -24.750  80.546  11.090  0.00  0.00    +0.032 A 
ATOM     24  C   LIG    1      -25.007  81.910  11.211  0.00  0.00    +0.046 A 
ATOM     25  C   LIG    1      -24.221  82.943  11.739  0.00  0.00    +0.041 A 
ATOM     26  C   LIG    1      -22.854  82.621  11.702  0.00  0.00    +0.058 A 
ATOM     27  C   LIG    1      -22.573  81.268  11.599  0.00  0.00    +0.017 A 
ATOM     28  C   LIG    1      -23.487  80.223  11.463  0.00  0.00    +0.024 A 
BRANCH  23  33
ATOM     29  C   LIG    1      -28.403  78.015  12.443  0.00  0.00    +0.105 C 
ATOM     30  N   LIG    1      -28.082  77.822  11.029  0.00  0.00    -0.302 NA
ATOM     31  C   LIG    1      -26.716  77.293  10.857  0.00  0.00    +0.103 C 
ATOM     32  C   LIG    1      -25.571  78.261  11.240  0.00  0.00    +0.120 C 
ATOM     33  N   LIG    1      -25.723  79.625  10.661  0.00  0.00    -0.327 N 
ATOM     34  C   LIG    1      -27.109  80.137  10.649  0.00  0.00    +0.120 C 
ATOM     35  C   LIG    1      -28.162  79.082  10.266  0.00  0.00    +0.103 C 
ENDBRANCH  23  33
BRANCH  25  36
ATOM     36  N   LIG    1      -24.806  84.150  12.137  0.00  0.00    -0.340 N 
ATOM     37  H   LIG    1      -25.470  83.969  12.892  0.00  0.00    +0.146 HD
BRANCH  36  38
ATOM     38  C   LIG    1      -25.350  85.248  11.245  0.00  0.00    +0.075 C 
ATOM     39  C   LIG    1      -26.868  85.313  11.062  0.00  0.00    +0.050 C 
ATOM     40  C   LIG    1      -27.352  84.389   9.959  0.00  0.00    +0.161 C 
ATOM     41  O   LIG    1      -26.659  84.608   8.725  0.00  0.00    -0.380 OA
ATOM     42  C   LIG    1      -25.236  84.580   8.776  0.00  0.00    +0.161 C 
ATOM     43  C   LIG    1      -24.656  85.429   9.889  0.00  0.00    +0.050 C 
ENDBRANCH  36  38
ENDBRANCH  25  36
ENDBRANCH   1  26
BRANCH   2  44
ATOM     44  C   LIG    1      -20.127  85.489  12.104  0.00  0.00    +0.138 C 
BRANCH  44  45
ATOM     45  C   LIG    1      -18.895  85.626  13.005  0.00  0.00    +0.175 C 
BRANCH  45  46
ATOM     46  O   LIG    1      -19.042  86.773  13.855  0.00  0.00    -0.393 OA
ATOM     47  H   LIG    1      -18.398  87.432  13.539  0.00  0.00    +0.209 HD
ENDBRANCH  45  46
ENDBRANCH  44  45
ENDBRANCH   2  44
TORSDOF 10
ENDMDL
MODEL 4
REMARK VINA RESULT:      -6.5     10.718     15.936
REMARK  Name = modded_pdb/CHEMBL1983268_nitrogen_modded_with_ethanol_version_1.pdb
REMARK                            x       y       z     vdW  Elec       q    Type
REMARK                         _______ _______ _______ _____ _____    ______ ____
ROOT
ATOM      1  C   LIG    1      -25.763  64.687  17.575  0.00  0.00    +0.250 C 
ATOM      2  N   LIG    1      -27.025  65.377  17.618  0.00  0.00    -0.267 N 
ATOM      3  O   LIG    1      -25.619  63.678  16.917  0.00  0.00    -0.270 OA
ENDROOT
BRANCH   2   4
ATOM      4  C   LIG    1      -27.296  66.364  18.585  0.00  0.00    +0.193 C 
ATOM      5  C   LIG    1      -27.054  67.766  18.501  0.00  0.00    +0.020 A 
ATOM      6  C   LIG    1      -26.443  68.648  17.598  0.00  0.00    +0.013 A 
ATOM      7  C   LIG    1      -26.317  70.006  17.938  0.00  0.00    -0.043 A 
ATOM      8  C   LIG    1      -26.966  70.497  19.083  0.00  0.00    +0.006 A 
ATOM      9  C   LIG    1      -27.674  69.658  19.945  0.00  0.00    +0.025 A 
ATOM     10  C   LIG    1      -27.638  68.303  19.646  0.00  0.00    +0.050 A 
ATOM     11  N   LIG    1      -28.115  67.227  20.327  0.00  0.00    -0.260 N 
ATOM     12  H   LIG    1      -28.691  67.214  21.163  0.00  0.00    +0.168 HD
ATOM     13  N   LIG    1      -27.631  66.075  19.853  0.00  0.00    -0.110 NA
BRANCH   7  14
ATOM     14  C   LIG    1      -25.514  70.936  17.059  0.00  0.00    +0.070 C 
BRANCH  14  15
ATOM     15  C   LIG    1      -24.014  70.930  17.291  0.00  0.00    -0.038 A 
ATOM     16  C   LIG    1      -23.383  71.910  18.073  0.00  0.00    +0.042 A 
ATOM     17  C   LIG    1      -21.990  71.915  18.204  0.00  0.00    +0.126 A 
ATOM     18  F   LIG    1      -21.401  72.882  18.919  0.00  0.00    -0.205 F 
ATOM     19  C   LIG    1      -21.203  70.950  17.592  0.00  0.00    +0.076 A 
ATOM     20  C   LIG    1      -21.828  69.966  16.845  0.00  0.00    +0.126 A 
ATOM     21  F   LIG    1      -21.089  69.024  16.243  0.00  0.00    -0.205 F 
ATOM     22  C   LIG    1      -23.213  69.947  16.688  0.00  0.00    +0.042 A 
ENDBRANCH  14  15
ENDBRANCH   7  14
ENDBRANCH   2   4
BRANCH   1  26
ATOM     23  C   LIG    1      -21.738  65.301  19.063  0.00  0.00    +0.032 A 
ATOM     24  C   LIG    1      -22.780  64.692  19.758  0.00  0.00    +0.046 A 
ATOM     25  C   LIG    1      -24.168  64.811  19.608  0.00  0.00    +0.041 A 
ATOM     26  C   LIG    1      -24.513  65.227  18.311  0.00  0.00    +0.058 A 
ATOM     27  C   LIG    1      -23.497  65.851  17.606  0.00  0.00    +0.017 A 
ATOM     28  C   LIG    1      -22.178  66.043  18.017  0.00  0.00    +0.024 A 
BRANCH  23  33
ATOM     29  C   LIG    1      -17.949  62.637  18.698  0.00  0.00    +0.105 C 
ATOM     30  N   LIG    1      -17.723  63.820  19.529  0.00  0.00    -0.302 NA
ATOM     31  C   LIG    1      -18.625  63.836  20.695  0.00  0.00    +0.103 C 
ATOM     32  C   LIG    1      -20.126  64.041  20.378  0.00  0.00    +0.120 C 
ATOM     33  N   LIG    1      -20.391  65.173  19.448  0.00  0.00    -0.327 N 
ATOM     34  C   LIG    1      -19.410  65.309  18.351  0.00  0.00    +0.120 C 
ATOM     35  C   LIG    1      -17.952  65.072  18.783  0.00  0.00    +0.103 C 
ENDBRANCH  23  33
BRANCH  25  36
ATOM     36  N   LIG    1      -25.030  64.443  20.648  0.00  0.00    -0.340 N 
ATOM     37  H   LIG    1      -24.845  65.030  21.462  0.00  0.00    +0.146 HD
BRANCH  36  38
ATOM     38  C   LIG    1      -25.369  63.039  21.109  0.00  0.00    +0.075 C 
ATOM     39  C   LIG    1      -24.569  62.478  22.286  0.00  0.00    +0.050 C 
ATOM     40  C   LIG    1      -23.260  61.849  21.842  0.00  0.00    +0.161 C 
ATOM     41  O   LIG    1      -23.450  60.870  20.815  0.00  0.00    -0.380 OA
ATOM     42  C   LIG    1      -24.192  61.279  19.670  0.00  0.00    +0.161 C 
ATOM     43  C   LIG    1      -25.494  61.974  20.012  0.00  0.00    +0.050 C 
ENDBRANCH  36  38
ENDBRANCH  25  36
ENDBRANCH   1  26
BRANCH   2  44
ATOM     44  C   LIG    1      -28.198  64.869  16.856  0.00  0.00    +0.138 C 
BRANCH  44  45
ATOM     45  C   LIG    1      -29.174  63.858  17.469  0.00  0.00    +0.175 C 
BRANCH  45  46
ATOM     46  O   LIG    1      -28.455  62.699  17.913  0.00  0.00    -0.393 OA
ATOM     47  H   LIG    1      -29.088  62.163  18.422  0.00  0.00    +0.209 HD
ENDBRANCH  45  46
ENDBRANCH  44  45
ENDBRANCH   2  44
TORSDOF 10
ENDMDL
MODEL 5
REMARK VINA RESULT:      -6.4     17.739     20.387
REMARK  Name = modded_pdb/CHEMBL1983268_nitrogen_modded_with_ethanol_version_1.pdb
REMARK                            x       y       z     vdW  Elec       q    Type
REMARK                         _______ _______ _______ _____ _____    ______ ____
ROOT
ATOM      1  C   LIG    1      -35.470  77.295  27.858  0.00  0.00    +0.250 C 
ATOM      2  N   LIG    1      -34.125  76.927  28.215  0.00  0.00    -0.267 N 
ATOM      3  O   LIG    1      -35.700  78.300  27.219  0.00  0.00    -0.270 OA
ENDROOT
BRANCH   2   4
ATOM      4  C   LIG    1      -33.861  75.944  29.187  0.00  0.00    +0.193 C 
ATOM      5  C   LIG    1      -33.782  74.531  29.009  0.00  0.00    +0.020 A 
ATOM      6  C   LIG    1      -33.993  73.617  27.967  0.00  0.00    +0.013 A 
ATOM      7  C   LIG    1      -33.900  72.239  28.230  0.00  0.00    -0.043 A 
ATOM      8  C   LIG    1      -33.415  71.802  29.474  0.00  0.00    +0.006 A 
ATOM      9  C   LIG    1      -33.093  72.696  30.495  0.00  0.00    +0.025 A 
ATOM     10  C   LIG    1      -33.349  74.036  30.237  0.00  0.00    +0.050 A 
ATOM     11  N   LIG    1      -33.259  75.130  31.039  0.00  0.00    -0.260 N 
ATOM     12  H   LIG    1      -32.885  75.194  31.980  0.00  0.00    +0.168 HD
ATOM     13  N   LIG    1      -33.864  76.197  30.506  0.00  0.00    -0.110 NA
BRANCH   7  14
ATOM     14  C   LIG    1      -34.291  71.237  27.168  0.00  0.00    +0.070 C 
BRANCH  14  15
ATOM     15  C   LIG    1      -35.776  71.132  26.877  0.00  0.00    -0.038 A 
ATOM     16  C   LIG    1      -36.309  71.469  25.623  0.00  0.00    +0.042 A 
ATOM     17  C   LIG    1      -37.693  71.432  25.415  0.00  0.00    +0.126 A 
ATOM     18  F   LIG    1      -38.188  71.798  24.225  0.00  0.00    -0.205 F 
ATOM     19  C   LIG    1      -38.566  71.043  26.420  0.00  0.00    +0.076 A 
ATOM     20  C   LIG    1      -38.037  70.682  27.649  0.00  0.00    +0.126 A 
ATOM     21  F   LIG    1      -38.860  70.304  28.636  0.00  0.00    -0.205 F 
ATOM     22  C   LIG    1      -36.664  70.724  27.885  0.00  0.00    +0.042 A 
ENDBRANCH  14  15
ENDBRANCH   7  14
ENDBRANCH   2   4
BRANCH   1  26
ATOM     23  C   LIG    1      -38.063  74.266  29.559  0.00  0.00    +0.032 A 
ATOM     24  C   LIG    1      -37.483  74.225  28.293  0.00  0.00    +0.046 A 
ATOM     25  C   LIG    1      -37.019  75.260  27.469  0.00  0.00    +0.041 A 
ATOM     26  C   LIG    1      -36.682  76.401  28.215  0.00  0.00    +0.058 A 
ATOM     27  C   LIG    1      -37.261  76.471  29.472  0.00  0.00    +0.017 A 
ATOM     28  C   LIG    1      -38.070  75.515  30.085  0.00  0.00    +0.024 A 
BRANCH  23  33
ATOM     29  C   LIG    1      -39.853  72.629  33.522  0.00  0.00    +0.105 C 
ATOM     30  N   LIG    1      -39.800  71.613  32.470  0.00  0.00    -0.302 NA
ATOM     31  C   LIG    1      -38.415  71.380  32.019  0.00  0.00    +0.103 C 
ATOM     32  C   LIG    1      -37.752  72.555  31.260  0.00  0.00    +0.120 C 
ATOM     33  N   LIG    1      -38.606  73.127  30.182  0.00  0.00    -0.327 N 
ATOM     34  C   LIG    1      -40.042  73.222  30.520  0.00  0.00    +0.120 C 
ATOM     35  C   LIG    1      -40.586  72.002  31.285  0.00  0.00    +0.103 C 
ENDBRANCH  23  33
BRANCH  25  36
ATOM     36  N   LIG    1      -36.852  75.054  26.095  0.00  0.00    -0.340 N 
ATOM     37  H   LIG    1      -35.913  75.350  25.822  0.00  0.00    +0.146 HD
BRANCH  36  38
ATOM     38  C   LIG    1      -37.827  75.400  24.987  0.00  0.00    +0.075 C 
ATOM     39  C   LIG    1      -37.934  76.872  24.583  0.00  0.00    +0.050 C 
ATOM     40  C   LIG    1      -38.904  77.638  25.466  0.00  0.00    +0.161 C 
ATOM     41  O   LIG    1      -40.189  77.011  25.530  0.00  0.00    -0.380 OA
ATOM     42  C   LIG    1      -40.212  75.633  25.888  0.00  0.00    +0.161 C 
ATOM     43  C   LIG    1      -39.230  74.790  25.100  0.00  0.00    +0.050 C 
ENDBRANCH  36  38
ENDBRANCH  25  36
ENDBRANCH   1  26
BRANCH   2  44
ATOM     44  C   LIG    1      -32.971  77.775  27.811  0.00  0.00    +0.138 C 
BRANCH  44  45
ATOM     45  C   LIG    1      -32.247  77.558  26.478  0.00  0.00    +0.175 C 
BRANCH  45  46
ATOM     46  O   LIG    1      -32.254  78.776  25.720  0.00  0.00    -0.393 OA
ATOM     47  H   LIG    1      -32.871  79.377  26.174  0.00  0.00    +0.209 HD
ENDBRANCH  45  46
ENDBRANCH  44  45
ENDBRANCH   2  44
TORSDOF 10
ENDMDL
MODEL 6
REMARK VINA RESULT:      -6.3     16.455     20.255
REMARK  Name = modded_pdb/CHEMBL1983268_nitrogen_modded_with_ethanol_version_1.pdb
REMARK                            x       y       z     vdW  Elec       q    Type
REMARK                         _______ _______ _______ _____ _____    ______ ____
ROOT
ATOM      1  C   LIG    1      -24.134  72.897  33.198  0.00  0.00    +0.250 C 
ATOM      2  N   LIG    1      -24.872  73.258  32.015  0.00  0.00    -0.267 N 
ATOM      3  O   LIG    1      -24.131  71.758  33.614  0.00  0.00    -0.270 OA
ENDROOT
BRANCH   2   4
ATOM      4  C   LIG    1      -25.126  74.602  31.684  0.00  0.00    +0.193 C 
ATOM      5  C   LIG    1      -24.282  75.509  30.978  0.00  0.00    +0.020 A 
ATOM      6  C   LIG    1      -22.979  75.502  30.459  0.00  0.00    +0.013 A 
ATOM      7  C   LIG    1      -22.457  76.678  29.892  0.00  0.00    -0.043 A 
ATOM      8  C   LIG    1      -23.302  77.780  29.681  0.00  0.00    +0.006 A 
ATOM      9  C   LIG    1      -24.635  77.776  30.092  0.00  0.00    +0.025 A 
ATOM     10  C   LIG    1      -25.058  76.649  30.784  0.00  0.00    +0.050 A 
ATOM     11  N   LIG    1      -26.235  76.376  31.408  0.00  0.00    -0.260 N 
ATOM     12  H   LIG    1      -27.091  76.921  31.406  0.00  0.00    +0.168 HD
ATOM     13  N   LIG    1      -26.148  75.304  32.201  0.00  0.00    -0.110 NA
BRANCH   7  14
ATOM     14  C   LIG    1      -21.003  76.740  29.483  0.00  0.00    +0.070 C 
BRANCH  14  15
ATOM     15  C   LIG    1      -20.010  76.933  30.614  0.00  0.00    -0.038 A 
ATOM     16  C   LIG    1      -19.079  75.940  30.956  0.00  0.00    +0.042 A 
ATOM     17  C   LIG    1      -18.229  76.123  32.053  0.00  0.00    +0.126 A 
ATOM     18  F   LIG    1      -17.376  75.147  32.392  0.00  0.00    -0.205 F 
ATOM     19  C   LIG    1      -18.264  77.285  32.810  0.00  0.00    +0.076 A 
ATOM     20  C   LIG    1      -19.162  78.277  32.453  0.00  0.00    +0.126 A 
ATOM     21  F   LIG    1      -19.216  79.408  33.169  0.00  0.00    -0.205 F 
ATOM     22  C   LIG    1      -20.029  78.113  31.374  0.00  0.00    +0.042 A 
ENDBRANCH  14  15
ENDBRANCH   7  14
ENDBRANCH   2   4
BRANCH   1  26
ATOM     23  C   LIG    1      -22.296  76.540  34.659  0.00  0.00    +0.032 A 
ATOM     24  C   LIG    1      -21.735  75.655  33.743  0.00  0.00    +0.046 A 
ATOM     25  C   LIG    1      -21.981  74.293  33.522  0.00  0.00    +0.041 A 
ATOM     26  C   LIG    1      -23.264  73.924  33.961  0.00  0.00    +0.058 A 
ATOM     27  C   LIG    1      -23.836  74.781  34.886  0.00  0.00    +0.017 A 
ATOM     28  C   LIG    1      -23.311  75.982  35.364  0.00  0.00    +0.024 A 
BRANCH  23  33
ATOM     29  C   LIG    1      -22.504  80.287  37.399  0.00  0.00    +0.105 C 
ATOM     30  N   LIG    1      -21.617  80.482  36.251  0.00  0.00    -0.302 NA
ATOM     31  C   LIG    1      -22.348  80.335  34.979  0.00  0.00    +0.103 C 
ATOM     32  C   LIG    1      -22.855  78.909  34.659  0.00  0.00    +0.120 C 
ATOM     33  N   LIG    1      -21.820  77.852  34.838  0.00  0.00    -0.327 N 
ATOM     34  C   LIG    1      -20.941  78.046  36.011  0.00  0.00    +0.120 C 
ATOM     35  C   LIG    1      -20.511  79.506  36.235  0.00  0.00    +0.103 C 
ENDBRANCH  23  33
BRANCH  25  36
ATOM     36  N   LIG    1      -21.043  73.500  32.850  0.00  0.00    -0.340 N 
ATOM     37  H   LIG    1      -21.499  73.034  32.064  0.00  0.00    +0.146 HD
BRANCH  36  38
ATOM     38  C   LIG    1      -20.021  72.564  33.464  0.00  0.00    +0.075 C 
ATOM     39  C   LIG    1      -20.526  71.212  33.971  0.00  0.00    +0.050 C 
ATOM     40  C   LIG    1      -21.069  71.298  35.387  0.00  0.00    +0.161 C 
ATOM     41  O   LIG    1      -20.130  71.886  36.293  0.00  0.00    -0.380 OA
ATOM     42  C   LIG    1      -19.583  73.147  35.918  0.00  0.00    +0.161 C 
ATOM     43  C   LIG    1      -19.066  73.180  34.494  0.00  0.00    +0.050 C 
ENDBRANCH  36  38
ENDBRANCH  25  36
ENDBRANCH   1  26
BRANCH   2  44
ATOM     44  C   LIG    1      -25.657  72.240  31.266  0.00  0.00    +0.138 C 
BRANCH  44  45
ATOM     45  C   LIG    1      -27.042  71.787  31.745  0.00  0.00    +0.175 C 
BRANCH  45  46
ATOM     46  O   LIG    1      -28.024  72.765  31.379  0.00  0.00    -0.393 OA
ATOM     47  H   LIG    1      -28.486  73.010  32.201  0.00  0.00    +0.209 HD
ENDBRANCH  45  46
ENDBRANCH  44  45
ENDBRANCH   2  44
TORSDOF 10
ENDMDL
MODEL 7
REMARK VINA RESULT:      -6.3     17.921     20.143
REMARK  Name = modded_pdb/CHEMBL1983268_nitrogen_modded_with_ethanol_version_1.pdb
REMARK                            x       y       z     vdW  Elec       q    Type
REMARK                         _______ _______ _______ _____ _____    ______ ____
ROOT
ATOM      1  C   LIG    1      -33.240  78.093  28.753  0.00  0.00    +0.250 C 
ATOM      2  N   LIG    1      -34.411  78.766  29.252  0.00  0.00    -0.267 N 
ATOM      3  O   LIG    1      -32.335  78.709  28.231  0.00  0.00    -0.270 OA
ENDROOT
BRANCH   2   4
ATOM      4  C   LIG    1      -35.581  78.059  29.590  0.00  0.00    +0.193 C 
ATOM      5  C   LIG    1      -36.456  77.341  28.722  0.00  0.00    +0.020 A 
ATOM      6  C   LIG    1      -36.580  77.127  27.342  0.00  0.00    +0.013 A 
ATOM      7  C   LIG    1      -37.682  76.403  26.853  0.00  0.00    -0.043 A 
ATOM      8  C   LIG    1      -38.536  75.748  27.755  0.00  0.00    +0.006 A 
ATOM      9  C   LIG    1      -38.372  75.856  29.136  0.00  0.00    +0.025 A 
ATOM     10  C   LIG    1      -37.362  76.706  29.568  0.00  0.00    +0.050 A 
ATOM     11  N   LIG    1      -37.015  77.116  30.816  0.00  0.00    -0.260 N 
ATOM     12  H   LIG    1      -37.377  76.796  31.709  0.00  0.00    +0.168 HD
ATOM     13  N   LIG    1      -36.174  78.154  30.791  0.00  0.00    -0.110 NA
BRANCH   7  14
ATOM     14  C   LIG    1      -37.925  76.308  25.364  0.00  0.00    +0.070 C 
BRANCH  14  15
ATOM     15  C   LIG    1      -38.690  75.082  24.900  0.00  0.00    -0.038 A 
ATOM     16  C   LIG    1      -38.154  73.789  25.015  0.00  0.00    +0.042 A 
ATOM     17  C   LIG    1      -38.856  72.690  24.508  0.00  0.00    +0.126 A 
ATOM     18  F   LIG    1      -38.311  71.470  24.587  0.00  0.00    -0.205 F 
ATOM     19  C   LIG    1      -40.097  72.839  23.907  0.00  0.00    +0.076 A 
ATOM     20  C   LIG    1      -40.639  74.111  23.820  0.00  0.00    +0.126 A 
ATOM     21  F   LIG    1      -41.836  74.281  23.243  0.00  0.00    -0.205 F 
ATOM     22  C   LIG    1      -39.954  75.224  24.305  0.00  0.00    +0.042 A 
ENDBRANCH  14  15
ENDBRANCH   7  14
ENDBRANCH   2   4
BRANCH   1  26
ATOM     23  C   LIG    1      -33.886  73.834  29.232  0.00  0.00    +0.032 A 
ATOM     24  C   LIG    1      -33.503  74.718  30.237  0.00  0.00    +0.046 A 
ATOM     25  C   LIG    1      -32.855  75.958  30.162  0.00  0.00    +0.041 A 
ATOM     26  C   LIG    1      -33.047  76.566  28.910  0.00  0.00    +0.058 A 
ATOM     27  C   LIG    1      -33.413  75.703  27.890  0.00  0.00    +0.017 A 
ATOM     28  C   LIG    1      -33.670  74.336  27.991  0.00  0.00    +0.024 A 
BRANCH  23  33
ATOM     29  C   LIG    1      -36.713  70.499  27.659  0.00  0.00    +0.105 C 
ATOM     30  N   LIG    1      -36.087  70.146  28.934  0.00  0.00    -0.302 NA
ATOM     31  C   LIG    1      -36.440  71.112  29.990  0.00  0.00    +0.103 C 
ATOM     32  C   LIG    1      -35.859  72.536  29.816  0.00  0.00    +0.120 C 
ATOM     33  N   LIG    1      -34.404  72.553  29.503  0.00  0.00    -0.327 N 
ATOM     34  C   LIG    1      -33.961  71.490  28.576  0.00  0.00    +0.120 C 
ATOM     35  C   LIG    1      -34.615  70.122  28.839  0.00  0.00    +0.103 C 
ENDBRANCH  23  33
BRANCH  25  36
ATOM     36  N   LIG    1      -32.204  76.490  31.282  0.00  0.00    -0.340 N 
ATOM     37  H   LIG    1      -31.997  77.476  31.114  0.00  0.00    +0.146 HD
BRANCH  36  38
ATOM     38  C   LIG    1      -31.068  75.866  32.069  0.00  0.00    +0.075 C 
ATOM     39  C   LIG    1      -30.967  76.222  33.553  0.00  0.00    +0.050 C 
ATOM     40  C   LIG    1      -30.209  77.517  33.782  0.00  0.00    +0.161 C 
ATOM     41  O   LIG    1      -28.924  77.512  33.149  0.00  0.00    -0.380 OA
ATOM     42  C   LIG    1      -28.894  77.183  31.764  0.00  0.00    +0.161 C 
ATOM     43  C   LIG    1      -29.678  75.932  31.424  0.00  0.00    +0.050 C 
ENDBRANCH  36  38
ENDBRANCH  25  36
ENDBRANCH   1  26
BRANCH   2  44
ATOM     44  C   LIG    1      -34.548  80.243  29.139  0.00  0.00    +0.138 C 
BRANCH  44  45
ATOM     45  C   LIG    1      -34.993  80.907  27.831  0.00  0.00    +0.175 C 
BRANCH  45  46
ATOM     46  O   LIG    1      -34.111  80.522  26.768  0.00  0.00    -0.393 OA
ATOM     47  H   LIG    1      -34.484  80.901  25.952  0.00  0.00    +0.209 HD
ENDBRANCH  45  46
ENDBRANCH  44  45
ENDBRANCH   2  44
TORSDOF 10
ENDMDL
MODEL 8
REMARK VINA RESULT:      -6.3     17.571     20.042
REMARK  Name = modded_pdb/CHEMBL1983268_nitrogen_modded_with_ethanol_version_1.pdb
REMARK                            x       y       z     vdW  Elec       q    Type
REMARK                         _______ _______ _______ _____ _____    ______ ____
ROOT
ATOM      1  C   LIG    1      -40.670  81.133  26.091  0.00  0.00    +0.250 C 
ATOM      2  N   LIG    1      -41.101  79.873  25.546  0.00  0.00    -0.267 N 
ATOM      3  O   LIG    1      -41.470  81.945  26.509  0.00  0.00    -0.270 OA
ENDROOT
BRANCH   2   4
ATOM      4  C   LIG    1      -40.231  79.054  24.801  0.00  0.00    +0.193 C 
ATOM      5  C   LIG    1      -39.209  78.186  25.287  0.00  0.00    +0.020 A 
ATOM      6  C   LIG    1      -38.632  77.877  26.528  0.00  0.00    +0.013 A 
ATOM      7  C   LIG    1      -37.535  77.000  26.578  0.00  0.00    -0.043 A 
ATOM      8  C   LIG    1      -37.151  76.303  25.420  0.00  0.00    +0.006 A 
ATOM      9  C   LIG    1      -37.779  76.511  24.192  0.00  0.00    +0.025 A 
ATOM     10  C   LIG    1      -38.754  77.500  24.164  0.00  0.00    +0.050 A 
ATOM     11  N   LIG    1      -39.463  78.022  23.129  0.00  0.00    -0.260 N 
ATOM     12  H   LIG    1      -39.487  77.714  22.161  0.00  0.00    +0.168 HD
ATOM     13  N   LIG    1      -40.096  79.149  23.468  0.00  0.00    -0.110 NA
BRANCH   7  14
ATOM     14  C   LIG    1      -36.794  76.788  27.878  0.00  0.00    +0.070 C 
BRANCH  14  15
ATOM     15  C   LIG    1      -35.459  77.500  27.999  0.00  0.00    -0.038 A 
ATOM     16  C   LIG    1      -35.374  78.898  28.093  0.00  0.00    +0.042 A 
ATOM     17  C   LIG    1      -34.123  79.524  28.127  0.00  0.00    +0.126 A 
ATOM     18  F   LIG    1      -34.059  80.861  28.173  0.00  0.00    -0.205 F 
ATOM     19  C   LIG    1      -32.946  78.792  28.094  0.00  0.00    +0.076 A 
ATOM     20  C   LIG    1      -33.030  77.410  28.031  0.00  0.00    +0.126 A 
ATOM     21  F   LIG    1      -31.908  76.681  27.996  0.00  0.00    -0.205 F 
ATOM     22  C   LIG    1      -34.264  76.763  27.981  0.00  0.00    +0.042 A 
ENDBRANCH  14  15
ENDBRANCH   7  14
ENDBRANCH   2   4
BRANCH   1  26
ATOM     23  C   LIG    1      -36.915  83.045  27.108  0.00  0.00    +0.032 A 
ATOM     24  C   LIG    1      -37.570  83.135  25.882  0.00  0.00    +0.046 A 
ATOM     25  C   LIG    1      -38.496  82.274  25.277  0.00  0.00    +0.041 A 
ATOM     26  C   LIG    1      -39.172  81.493  26.230  0.00  0.00    +0.058 A 
ATOM     27  C   LIG    1      -38.530  81.375  27.452  0.00  0.00    +0.017 A 
ATOM     28  C   LIG    1      -37.345  81.994  27.848  0.00  0.00    +0.024 A 
BRANCH  23  33
ATOM     29  C   LIG    1      -35.927  86.693  29.810  0.00  0.00    +0.105 C 
ATOM     30  N   LIG    1      -34.776  86.254  29.021  0.00  0.00    -0.302 NA
ATOM     31  C   LIG    1      -35.054  86.335  27.575  0.00  0.00    +0.103 C 
ATOM     32  C   LIG    1      -36.113  85.341  27.041  0.00  0.00    +0.120 C 
ATOM     33  N   LIG    1      -35.899  83.939  27.494  0.00  0.00    -0.327 N 
ATOM     34  C   LIG    1      -35.448  83.808  28.895  0.00  0.00    +0.120 C 
ATOM     35  C   LIG    1      -34.404  84.857  29.316  0.00  0.00    +0.103 C 
ENDBRANCH  23  33
BRANCH  25  36
ATOM     36  N   LIG    1      -38.722  82.328  23.897  0.00  0.00    -0.340 N 
ATOM     37  H   LIG    1      -37.855  82.103  23.405  0.00  0.00    +0.146 HD
BRANCH  36  38
ATOM     38  C   LIG    1      -39.470  83.398  23.128  0.00  0.00    +0.075 C 
ATOM     39  C   LIG    1      -38.635  84.480  22.440  0.00  0.00    +0.050 C 
ATOM     40  C   LIG    1      -38.285  85.619  23.381  0.00  0.00    +0.161 C 
ATOM     41  O   LIG    1      -39.443  86.169  24.019  0.00  0.00    -0.380 OA
ATOM     42  C   LIG    1      -40.304  85.251  24.686  0.00  0.00    +0.161 C 
ATOM     43  C   LIG    1      -40.663  84.043  23.846  0.00  0.00    +0.050 C 
ENDBRANCH  36  38
ENDBRANCH  25  36
ENDBRANCH   1  26
BRANCH   2  44
ATOM     44  C   LIG    1      -42.546  79.527  25.475  0.00  0.00    +0.138 C 
BRANCH  44  45
ATOM     45  C   LIG    1      -43.293  78.955  26.686  0.00  0.00    +0.175 C 
BRANCH  45  46
ATOM     46  O   LIG    1      -43.620  80.014  27.596  0.00  0.00    -0.393 OA
ATOM     47  H   LIG    1      -43.896  80.770  27.048  0.00  0.00    +0.209 HD
ENDBRANCH  45  46
ENDBRANCH  44  45
ENDBRANCH   2  44
TORSDOF 10
ENDMDL
MODEL 9
REMARK VINA RESULT:      -6.2      4.084      7.224
REMARK  Name = modded_pdb/CHEMBL1983268_nitrogen_modded_with_ethanol_version_1.pdb
REMARK                            x       y       z     vdW  Elec       q    Type
REMARK                         _______ _______ _______ _____ _____    ______ ____
ROOT
ATOM      1  C   LIG    1      -22.326  82.886  11.173  0.00  0.00    +0.250 C 
ATOM      2  N   LIG    1      -23.065  83.584  12.192  0.00  0.00    -0.267 N 
ATOM      3  O   LIG    1      -22.759  82.775  10.045  0.00  0.00    -0.270 OA
ENDROOT
BRANCH   2   4
ATOM      4  C   LIG    1      -22.728  83.476  13.554  0.00  0.00    +0.193 C 
ATOM      5  C   LIG    1      -22.842  82.335  14.401  0.00  0.00    +0.020 A 
ATOM      6  C   LIG    1      -23.352  81.032  14.300  0.00  0.00    +0.013 A 
ATOM      7  C   LIG    1      -23.362  80.206  15.438  0.00  0.00    -0.043 A 
ATOM      8  C   LIG    1      -22.696  80.622  16.602  0.00  0.00    +0.006 A 
ATOM      9  C   LIG    1      -22.084  81.873  16.695  0.00  0.00    +0.025 A 
ATOM     10  C   LIG    1      -22.235  82.710  15.597  0.00  0.00    +0.050 A 
ATOM     11  N   LIG    1      -21.871  84.006  15.408  0.00  0.00    -0.260 N 
ATOM     12  H   LIG    1      -21.316  84.600  16.016  0.00  0.00    +0.168 HD
ATOM     13  N   LIG    1      -22.447  84.539  14.326  0.00  0.00    -0.110 NA
BRANCH   7  14
ATOM     14  C   LIG    1      -24.060  78.866  15.395  0.00  0.00    +0.070 C 
BRANCH  14  15
ATOM     15  C   LIG    1      -24.787  78.545  14.102  0.00  0.00    -0.038 A 
ATOM     16  C   LIG    1      -26.156  78.811  13.938  0.00  0.00    +0.042 A 
ATOM     17  C   LIG    1      -26.809  78.433  12.760  0.00  0.00    +0.126 A 
ATOM     18  F   LIG    1      -28.124  78.656  12.638  0.00  0.00    -0.205 F 
ATOM     19  C   LIG    1      -26.128  77.813  11.723  0.00  0.00    +0.076 A 
ATOM     20  C   LIG    1      -24.771  77.577  11.872  0.00  0.00    +0.126 A 
ATOM     21  F   LIG    1      -24.092  76.979  10.885  0.00  0.00    -0.205 F 
ATOM     22  C   LIG    1      -24.101  77.932  13.042  0.00  0.00    +0.042 A 
ENDBRANCH  14  15
ENDBRANCH   7  14
ENDBRANCH   2   4
BRANCH   1  26
ATOM     23  C   LIG    1      -18.945  80.762  12.861  0.00  0.00    +0.032 A 
ATOM     24  C   LIG    1      -19.195  82.127  12.984  0.00  0.00    +0.046 A 
ATOM     25  C   LIG    1      -19.944  82.994  12.177  0.00  0.00    +0.041 A 
ATOM     26  C   LIG    1      -20.920  82.299  11.443  0.00  0.00    +0.058 A 
ATOM     27  C   LIG    1      -20.684  80.942  11.293  0.00  0.00    +0.017 A 
ATOM     28  C   LIG    1      -19.639  80.200  11.841  0.00  0.00    +0.024 A 
BRANCH  23  33
ATOM     29  C   LIG    1      -18.592  78.051  16.618  0.00  0.00    +0.105 C 
ATOM     30  N   LIG    1      -17.290  78.353  16.021  0.00  0.00    -0.302 NA
ATOM     31  C   LIG    1      -17.029  79.804  16.010  0.00  0.00    +0.103 C 
ATOM     32  C   LIG    1      -17.931  80.639  15.069  0.00  0.00    +0.120 C 
ATOM     33  N   LIG    1      -18.042  80.077  13.694  0.00  0.00    -0.327 N 
ATOM     34  C   LIG    1      -18.132  78.603  13.638  0.00  0.00    +0.120 C 
ATOM     35  C   LIG    1      -17.199  77.881  14.626  0.00  0.00    +0.103 C 
ENDBRANCH  23  33
BRANCH  25  36
ATOM     36  N   LIG    1      -19.740  84.377  12.238  0.00  0.00    -0.340 N 
ATOM     37  H   LIG    1      -19.526  84.727  11.302  0.00  0.00    +0.146 HD
BRANCH  36  38
ATOM     38  C   LIG    1      -18.923  85.144  13.258  0.00  0.00    +0.075 C 
ATOM     39  C   LIG    1      -19.522  86.442  13.803  0.00  0.00    +0.050 C 
ATOM     40  C   LIG    1      -19.228  87.630  12.904  0.00  0.00    +0.161 C 
ATOM     41  O   LIG    1      -17.830  87.766  12.626  0.00  0.00    -0.380 OA
ATOM     42  C   LIG    1      -17.161  86.614  12.122  0.00  0.00    +0.161 C 
ATOM     43  C   LIG    1      -17.441  85.357  12.921  0.00  0.00    +0.050 C 
ENDBRANCH  36  38
ENDBRANCH  25  36
ENDBRANCH   1  26
BRANCH   2  44
ATOM     44  C   LIG    1      -24.391  84.189  11.892  0.00  0.00    +0.138 C 
BRANCH  44  45
ATOM     45  C   LIG    1      -25.641  83.322  11.699  0.00  0.00    +0.175 C 
BRANCH  45  46
ATOM     46  O   LIG    1      -26.004  82.711  12.944  0.00  0.00    -0.393 OA
ATOM     47  H   LIG    1      -26.961  82.540  12.896  0.00  0.00    +0.209 HD
ENDBRANCH  45  46
ENDBRANCH  44  45
ENDBRANCH   2  44
TORSDOF 10
ENDMDL
