MODEL 1
REMARK VINA RESULT:      -6.3      0.000      0.000
REMARK  Name = pdb/CHEMBL3673479.pdb
REMARK                            x       y       z     vdW  Elec       q    Type
REMARK                         _______ _______ _______ _____ _____    ______ ____
ROOT
ATOM      1  C   LIG    1      -35.336  70.398  25.599  0.00  0.00    +0.162 A 
ATOM      2  C   LIG    1      -34.537  69.252  25.458  0.00  0.00    +0.162 A 
ATOM      3  C   LIG    1      -33.694  68.865  26.505  0.00  0.00    +0.050 A 
ATOM      4  C   LIG    1      -33.682  69.560  27.712  0.00  0.00    +0.009 A 
ATOM      5  C   LIG    1      -34.502  70.677  27.895  0.00  0.00    -0.024 A 
ATOM      6  C   LIG    1      -35.317  71.092  26.827  0.00  0.00    +0.054 A 
ENDROOT
BRANCH   1   8
ATOM      7  C   LIG    1      -37.322  71.654  25.121  0.00  0.00    +0.277 C 
ATOM      8  O   LIG    1      -36.172  70.950  24.655  0.00  0.00    -0.491 OA
ENDBRANCH   1   8
BRANCH   2   9
ATOM      9  O   LIG    1      -34.576  68.550  24.283  0.00  0.00    -0.484 OA
BRANCH   9  10
ATOM     10  C   LIG    1      -35.751  67.789  24.038  0.00  0.00    +0.266 C 
BRANCH  10  11
ATOM     11  C   LIG    1      -35.890  67.575  22.562  0.00  0.00    +0.008 A 
ATOM     12  C   LIG    1      -35.024  66.745  21.869  0.00  0.00    +0.118 A 
ATOM     13  N   LIG    1      -35.118  66.491  20.545  0.00  0.00    -0.259 NA
ATOM     14  C   LIG    1      -36.117  67.085  19.843  0.00  0.00    +0.044 A 
ATOM     15  C   LIG    1      -37.016  67.949  20.469  0.00  0.00    +0.024 A 
ATOM     16  C   LIG    1      -36.898  68.202  21.832  0.00  0.00    +0.010 A 
BRANCH  14  17
ATOM     17  C   LIG    1      -36.232  66.813  18.365  0.00  0.00    +0.038 C 
ATOM     18  C   LIG    1      -35.350  65.763  17.730  0.00  0.00    +0.010 C 
ATOM     19  C   LIG    1      -35.118  67.213  17.425  0.00  0.00    +0.010 C 
ENDBRANCH  14  17
ENDBRANCH  10  11
ENDBRANCH   9  10
ENDBRANCH   2   9
BRANCH   5  20
ATOM     20  C   LIG    1      -34.476  71.389  29.229  0.00  0.00    +0.161 C 
BRANCH  20  21
ATOM     21  N   LIG    1      -33.515  72.469  29.257  0.00  0.00    -0.293 N 
ATOM     22  C   LIG    1      -33.756  73.750  28.820  0.00  0.00    +0.162 A 
ATOM     23  N   LIG    1      -34.870  74.221  28.213  0.00  0.00    -0.235 NA
ATOM     24  C   LIG    1      -34.763  75.544  27.918  0.00  0.00    +0.121 A 
ATOM     25  C   LIG    1      -33.671  76.382  28.180  0.00  0.00    +0.005 A 
ATOM     26  C   LIG    1      -32.561  75.825  28.828  0.00  0.00    +0.041 A 
ATOM     27  C   LIG    1      -32.613  74.463  29.151  0.00  0.00    +0.110 A 
ATOM     28  N   LIG    1      -31.701  73.645  29.774  0.00  0.00    -0.213 NA
ATOM     29  C   LIG    1      -32.261  72.477  29.830  0.00  0.00    +0.195 A 
BRANCH  25  30
ATOM     30  C   LIG    1      -33.681  77.782  27.798  0.00  0.00    +0.021 A 
ATOM     31  C   LIG    1      -34.643  78.698  28.178  0.00  0.00    +0.116 A 
ATOM     32  N   LIG    1      -34.294  79.886  27.605  0.00  0.00    -0.274 N 
ATOM     33  C   LIG    1      -35.008  81.134  27.732  0.00  0.00    +0.172 C 
ATOM     34  N   LIG    1      -33.172  79.816  26.870  0.00  0.00    -0.179 NA
ATOM     35  C   LIG    1      -32.804  78.536  26.982  0.00  0.00    +0.143 A 
ENDBRANCH  25  30
BRANCH  29  36
ATOM     36  N   LIG    1      -31.709  71.373  30.389  0.00  0.00    -0.329 N 
ATOM     37  H   LIG    1      -31.294  71.550  31.302  0.00  0.00    +0.145 HD
ATOM     38  H   LIG    1      -31.147  70.747  29.831  0.00  0.00    +0.145 HD
ENDBRANCH  29  36
ENDBRANCH  20  21
ENDBRANCH   5  20
TORSDOF 9
ENDMDL
MODEL 2
REMARK VINA RESULT:      -6.2      3.236     11.290
REMARK  Name = pdb/CHEMBL3673479.pdb
REMARK                            x       y       z     vdW  Elec       q    Type
REMARK                         _______ _______ _______ _____ _____    ______ ____
ROOT
ATOM      1  C   LIG    1      -39.013  72.710  24.411  0.00  0.00    +0.162 A 
ATOM      2  C   LIG    1      -37.882  72.836  25.233  0.00  0.00    +0.162 A 
ATOM      3  C   LIG    1      -37.175  71.691  25.614  0.00  0.00    +0.050 A 
ATOM      4  C   LIG    1      -37.534  70.433  25.137  0.00  0.00    +0.009 A 
ATOM      5  C   LIG    1      -38.628  70.285  24.280  0.00  0.00    -0.024 A 
ATOM      6  C   LIG    1      -39.365  71.431  23.932  0.00  0.00    +0.054 A 
ENDROOT
BRANCH   1   8
ATOM      7  C   LIG    1      -40.941  74.069  24.845  0.00  0.00    +0.277 C 
ATOM      8  O   LIG    1      -39.853  73.717  23.992  0.00  0.00    -0.491 OA
ENDBRANCH   1   8
BRANCH   2   9
ATOM      9  O   LIG    1      -37.511  74.078  25.674  0.00  0.00    -0.484 OA
BRANCH   9  10
ATOM     10  C   LIG    1      -37.297  74.216  27.072  0.00  0.00    +0.266 C 
BRANCH  10  11
ATOM     11  C   LIG    1      -36.213  75.224  27.298  0.00  0.00    +0.008 A 
ATOM     12  C   LIG    1      -36.395  76.562  26.986  0.00  0.00    +0.118 A 
ATOM     13  N   LIG    1      -35.465  77.520  27.196  0.00  0.00    -0.259 NA
ATOM     14  C   LIG    1      -34.276  77.157  27.741  0.00  0.00    +0.044 A 
ATOM     15  C   LIG    1      -34.013  75.826  28.064  0.00  0.00    +0.024 A 
ATOM     16  C   LIG    1      -34.981  74.853  27.835  0.00  0.00    +0.010 A 
BRANCH  14  17
ATOM     17  C   LIG    1      -33.228  78.216  27.977  0.00  0.00    +0.038 C 
ATOM     18  C   LIG    1      -33.289  79.510  27.200  0.00  0.00    +0.010 C 
ATOM     19  C   LIG    1      -32.197  78.522  26.916  0.00  0.00    +0.010 C 
ENDBRANCH  14  17
ENDBRANCH  10  11
ENDBRANCH   9  10
ENDBRANCH   2   9
BRANCH   5  20
ATOM     20  C   LIG    1      -38.969  68.904  23.765  0.00  0.00    +0.161 C 
BRANCH  20  21
ATOM     21  N   LIG    1      -38.463  68.675  22.431  0.00  0.00    -0.293 N 
ATOM     22  C   LIG    1      -37.289  68.025  22.133  0.00  0.00    +0.162 A 
ATOM     23  N   LIG    1      -36.356  67.565  22.999  0.00  0.00    -0.235 NA
ATOM     24  C   LIG    1      -35.318  66.969  22.354  0.00  0.00    +0.121 A 
ATOM     25  C   LIG    1      -35.163  66.811  20.970  0.00  0.00    +0.005 A 
ATOM     26  C   LIG    1      -36.181  67.297  20.139  0.00  0.00    +0.041 A 
ATOM     27  C   LIG    1      -37.273  67.927  20.750  0.00  0.00    +0.110 A 
ATOM     28  N   LIG    1      -38.404  68.497  20.215  0.00  0.00    -0.213 NA
ATOM     29  C   LIG    1      -39.091  68.924  21.229  0.00  0.00    +0.195 A 
BRANCH  25  30
ATOM     30  C   LIG    1      -33.992  66.164  20.408  0.00  0.00    +0.021 A 
ATOM     31  C   LIG    1      -32.794  66.796  20.137  0.00  0.00    +0.116 A 
ATOM     32  N   LIG    1      -31.965  65.847  19.614  0.00  0.00    -0.274 N 
ATOM     33  C   LIG    1      -30.602  66.050  19.186  0.00  0.00    +0.172 C 
ATOM     34  N   LIG    1      -32.535  64.634  19.517  0.00  0.00    -0.179 NA
ATOM     35  C   LIG    1      -33.768  64.829  19.995  0.00  0.00    +0.143 A 
ENDBRANCH  25  30
BRANCH  29  36
ATOM     36  N   LIG    1      -40.297  69.537  21.151  0.00  0.00    -0.329 N 
ATOM     37  H   LIG    1      -40.517  70.097  21.972  0.00  0.00    +0.145 HD
ATOM     38  H   LIG    1      -41.102  69.034  20.807  0.00  0.00    +0.145 HD
ENDBRANCH  29  36
ENDBRANCH  20  21
ENDBRANCH   5  20
TORSDOF 9
ENDMDL
MODEL 3
REMARK VINA RESULT:      -6.2      5.103      6.865
REMARK  Name = pdb/CHEMBL3673479.pdb
REMARK                            x       y       z     vdW  Elec       q    Type
REMARK                         _______ _______ _______ _____ _____    ______ ____
ROOT
ATOM      1  C   LIG    1      -36.648  66.467  20.918  0.00  0.00    +0.162 A 
ATOM      2  C   LIG    1      -35.336  65.990  20.771  0.00  0.00    +0.162 A 
ATOM      3  C   LIG    1      -34.454  66.051  21.854  0.00  0.00    +0.050 A 
ATOM      4  C   LIG    1      -34.875  66.516  23.098  0.00  0.00    +0.009 A 
ATOM      5  C   LIG    1      -36.189  66.953  23.284  0.00  0.00    -0.024 A 
ATOM      6  C   LIG    1      -37.064  66.933  22.183  0.00  0.00    +0.054 A 
ENDROOT
BRANCH   1   8
ATOM      7  C   LIG    1      -37.667  67.711  19.138  0.00  0.00    +0.277 C 
ATOM      8  O   LIG    1      -37.621  66.536  19.947  0.00  0.00    -0.491 OA
ENDBRANCH   1   8
BRANCH   2   9
ATOM      9  O   LIG    1      -34.934  65.502  19.557  0.00  0.00    -0.484 OA
BRANCH   9  10
ATOM     10  C   LIG    1      -33.538  65.301  19.385  0.00  0.00    +0.266 C 
BRANCH  10  11
ATOM     11  C   LIG    1      -32.944  66.531  18.772  0.00  0.00    +0.008 A 
ATOM     12  C   LIG    1      -31.867  67.179  19.355  0.00  0.00    +0.118 A 
ATOM     13  N   LIG    1      -31.270  68.274  18.833  0.00  0.00    -0.259 NA
ATOM     14  C   LIG    1      -31.753  68.778  17.668  0.00  0.00    +0.044 A 
ATOM     15  C   LIG    1      -32.847  68.190  17.032  0.00  0.00    +0.024 A 
ATOM     16  C   LIG    1      -33.450  67.067  17.590  0.00  0.00    +0.010 A 
BRANCH  14  17
ATOM     17  C   LIG    1      -31.100  70.001  17.076  0.00  0.00    +0.038 C 
ATOM     18  C   LIG    1      -30.407  70.989  17.985  0.00  0.00    +0.010 C 
ATOM     19  C   LIG    1      -31.690  71.372  17.310  0.00  0.00    +0.010 C 
ENDBRANCH  14  17
ENDBRANCH  10  11
ENDBRANCH   9  10
ENDBRANCH   2   9
BRANCH   5  20
ATOM     20  C   LIG    1      -36.611  67.428  24.656  0.00  0.00    +0.161 C 
BRANCH  20  21
ATOM     21  N   LIG    1      -36.448  68.855  24.818  0.00  0.00    -0.293 N 
ATOM     22  C   LIG    1      -37.421  69.794  24.569  0.00  0.00    +0.162 A 
ATOM     23  N   LIG    1      -38.656  69.588  24.053  0.00  0.00    -0.235 NA
ATOM     24  C   LIG    1      -39.357  70.748  23.944  0.00  0.00    +0.121 A 
ATOM     25  C   LIG    1      -38.925  72.033  24.302  0.00  0.00    +0.005 A 
ATOM     26  C   LIG    1      -37.641  72.163  24.846  0.00  0.00    +0.041 A 
ATOM     27  C   LIG    1      -36.870  71.000  24.976  0.00  0.00    +0.110 A 
ATOM     28  N   LIG    1      -35.599  70.806  25.463  0.00  0.00    -0.213 NA
ATOM     29  C   LIG    1      -35.378  69.532  25.364  0.00  0.00    +0.195 A 
BRANCH  25  30
ATOM     30  C   LIG    1      -39.775  73.195  24.118  0.00  0.00    +0.021 A 
ATOM     31  C   LIG    1      -41.029  73.174  23.541  0.00  0.00    +0.116 A 
ATOM     32  N   LIG    1      -41.482  74.462  23.551  0.00  0.00    -0.274 N 
ATOM     33  C   LIG    1      -42.755  74.920  23.050  0.00  0.00    +0.172 C 
ATOM     34  N   LIG    1      -40.611  75.330  24.091  0.00  0.00    -0.179 NA
ATOM     35  C   LIG    1      -39.572  74.561  24.431  0.00  0.00    +0.143 A 
ENDBRANCH  25  30
BRANCH  29  36
ATOM     36  N   LIG    1      -34.243  68.906  25.755  0.00  0.00    -0.329 N 
ATOM     37  H   LIG    1      -33.414  69.492  25.680  0.00  0.00    +0.145 HD
ATOM     38  H   LIG    1      -34.062  67.954  25.467  0.00  0.00    +0.145 HD
ENDBRANCH  29  36
ENDBRANCH  20  21
ENDBRANCH   5  20
TORSDOF 9
ENDMDL
MODEL 4
REMARK VINA RESULT:      -6.1      5.841     12.118
REMARK  Name = pdb/CHEMBL3673479.pdb
REMARK                            x       y       z     vdW  Elec       q    Type
REMARK                         _______ _______ _______ _____ _____    ______ ____
ROOT
ATOM      1  C   LIG    1      -38.798  75.451  24.581  0.00  0.00    +0.162 A 
ATOM      2  C   LIG    1      -39.695  76.337  23.965  0.00  0.00    +0.162 A 
ATOM      3  C   LIG    1      -40.947  75.872  23.547  0.00  0.00    +0.050 A 
ATOM      4  C   LIG    1      -41.345  74.561  23.793  0.00  0.00    +0.009 A 
ATOM      5  C   LIG    1      -40.489  73.670  24.447  0.00  0.00    -0.024 A 
ATOM      6  C   LIG    1      -39.213  74.125  24.827  0.00  0.00    +0.054 A 
ENDROOT
BRANCH   1   8
ATOM      7  C   LIG    1      -37.335  76.167  26.342  0.00  0.00    +0.277 C 
ATOM      8  O   LIG    1      -37.515  75.723  24.997  0.00  0.00    -0.491 OA
ENDBRANCH   1   8
BRANCH   2   9
ATOM      9  O   LIG    1      -39.315  77.635  23.755  0.00  0.00    -0.484 OA
BRANCH   9  10
ATOM     10  C   LIG    1      -39.763  78.589  24.708  0.00  0.00    +0.266 C 
BRANCH  10  11
ATOM     11  C   LIG    1      -40.319  79.775  23.983  0.00  0.00    +0.008 A 
ATOM     12  C   LIG    1      -41.679  80.039  23.967  0.00  0.00    +0.118 A 
ATOM     13  N   LIG    1      -42.234  81.109  23.355  0.00  0.00    -0.259 NA
ATOM     14  C   LIG    1      -41.416  81.979  22.710  0.00  0.00    +0.044 A 
ATOM     15  C   LIG    1      -40.038  81.770  22.667  0.00  0.00    +0.024 A 
ATOM     16  C   LIG    1      -39.486  80.659  23.298  0.00  0.00    +0.010 A 
BRANCH  14  17
ATOM     17  C   LIG    1      -42.023  83.175  22.020  0.00  0.00    +0.038 C 
ATOM     18  C   LIG    1      -43.373  83.046  21.355  0.00  0.00    +0.010 C 
ATOM     19  C   LIG    1      -42.143  83.210  20.514  0.00  0.00    +0.010 C 
ENDBRANCH  14  17
ENDBRANCH  10  11
ENDBRANCH   9  10
ENDBRANCH   2   9
BRANCH   5  20
ATOM     20  C   LIG    1      -40.969  72.261  24.715  0.00  0.00    +0.161 C 
BRANCH  20  21
ATOM     21  N   LIG    1      -40.675  71.363  23.621  0.00  0.00    -0.293 N 
ATOM     22  C   LIG    1      -39.512  70.642  23.484  0.00  0.00    +0.162 A 
ATOM     23  N   LIG    1      -38.410  70.693  24.268  0.00  0.00    -0.235 NA
ATOM     24  C   LIG    1      -37.445  69.837  23.838  0.00  0.00    +0.121 A 
ATOM     25  C   LIG    1      -37.510  68.977  22.733  0.00  0.00    +0.005 A 
ATOM     26  C   LIG    1      -38.692  68.968  21.981  0.00  0.00    +0.041 A 
ATOM     27  C   LIG    1      -39.719  69.835  22.375  0.00  0.00    +0.110 A 
ATOM     28  N   LIG    1      -40.971  70.053  21.850  0.00  0.00    -0.213 NA
ATOM     29  C   LIG    1      -41.515  70.953  22.608  0.00  0.00    +0.195 A 
BRANCH  25  30
ATOM     30  C   LIG    1      -36.395  68.120  22.373  0.00  0.00    +0.021 A 
ATOM     31  C   LIG    1      -36.283  67.426  21.185  0.00  0.00    +0.116 A 
ATOM     32  N   LIG    1      -35.104  66.741  21.246  0.00  0.00    -0.274 N 
ATOM     33  C   LIG    1      -34.567  65.880  20.221  0.00  0.00    +0.172 C 
ATOM     34  N   LIG    1      -34.434  66.932  22.394  0.00  0.00    -0.179 NA
ATOM     35  C   LIG    1      -35.221  67.766  23.081  0.00  0.00    +0.143 A 
ENDBRANCH  25  30
BRANCH  29  36
ATOM     36  N   LIG    1      -42.767  71.448  22.456  0.00  0.00    -0.329 N 
ATOM     37  H   LIG    1      -42.912  72.332  22.940  0.00  0.00    +0.145 HD
ATOM     38  H   LIG    1      -43.568  70.837  22.532  0.00  0.00    +0.145 HD
ENDBRANCH  29  36
ENDBRANCH  20  21
ENDBRANCH   5  20
TORSDOF 9
ENDMDL
MODEL 5
REMARK VINA RESULT:      -6.1      6.540     10.052
REMARK  Name = pdb/CHEMBL3673479.pdb
REMARK                            x       y       z     vdW  Elec       q    Type
REMARK                         _______ _______ _______ _____ _____    ______ ____
ROOT
ATOM      1  C   LIG    1      -34.512  79.426  27.884  0.00  0.00    +0.162 A 
ATOM      2  C   LIG    1      -35.363  78.314  27.978  0.00  0.00    +0.162 A 
ATOM      3  C   LIG    1      -36.121  78.121  29.137  0.00  0.00    +0.050 A 
ATOM      4  C   LIG    1      -36.098  79.050  30.174  0.00  0.00    +0.009 A 
ATOM      5  C   LIG    1      -35.294  80.190  30.086  0.00  0.00    -0.024 A 
ATOM      6  C   LIG    1      -34.498  80.362  28.939  0.00  0.00    +0.054 A 
ENDROOT
BRANCH   1   8
ATOM      7  C   LIG    1      -32.386  79.089  26.826  0.00  0.00    +0.277 C 
ATOM      8  O   LIG    1      -33.658  79.735  26.849  0.00  0.00    -0.491 OA
ENDBRANCH   1   8
BRANCH   2   9
ATOM      9  O   LIG    1      -35.411  77.419  26.943  0.00  0.00    -0.484 OA
BRANCH   9  10
ATOM     10  C   LIG    1      -35.741  76.078  27.279  0.00  0.00    +0.266 C 
BRANCH  10  11
ATOM     11  C   LIG    1      -36.875  75.627  26.412  0.00  0.00    +0.008 A 
ATOM     12  C   LIG    1      -37.496  74.405  26.613  0.00  0.00    +0.118 A 
ATOM     13  N   LIG    1      -38.542  73.958  25.882  0.00  0.00    -0.259 NA
ATOM     14  C   LIG    1      -39.016  74.748  24.885  0.00  0.00    +0.044 A 
ATOM     15  C   LIG    1      -38.430  75.983  24.610  0.00  0.00    +0.024 A 
ATOM     16  C   LIG    1      -37.350  76.423  25.371  0.00  0.00    +0.010 A 
BRANCH  14  17
ATOM     17  C   LIG    1      -40.180  74.261  24.060  0.00  0.00    +0.038 C 
ATOM     18  C   LIG    1      -41.148  75.262  23.474  0.00  0.00    +0.010 C 
ATOM     19  C   LIG    1      -41.590  74.364  24.591  0.00  0.00    +0.010 C 
ENDBRANCH  14  17
ENDBRANCH  10  11
ENDBRANCH   9  10
ENDBRANCH   2   9
BRANCH   5  20
ATOM     20  C   LIG    1      -35.315  81.187  31.224  0.00  0.00    +0.161 C 
BRANCH  20  21
ATOM     21  N   LIG    1      -35.668  82.517  30.782  0.00  0.00    -0.293 N 
ATOM     22  C   LIG    1      -34.790  83.569  30.668  0.00  0.00    +0.162 A 
ATOM     23  N   LIG    1      -33.484  83.597  31.022  0.00  0.00    -0.235 NA
ATOM     24  C   LIG    1      -32.918  84.807  30.767  0.00  0.00    +0.121 A 
ATOM     25  C   LIG    1      -33.542  85.931  30.207  0.00  0.00    +0.005 A 
ATOM     26  C   LIG    1      -34.892  85.817  29.850  0.00  0.00    +0.041 A 
ATOM     27  C   LIG    1      -35.529  84.594  30.097  0.00  0.00    +0.110 A 
ATOM     28  N   LIG    1      -36.820  84.182  29.863  0.00  0.00    -0.213 NA
ATOM     29  C   LIG    1      -36.872  82.952  30.271  0.00  0.00    +0.195 A 
BRANCH  25  30
ATOM     30  C   LIG    1      -32.822  87.173  30.000  0.00  0.00    +0.021 A 
ATOM     31  C   LIG    1      -33.392  88.355  29.570  0.00  0.00    +0.116 A 
ATOM     32  N   LIG    1      -32.381  89.269  29.497  0.00  0.00    -0.274 N 
ATOM     33  C   LIG    1      -32.509  90.649  29.096  0.00  0.00    +0.172 C 
ATOM     34  N   LIG    1      -31.183  88.769  29.845  0.00  0.00    -0.179 NA
ATOM     35  C   LIG    1      -31.451  87.495  30.145  0.00  0.00    +0.143 A 
ENDBRANCH  25  30
BRANCH  29  36
ATOM     36  N   LIG    1      -37.966  82.155  30.205  0.00  0.00    -0.329 N 
ATOM     37  H   LIG    1      -38.016  81.613  29.345  0.00  0.00    +0.145 HD
ATOM     38  H   LIG    1      -38.870  82.507  30.486  0.00  0.00    +0.145 HD
ENDBRANCH  29  36
ENDBRANCH  20  21
ENDBRANCH   5  20
TORSDOF 9
ENDMDL
MODEL 6
REMARK VINA RESULT:      -6.0     18.830     23.815
REMARK  Name = pdb/CHEMBL3673479.pdb
REMARK                            x       y       z     vdW  Elec       q    Type
REMARK                         _______ _______ _______ _____ _____    ______ ____
ROOT
ATOM      1  C   LIG    1      -24.542  87.574  11.162  0.00  0.00    +0.162 A 
ATOM      2  C   LIG    1      -24.267  88.935  11.364  0.00  0.00    +0.162 A 
ATOM      3  C   LIG    1      -23.171  89.309  12.149  0.00  0.00    +0.050 A 
ATOM      4  C   LIG    1      -22.308  88.353  12.678  0.00  0.00    +0.009 A 
ATOM      5  C   LIG    1      -22.532  86.992  12.454  0.00  0.00    -0.024 A 
ATOM      6  C   LIG    1      -23.659  86.615  11.701  0.00  0.00    +0.054 A 
ENDROOT
BRANCH   1   8
ATOM      7  C   LIG    1      -25.582  85.630  10.217  0.00  0.00    +0.277 C 
ATOM      8  O   LIG    1      -25.604  87.034  10.472  0.00  0.00    -0.491 OA
ENDBRANCH   1   8
BRANCH   2   9
ATOM      9  O   LIG    1      -25.098  89.874  10.814  0.00  0.00    -0.484 OA
BRANCH   9  10
ATOM     10  C   LIG    1      -24.625  91.214  10.812  0.00  0.00    +0.266 C 
BRANCH  10  11
ATOM     11  C   LIG    1      -25.457  92.022  11.760  0.00  0.00    +0.008 A 
ATOM     12  C   LIG    1      -26.240  91.417  12.729  0.00  0.00    +0.118 A 
ATOM     13  N   LIG    1      -26.986  92.094  13.630  0.00  0.00    -0.259 NA
ATOM     14  C   LIG    1      -26.977  93.451  13.586  0.00  0.00    +0.044 A 
ATOM     15  C   LIG    1      -26.228  94.131  12.626  0.00  0.00    +0.024 A 
ATOM     16  C   LIG    1      -25.470  93.415  11.704  0.00  0.00    +0.010 A 
BRANCH  14  17
ATOM     17  C   LIG    1      -27.808  94.219  14.582  0.00  0.00    +0.038 C 
ATOM     18  C   LIG    1      -28.895  93.505  15.352  0.00  0.00    +0.010 C 
ATOM     19  C   LIG    1      -29.264  94.509  14.301  0.00  0.00    +0.010 C 
ENDBRANCH  14  17
ENDBRANCH  10  11
ENDBRANCH   9  10
ENDBRANCH   2   9
BRANCH   5  20
ATOM     20  C   LIG    1      -21.557  85.988  13.027  0.00  0.00    +0.161 C 
BRANCH  20  21
ATOM     21  N   LIG    1      -22.116  85.254  14.140  0.00  0.00    -0.293 N 
ATOM     22  C   LIG    1      -22.594  83.966  14.075  0.00  0.00    +0.162 A 
ATOM     23  N   LIG    1      -22.720  83.185  12.977  0.00  0.00    -0.235 NA
ATOM     24  C   LIG    1      -23.231  81.962  13.283  0.00  0.00    +0.121 A 
ATOM     25  C   LIG    1      -23.602  81.496  14.551  0.00  0.00    +0.005 A 
ATOM     26  C   LIG    1      -23.425  82.357  15.642  0.00  0.00    +0.041 A 
ATOM     27  C   LIG    1      -22.908  83.633  15.384  0.00  0.00    +0.110 A 
ATOM     28  N   LIG    1      -22.626  84.683  16.227  0.00  0.00    -0.213 NA
ATOM     29  C   LIG    1      -22.155  85.622  15.468  0.00  0.00    +0.195 A 
BRANCH  25  30
ATOM     30  C   LIG    1      -24.150  80.165  14.738  0.00  0.00    +0.021 A 
ATOM     31  C   LIG    1      -25.270  79.675  14.094  0.00  0.00    +0.116 A 
ATOM     32  N   LIG    1      -25.452  78.402  14.551  0.00  0.00    -0.274 N 
ATOM     33  C   LIG    1      -26.502  77.497  14.151  0.00  0.00    +0.172 C 
ATOM     34  N   LIG    1      -24.533  78.021  15.454  0.00  0.00    -0.179 NA
ATOM     35  C   LIG    1      -23.746  79.094  15.571  0.00  0.00    +0.143 A 
ENDBRANCH  25  30
BRANCH  29  36
ATOM     36  N   LIG    1      -21.730  86.834  15.900  0.00  0.00    -0.329 N 
ATOM     37  H   LIG    1      -22.255  87.183  16.699  0.00  0.00    +0.145 HD
ATOM     38  H   LIG    1      -21.519  87.565  15.236  0.00  0.00    +0.145 HD
ENDBRANCH  29  36
ENDBRANCH  20  21
ENDBRANCH   5  20
TORSDOF 9
ENDMDL
MODEL 7
REMARK VINA RESULT:      -6.0      9.016     15.183
REMARK  Name = pdb/CHEMBL3673479.pdb
REMARK                            x       y       z     vdW  Elec       q    Type
REMARK                         _______ _______ _______ _____ _____    ______ ____
ROOT
ATOM      1  C   LIG    1      -35.622  85.805  28.009  0.00  0.00    +0.162 A 
ATOM      2  C   LIG    1      -35.192  84.667  28.709  0.00  0.00    +0.162 A 
ATOM      3  C   LIG    1      -34.039  84.737  29.498  0.00  0.00    +0.050 A 
ATOM      4  C   LIG    1      -33.347  85.935  29.653  0.00  0.00    +0.009 A 
ATOM      5  C   LIG    1      -33.780  87.095  29.004  0.00  0.00    -0.024 A 
ATOM      6  C   LIG    1      -34.915  87.014  28.176  0.00  0.00    +0.054 A 
ENDROOT
BRANCH   1   8
ATOM      7  C   LIG    1      -37.936  86.347  27.685  0.00  0.00    +0.277 C 
ATOM      8  O   LIG    1      -36.693  85.896  27.148  0.00  0.00    -0.491 OA
ENDBRANCH   1   8
BRANCH   2   9
ATOM      9  O   LIG    1      -35.894  83.499  28.582  0.00  0.00    -0.484 OA
BRANCH   9  10
ATOM     10  C   LIG    1      -35.761  82.561  29.642  0.00  0.00    +0.266 C 
BRANCH  10  11
ATOM     11  C   LIG    1      -35.191  81.289  29.094  0.00  0.00    +0.008 A 
ATOM     12  C   LIG    1      -34.981  81.119  27.735  0.00  0.00    +0.118 A 
ATOM     13  N   LIG    1      -34.443  80.007  27.186  0.00  0.00    -0.259 NA
ATOM     14  C   LIG    1      -34.090  78.988  28.010  0.00  0.00    +0.044 A 
ATOM     15  C   LIG    1      -34.289  79.078  29.388  0.00  0.00    +0.024 A 
ATOM     16  C   LIG    1      -34.849  80.230  29.932  0.00  0.00    +0.010 A 
BRANCH  14  17
ATOM     17  C   LIG    1      -33.492  77.740  27.411  0.00  0.00    +0.038 C 
ATOM     18  C   LIG    1      -32.219  77.171  27.993  0.00  0.00    +0.010 C 
ATOM     19  C   LIG    1      -32.197  77.808  26.636  0.00  0.00    +0.010 C 
ENDBRANCH  14  17
ENDBRANCH  10  11
ENDBRANCH   9  10
ENDBRANCH   2   9
BRANCH   5  20
ATOM     20  C   LIG    1      -33.013  88.380  29.218  0.00  0.00    +0.161 C 
BRANCH  20  21
ATOM     21  N   LIG    1      -32.802  88.666  30.619  0.00  0.00    -0.293 N 
ATOM     22  C   LIG    1      -31.622  88.463  31.296  0.00  0.00    +0.162 A 
ATOM     23  N   LIG    1      -30.489  87.890  30.829  0.00  0.00    -0.235 NA
ATOM     24  C   LIG    1      -29.513  87.854  31.776  0.00  0.00    +0.121 A 
ATOM     25  C   LIG    1      -29.595  88.333  33.091  0.00  0.00    +0.005 A 
ATOM     26  C   LIG    1      -30.796  88.930  33.495  0.00  0.00    +0.041 A 
ATOM     27  C   LIG    1      -31.839  88.989  32.561  0.00  0.00    +0.110 A 
ATOM     28  N   LIG    1      -33.111  89.501  32.656  0.00  0.00    -0.213 NA
ATOM     29  C   LIG    1      -33.654  89.304  31.495  0.00  0.00    +0.195 A 
BRANCH  25  30
ATOM     30  C   LIG    1      -28.477  88.219  34.009  0.00  0.00    +0.021 A 
ATOM     31  C   LIG    1      -28.084  89.198  34.900  0.00  0.00    +0.116 A 
ATOM     32  N   LIG    1      -26.998  88.704  35.564  0.00  0.00    -0.274 N 
ATOM     33  C   LIG    1      -26.253  89.381  36.597  0.00  0.00    +0.172 C 
ATOM     34  N   LIG    1      -26.648  87.469  35.169  0.00  0.00    -0.179 NA
ATOM     35  C   LIG    1      -27.543  87.177  34.221  0.00  0.00    +0.143 A 
ENDBRANCH  25  30
BRANCH  29  36
ATOM     36  N   LIG    1      -34.909  89.679  31.147  0.00  0.00    -0.329 N 
ATOM     37  H   LIG    1      -35.616  89.387  31.818  0.00  0.00    +0.145 HD
ATOM     38  H   LIG    1      -35.224  89.576  30.193  0.00  0.00    +0.145 HD
ENDBRANCH  29  36
ENDBRANCH  20  21
ENDBRANCH   5  20
TORSDOF 9
ENDMDL
MODEL 8
REMARK VINA RESULT:      -5.9     19.274     23.156
REMARK  Name = pdb/CHEMBL3673479.pdb
REMARK                            x       y       z     vdW  Elec       q    Type
REMARK                         _______ _______ _______ _____ _____    ______ ____
ROOT
ATOM      1  C   LIG    1      -19.975  85.106  13.796  0.00  0.00    +0.162 A 
ATOM      2  C   LIG    1      -18.810  85.848  13.548  0.00  0.00    +0.162 A 
ATOM      3  C   LIG    1      -17.593  85.183  13.368  0.00  0.00    +0.050 A 
ATOM      4  C   LIG    1      -17.528  83.792  13.363  0.00  0.00    +0.009 A 
ATOM      5  C   LIG    1      -18.681  83.028  13.561  0.00  0.00    -0.024 A 
ATOM      6  C   LIG    1      -19.898  83.697  13.786  0.00  0.00    +0.054 A 
ENDROOT
BRANCH   1   8
ATOM      7  C   LIG    1      -22.228  84.672  14.495  0.00  0.00    +0.277 C 
ATOM      8  O   LIG    1      -21.235  85.596  14.053  0.00  0.00    -0.491 OA
ENDBRANCH   1   8
BRANCH   2   9
ATOM      9  O   LIG    1      -18.882  87.215  13.519  0.00  0.00    -0.484 OA
BRANCH   9  10
ATOM     10  C   LIG    1      -18.716  87.832  12.250  0.00  0.00    +0.266 C 
BRANCH  10  11
ATOM     11  C   LIG    1      -20.029  88.405  11.815  0.00  0.00    +0.008 A 
ATOM     12  C   LIG    1      -20.992  88.785  12.736  0.00  0.00    +0.118 A 
ATOM     13  N   LIG    1      -22.181  89.335  12.405  0.00  0.00    -0.259 NA
ATOM     14  C   LIG    1      -22.459  89.526  11.090  0.00  0.00    +0.044 A 
ATOM     15  C   LIG    1      -21.547  89.151  10.103  0.00  0.00    +0.024 A 
ATOM     16  C   LIG    1      -20.330  88.581  10.465  0.00  0.00    +0.010 A 
BRANCH  14  17
ATOM     17  C   LIG    1      -23.783  90.135  10.705  0.00  0.00    +0.038 C 
ATOM     18  C   LIG    1      -24.874  90.261  11.743  0.00  0.00    +0.010 C 
ATOM     19  C   LIG    1      -25.024  89.277  10.622  0.00  0.00    +0.010 C 
ENDBRANCH  14  17
ENDBRANCH  10  11
ENDBRANCH   9  10
ENDBRANCH   2   9
BRANCH   5  20
ATOM     20  C   LIG    1      -18.572  81.520  13.524  0.00  0.00    +0.161 C 
BRANCH  20  21
ATOM     21  N   LIG    1      -19.384  80.886  14.538  0.00  0.00    -0.293 N 
ATOM     22  C   LIG    1      -20.638  80.362  14.329  0.00  0.00    +0.162 A 
ATOM     23  N   LIG    1      -21.378  80.413  13.197  0.00  0.00    -0.235 NA
ATOM     24  C   LIG    1      -22.576  79.787  13.348  0.00  0.00    +0.121 A 
ATOM     25  C   LIG    1      -23.054  79.144  14.498  0.00  0.00    +0.005 A 
ATOM     26  C   LIG    1      -22.222  79.117  15.625  0.00  0.00    +0.041 A 
ATOM     27  C   LIG    1      -20.977  79.754  15.529  0.00  0.00    +0.110 A 
ATOM     28  N   LIG    1      -19.961  79.897  16.444  0.00  0.00    -0.213 NA
ATOM     29  C   LIG    1      -19.032  80.562  15.831  0.00  0.00    +0.195 A 
BRANCH  25  30
ATOM     30  C   LIG    1      -24.365  78.523  14.528  0.00  0.00    +0.021 A 
ATOM     31  C   LIG    1      -24.745  77.441  13.760  0.00  0.00    +0.116 A 
ATOM     32  N   LIG    1      -26.045  77.176  14.079  0.00  0.00    -0.274 N 
ATOM     33  C   LIG    1      -26.860  76.122  13.524  0.00  0.00    +0.172 C 
ATOM     34  N   LIG    1      -26.550  78.012  15.001  0.00  0.00    -0.179 NA
ATOM     35  C   LIG    1      -25.530  78.834  15.270  0.00  0.00    +0.143 A 
ENDBRANCH  25  30
BRANCH  29  36
ATOM     36  N   LIG    1      -17.837  80.906  16.368  0.00  0.00    -0.329 N 
ATOM     37  H   LIG    1      -17.569  81.868  16.170  0.00  0.00    +0.145 HD
ATOM     38  H   LIG    1      -17.052  80.274  16.308  0.00  0.00    +0.145 HD
ENDBRANCH  29  36
ENDBRANCH  20  21
ENDBRANCH   5  20
TORSDOF 9
ENDMDL
MODEL 9
REMARK VINA RESULT:      -5.9     16.018     18.509
REMARK  Name = pdb/CHEMBL3673479.pdb
REMARK                            x       y       z     vdW  Elec       q    Type
REMARK                         _______ _______ _______ _____ _____    ______ ____
ROOT
ATOM      1  C   LIG    1      -27.029  78.288  12.509  0.00  0.00    +0.162 A 
ATOM      2  C   LIG    1      -27.068  77.189  13.381  0.00  0.00    +0.162 A 
ATOM      3  C   LIG    1      -28.000  76.169  13.164  0.00  0.00    +0.050 A 
ATOM      4  C   LIG    1      -28.848  76.193  12.059  0.00  0.00    +0.009 A 
ATOM      5  C   LIG    1      -28.798  77.253  11.150  0.00  0.00    -0.024 A 
ATOM      6  C   LIG    1      -27.891  78.301  11.392  0.00  0.00    +0.054 A 
ENDROOT
BRANCH   1   8
ATOM      7  C   LIG    1      -26.170  80.280  11.485  0.00  0.00    +0.277 C 
ATOM      8  O   LIG    1      -26.222  79.399  12.607  0.00  0.00    -0.491 OA
ENDBRANCH   1   8
BRANCH   2   9
ATOM      9  O   LIG    1      -26.210  77.150  14.447  0.00  0.00    -0.484 OA
BRANCH   9  10
ATOM     10  C   LIG    1      -24.862  76.800  14.164  0.00  0.00    +0.266 C 
BRANCH  10  11
ATOM     11  C   LIG    1      -23.958  77.834  14.760  0.00  0.00    +0.008 A 
ATOM     12  C   LIG    1      -22.583  77.765  14.607  0.00  0.00    +0.118 A 
ATOM     13  N   LIG    1      -21.720  78.683  15.096  0.00  0.00    -0.259 NA
ATOM     14  C   LIG    1      -22.224  79.739  15.785  0.00  0.00    +0.044 A 
ATOM     15  C   LIG    1      -23.597  79.867  15.996  0.00  0.00    +0.024 A 
ATOM     16  C   LIG    1      -24.468  78.907  15.489  0.00  0.00    +0.010 A 
BRANCH  14  17
ATOM     17  C   LIG    1      -21.273  80.769  16.340  0.00  0.00    +0.038 C 
ATOM     18  C   LIG    1      -21.705  82.215  16.418  0.00  0.00    +0.010 C 
ATOM     19  C   LIG    1      -20.653  81.805  15.430  0.00  0.00    +0.010 C 
ENDBRANCH  14  17
ENDBRANCH  10  11
ENDBRANCH   9  10
ENDBRANCH   2   9
BRANCH   5  20
ATOM     20  C   LIG    1      -29.719  77.229   9.951  0.00  0.00    +0.161 C 
BRANCH  20  21
ATOM     21  N   LIG    1      -31.067  77.633  10.286  0.00  0.00    -0.293 N 
ATOM     22  C   LIG    1      -31.496  78.935  10.392  0.00  0.00    +0.162 A 
ATOM     23  N   LIG    1      -30.752  80.061  10.299  0.00  0.00    -0.235 NA
ATOM     24  C   LIG    1      -31.509  81.180  10.454  0.00  0.00    +0.121 A 
ATOM     25  C   LIG    1      -32.891  81.241  10.681  0.00  0.00    +0.005 A 
ATOM     26  C   LIG    1      -33.595  80.032  10.746  0.00  0.00    +0.041 A 
ATOM     27  C   LIG    1      -32.864  78.845  10.600  0.00  0.00    +0.110 A 
ATOM     28  N   LIG    1      -33.263  77.530  10.617  0.00  0.00    -0.213 NA
ATOM     29  C   LIG    1      -32.184  76.837  10.423  0.00  0.00    +0.195 A 
BRANCH  25  30
ATOM     30  C   LIG    1      -33.577  82.510  10.843  0.00  0.00    +0.021 A 
ATOM     31  C   LIG    1      -32.952  83.727  11.027  0.00  0.00    +0.116 A 
ATOM     32  N   LIG    1      -33.944  84.657  11.144  0.00  0.00    -0.274 N 
ATOM     33  C   LIG    1      -33.762  86.075  11.346  0.00  0.00    +0.172 C 
ATOM     34  N   LIG    1      -35.178  84.136  11.054  0.00  0.00    -0.179 NA
ATOM     35  C   LIG    1      -34.955  82.830  10.876  0.00  0.00    +0.143 A 
ENDBRANCH  25  30
BRANCH  29  36
ATOM     36  N   LIG    1      -32.128  75.485  10.346  0.00  0.00    -0.329 N 
ATOM     37  H   LIG    1      -32.975  75.029  10.679  0.00  0.00    +0.145 HD
ATOM     38  H   LIG    1      -31.294  74.993  10.633  0.00  0.00    +0.145 HD
ENDBRANCH  29  36
ENDBRANCH  20  21
ENDBRANCH   5  20
TORSDOF 9
ENDMDL
