MODEL 1
REMARK VINA RESULT:      -6.2      0.000      0.000
REMARK  Name = pdb/CHEMBL3676105.pdb
REMARK                            x       y       z     vdW  Elec       q    Type
REMARK                         _______ _______ _______ _____ _____    ______ ____
ROOT
ATOM      1  C   LIG    1      -21.335  77.270  30.416  0.00  0.00    +0.101 A 
ATOM      2  C   LIG    1      -20.573  77.654  31.513  0.00  0.00    +0.170 A 
ATOM      3  N   LIG    1      -20.935  78.110  32.750  0.00  0.00    -0.212 NA
ATOM      4  C   LIG    1      -19.970  78.443  33.588  0.00  0.00    +0.126 A 
ATOM      5  C   LIG    1      -18.508  78.275  33.221  0.00  0.00    +0.063 A 
ATOM      6  C   LIG    1      -18.221  77.805  32.002  0.00  0.00    +0.118 A 
ATOM      7  N   LIG    1      -19.241  77.492  31.125  0.00  0.00    -0.221 N 
ATOM      8  N   LIG    1      -19.136  76.997  29.871  0.00  0.00    -0.173 NA
ATOM      9  C   LIG    1      -20.391  76.878  29.451  0.00  0.00    +0.150 A 
ENDROOT
BRANCH   4  10
ATOM     10  N   LIG    1      -20.294  78.944  34.844  0.00  0.00    -0.308 N 
ATOM     11  C   LIG    1      -21.173  80.116  35.050  0.00  0.00    +0.110 C 
ATOM     12  C   LIG    1      -20.411  80.920  36.116  0.00  0.00    +0.029 C 
ATOM     13  C   LIG    1      -19.767  79.859  36.988  0.00  0.00    +0.021 C 
ATOM     14  C   LIG    1      -19.413  78.753  36.005  0.00  0.00    +0.107 C 
BRANCH  11  15
ATOM     15  C   LIG    1      -22.590  79.720  35.444  0.00  0.00    +0.037 A 
ATOM     16  C   LIG    1      -23.581  80.687  35.659  0.00  0.00    +0.220 A 
ATOM     17  N   LIG    1      -24.874  80.408  35.955  0.00  0.00    -0.218 NA
ATOM     18  C   LIG    1      -25.215  79.107  36.071  0.00  0.00    +0.153 A 
ATOM     19  C   LIG    1      -24.318  78.077  35.886  0.00  0.00    +0.142 A 
ATOM     20  F   LIG    1      -24.711  76.803  35.996  0.00  0.00    -0.204 F 
ATOM     21  C   LIG    1      -23.001  78.381  35.567  0.00  0.00    +0.050 A 
BRANCH  16  22
ATOM     22  O   LIG    1      -23.251  82.013  35.466  0.00  0.00    -0.479 OA
ATOM     23  C   LIG    1      -23.700  82.833  36.551  0.00  0.00    +0.279 C 
ENDBRANCH  16  22
ENDBRANCH  11  15
ENDBRANCH   4  10
BRANCH   1  26
ATOM     24  N   LIG    1      -23.392  77.124  31.543  0.00  0.00    -0.267 N 
ATOM     25  H   LIG    1      -22.783  77.071  32.374  0.00  0.00    +0.157 HD
ATOM     26  C   LIG    1      -22.772  77.283  30.254  0.00  0.00    +0.254 C 
ATOM     27  O   LIG    1      -23.373  77.396  29.217  0.00  0.00    -0.270 OA
BRANCH  24  32
ATOM     28  C   LIG    1      -26.841  76.861  32.444  0.00  0.00    +0.064 A 
ATOM     29  N   LIG    1      -26.959  77.459  31.253  0.00  0.00    -0.177 NA
ATOM     30  N   LIG    1      -25.690  77.624  30.845  0.00  0.00    -0.264 N 
ATOM     31  H   LIG    1      -25.536  78.053  29.937  0.00  0.00    +0.190 HD
ATOM     32  C   LIG    1      -24.762  77.122  31.716  0.00  0.00    +0.121 A 
ATOM     33  C   LIG    1      -25.487  76.623  32.776  0.00  0.00    +0.068 A 
BRANCH  28  35
ATOM     34  C   LIG    1      -29.276  77.288  32.796  0.00  0.00    +0.010 C 
ATOM     35  C   LIG    1      -28.040  76.536  33.269  0.00  0.00    +0.054 C 
ENDBRANCH  28  35
ENDBRANCH  24  32
ENDBRANCH   1  26
TORSDOF 6
ENDMDL
MODEL 2
REMARK VINA RESULT:      -6.1     19.232     22.427
REMARK  Name = pdb/CHEMBL3676105.pdb
REMARK                            x       y       z     vdW  Elec       q    Type
REMARK                         _______ _______ _______ _____ _____    ______ ____
ROOT
ATOM      1  C   LIG    1      -22.463  87.369  13.832  0.00  0.00    +0.101 A 
ATOM      2  C   LIG    1      -23.210  87.167  12.678  0.00  0.00    +0.170 A 
ATOM      3  N   LIG    1      -24.067  86.164  12.320  0.00  0.00    -0.212 NA
ATOM      4  C   LIG    1      -24.611  86.220  11.117  0.00  0.00    +0.126 A 
ATOM      5  C   LIG    1      -24.344  87.383  10.181  0.00  0.00    +0.063 A 
ATOM      6  C   LIG    1      -23.510  88.342  10.599  0.00  0.00    +0.118 A 
ATOM      7  N   LIG    1      -22.925  88.252  11.846  0.00  0.00    -0.221 N 
ATOM      8  N   LIG    1      -22.078  89.130  12.432  0.00  0.00    -0.173 NA
ATOM      9  C   LIG    1      -21.798  88.588  13.613  0.00  0.00    +0.150 A 
ENDROOT
BRANCH   4  10
ATOM     10  N   LIG    1      -25.461  85.203  10.700  0.00  0.00    -0.308 N 
ATOM     11  C   LIG    1      -25.014  84.054   9.882  0.00  0.00    +0.110 C 
ATOM     12  C   LIG    1      -26.124  83.947   8.823  0.00  0.00    +0.029 C 
ATOM     13  C   LIG    1      -27.384  84.346   9.569  0.00  0.00    +0.021 C 
ATOM     14  C   LIG    1      -26.905  85.420  10.533  0.00  0.00    +0.107 C 
BRANCH  11  15
ATOM     15  C   LIG    1      -24.804  82.795  10.713  0.00  0.00    +0.037 A 
ATOM     16  C   LIG    1      -23.562  82.510  11.298  0.00  0.00    +0.220 A 
ATOM     17  N   LIG    1      -23.317  81.441  12.095  0.00  0.00    -0.218 NA
ATOM     18  C   LIG    1      -24.337  80.586  12.315  0.00  0.00    +0.153 A 
ATOM     19  C   LIG    1      -25.596  80.769  11.784  0.00  0.00    +0.142 A 
ATOM     20  F   LIG    1      -26.580  79.900  12.046  0.00  0.00    -0.204 F 
ATOM     21  C   LIG    1      -25.835  81.878  10.982  0.00  0.00    +0.050 A 
BRANCH  16  22
ATOM     22  O   LIG    1      -22.540  83.422  11.135  0.00  0.00    -0.479 OA
ATOM     23  C   LIG    1      -21.324  82.969  11.742  0.00  0.00    +0.279 C 
ENDBRANCH  16  22
ENDBRANCH  11  15
ENDBRANCH   4  10
BRANCH   1  26
ATOM     24  N   LIG    1      -22.628  85.166  14.632  0.00  0.00    -0.267 N 
ATOM     25  H   LIG    1      -22.820  84.960  13.640  0.00  0.00    +0.157 HD
ATOM     26  C   LIG    1      -22.347  86.528  15.002  0.00  0.00    +0.254 C 
ATOM     27  O   LIG    1      -22.071  86.889  16.117  0.00  0.00    -0.270 OA
BRANCH  24  32
ATOM     28  C   LIG    1      -22.460  82.147  16.539  0.00  0.00    +0.064 A 
ATOM     29  N   LIG    1      -22.583  83.038  17.530  0.00  0.00    -0.177 NA
ATOM     30  N   LIG    1      -22.627  84.223  16.897  0.00  0.00    -0.264 N 
ATOM     31  H   LIG    1      -22.737  85.059  17.463  0.00  0.00    +0.190 HD
ATOM     32  C   LIG    1      -22.571  84.121  15.533  0.00  0.00    +0.121 A 
ATOM     33  C   LIG    1      -22.455  82.774  15.271  0.00  0.00    +0.068 A 
BRANCH  28  35
ATOM     34  C   LIG    1      -23.266  79.856  15.959  0.00  0.00    +0.010 C 
ATOM     35  C   LIG    1      -22.330  80.689  16.823  0.00  0.00    +0.054 C 
ENDBRANCH  28  35
ENDBRANCH  24  32
ENDBRANCH   1  26
TORSDOF 6
ENDMDL
MODEL 3
REMARK VINA RESULT:      -6.0     12.446     15.701
REMARK  Name = pdb/CHEMBL3676105.pdb
REMARK                            x       y       z     vdW  Elec       q    Type
REMARK                         _______ _______ _______ _____ _____    ______ ____
ROOT
ATOM      1  C   LIG    1      -35.740  70.239  25.591  0.00  0.00    +0.101 A 
ATOM      2  C   LIG    1      -35.000  70.619  26.703  0.00  0.00    +0.170 A 
ATOM      3  N   LIG    1      -34.937  71.802  27.387  0.00  0.00    -0.212 NA
ATOM      4  C   LIG    1      -34.094  71.882  28.400  0.00  0.00    +0.126 A 
ATOM      5  C   LIG    1      -33.261  70.691  28.833  0.00  0.00    +0.063 A 
ATOM      6  C   LIG    1      -33.382  69.557  28.134  0.00  0.00    +0.118 A 
ATOM      7  N   LIG    1      -34.245  69.499  27.057  0.00  0.00    -0.221 N 
ATOM      8  N   LIG    1      -34.503  68.441  26.255  0.00  0.00    -0.173 NA
ATOM      9  C   LIG    1      -35.389  68.895  25.375  0.00  0.00    +0.150 A 
ENDROOT
BRANCH   4  10
ATOM     10  N   LIG    1      -33.973  73.076  29.101  0.00  0.00    -0.308 N 
ATOM     11  C   LIG    1      -33.470  74.328  28.493  0.00  0.00    +0.110 C 
ATOM     12  C   LIG    1      -32.501  74.852  29.567  0.00  0.00    +0.029 C 
ATOM     13  C   LIG    1      -33.148  74.445  30.877  0.00  0.00    +0.021 C 
ATOM     14  C   LIG    1      -33.791  73.105  30.559  0.00  0.00    +0.107 C 
BRANCH  11  15
ATOM     15  C   LIG    1      -34.591  75.289  28.125  0.00  0.00    +0.037 A 
ATOM     16  C   LIG    1      -34.353  76.405  27.311  0.00  0.00    +0.220 A 
ATOM     17  N   LIG    1      -35.310  77.270  26.895  0.00  0.00    -0.218 NA
ATOM     18  C   LIG    1      -36.572  77.047  27.318  0.00  0.00    +0.153 A 
ATOM     19  C   LIG    1      -36.915  75.983  28.125  0.00  0.00    +0.142 A 
ATOM     20  F   LIG    1      -38.185  75.795  28.504  0.00  0.00    -0.204 F 
ATOM     21  C   LIG    1      -35.924  75.096  28.528  0.00  0.00    +0.050 A 
BRANCH  16  22
ATOM     22  O   LIG    1      -33.079  76.592  26.817  0.00  0.00    -0.479 OA
ATOM     23  C   LIG    1      -32.654  77.954  26.948  0.00  0.00    +0.279 C 
ENDBRANCH  16  22
ENDBRANCH  11  15
ENDBRANCH   4  10
BRANCH   1  26
ATOM     24  N   LIG    1      -37.188  72.090  25.598  0.00  0.00    -0.267 N 
ATOM     25  H   LIG    1      -36.846  72.188  26.566  0.00  0.00    +0.157 HD
ATOM     26  C   LIG    1      -36.654  71.025  24.791  0.00  0.00    +0.254 C 
ATOM     27  O   LIG    1      -36.945  70.830  23.640  0.00  0.00    -0.270 OA
BRANCH  24  32
ATOM     28  C   LIG    1      -39.174  74.876  24.563  0.00  0.00    +0.064 A 
ATOM     29  N   LIG    1      -39.898  73.874  24.050  0.00  0.00    -0.177 NA
ATOM     30  N   LIG    1      -39.201  72.771  24.373  0.00  0.00    -0.264 N 
ATOM     31  H   LIG    1      -39.581  71.872  24.093  0.00  0.00    +0.190 HD
ATOM     32  C   LIG    1      -38.074  73.028  25.104  0.00  0.00    +0.121 A 
ATOM     33  C   LIG    1      -38.027  74.398  25.237  0.00  0.00    +0.068 A 
BRANCH  28  35
ATOM     34  C   LIG    1      -40.807  76.427  23.483  0.00  0.00    +0.010 C 
ATOM     35  C   LIG    1      -39.586  76.298  24.382  0.00  0.00    +0.054 C 
ENDBRANCH  28  35
ENDBRANCH  24  32
ENDBRANCH   1  26
TORSDOF 6
ENDMDL
MODEL 4
REMARK VINA RESULT:      -5.9     13.096     18.502
REMARK  Name = pdb/CHEMBL3676105.pdb
REMARK                            x       y       z     vdW  Elec       q    Type
REMARK                         _______ _______ _______ _____ _____    ______ ____
ROOT
ATOM      1  C   LIG    1      -38.494  74.475  24.750  0.00  0.00    +0.101 A 
ATOM      2  C   LIG    1      -38.264  73.114  24.913  0.00  0.00    +0.170 A 
ATOM      3  N   LIG    1      -37.196  72.433  25.426  0.00  0.00    -0.212 NA
ATOM      4  C   LIG    1      -37.245  71.113  25.413  0.00  0.00    +0.126 A 
ATOM      5  C   LIG    1      -38.464  70.371  24.901  0.00  0.00    +0.063 A 
ATOM      6  C   LIG    1      -39.484  71.097  24.429  0.00  0.00    +0.118 A 
ATOM      7  N   LIG    1      -39.404  72.476  24.420  0.00  0.00    -0.221 N 
ATOM      8  N   LIG    1      -40.337  73.360  23.999  0.00  0.00    -0.173 NA
ATOM      9  C   LIG    1      -39.780  74.552  24.189  0.00  0.00    +0.150 A 
ENDROOT
BRANCH   4  10
ATOM     10  N   LIG    1      -36.166  70.380  25.894  0.00  0.00    -0.308 N 
ATOM     11  C   LIG    1      -36.301  69.036  26.496  0.00  0.00    +0.110 C 
ATOM     12  C   LIG    1      -35.400  69.136  27.738  0.00  0.00    +0.029 C 
ATOM     13  C   LIG    1      -34.263  70.037  27.297  0.00  0.00    +0.021 C 
ATOM     14  C   LIG    1      -34.934  71.030  26.361  0.00  0.00    +0.107 C 
BRANCH  11  15
ATOM     15  C   LIG    1      -35.925  67.923  25.526  0.00  0.00    +0.037 A 
ATOM     16  C   LIG    1      -36.304  66.594  25.764  0.00  0.00    +0.220 A 
ATOM     17  N   LIG    1      -36.056  65.563  24.920  0.00  0.00    -0.218 NA
ATOM     18  C   LIG    1      -35.377  65.840  23.787  0.00  0.00    +0.153 A 
ATOM     19  C   LIG    1      -34.953  67.110  23.459  0.00  0.00    +0.142 A 
ATOM     20  F   LIG    1      -34.297  67.336  22.315  0.00  0.00    -0.204 F 
ATOM     21  C   LIG    1      -35.230  68.158  24.328  0.00  0.00    +0.050 A 
BRANCH  16  22
ATOM     22  O   LIG    1      -37.062  66.323  26.884  0.00  0.00    -0.479 OA
ATOM     23  C   LIG    1      -36.439  65.342  27.721  0.00  0.00    +0.279 C 
ENDBRANCH  16  22
ENDBRANCH  11  15
ENDBRANCH   4  10
BRANCH   1  26
ATOM     24  N   LIG    1      -36.965  75.347  26.307  0.00  0.00    -0.267 N 
ATOM     25  H   LIG    1      -37.144  74.452  26.787  0.00  0.00    +0.157 HD
ATOM     26  C   LIG    1      -37.623  75.590  25.051  0.00  0.00    +0.254 C 
ATOM     27  O   LIG    1      -37.467  76.576  24.378  0.00  0.00    -0.270 OA
BRANCH  24  32
ATOM     28  C   LIG    1      -34.288  77.192  27.792  0.00  0.00    +0.064 A 
ATOM     29  N   LIG    1      -35.170  78.180  27.602  0.00  0.00    -0.177 NA
ATOM     30  N   LIG    1      -36.215  77.573  27.013  0.00  0.00    -0.264 N 
ATOM     31  H   LIG    1      -37.026  78.140  26.787  0.00  0.00    +0.190 HD
ATOM     32  C   LIG    1      -36.048  76.224  26.851  0.00  0.00    +0.121 A 
ATOM     33  C   LIG    1      -34.792  75.949  27.346  0.00  0.00    +0.068 A 
BRANCH  28  35
ATOM     34  C   LIG    1      -32.218  78.584  27.676  0.00  0.00    +0.010 C 
ATOM     35  C   LIG    1      -32.948  77.457  28.392  0.00  0.00    +0.054 C 
ENDBRANCH  28  35
ENDBRANCH  24  32
ENDBRANCH   1  26
TORSDOF 6
ENDMDL
MODEL 5
REMARK VINA RESULT:      -5.8     11.563     16.136
REMARK  Name = pdb/CHEMBL3676105.pdb
REMARK                            x       y       z     vdW  Elec       q    Type
REMARK                         _______ _______ _______ _____ _____    ______ ____
ROOT
ATOM      1  C   LIG    1      -33.285  75.774  28.155  0.00  0.00    +0.101 A 
ATOM      2  C   LIG    1      -33.442  74.456  28.568  0.00  0.00    +0.170 A 
ATOM      3  N   LIG    1      -34.426  73.542  28.316  0.00  0.00    -0.212 NA
ATOM      4  C   LIG    1      -34.325  72.357  28.891  0.00  0.00    +0.126 A 
ATOM      5  C   LIG    1      -33.133  71.994  29.754  0.00  0.00    +0.063 A 
ATOM      6  C   LIG    1      -32.194  72.928  29.945  0.00  0.00    +0.118 A 
ATOM      7  N   LIG    1      -32.330  74.173  29.364  0.00  0.00    -0.221 N 
ATOM      8  N   LIG    1      -31.479  75.222  29.437  0.00  0.00    -0.173 NA
ATOM      9  C   LIG    1      -32.063  76.178  28.721  0.00  0.00    +0.150 A 
ENDROOT
BRANCH   4  10
ATOM     10  N   LIG    1      -35.322  71.408  28.690  0.00  0.00    -0.308 N 
ATOM     11  C   LIG    1      -36.016  71.220  27.397  0.00  0.00    +0.110 C 
ATOM     12  C   LIG    1      -37.488  71.100  27.824  0.00  0.00    +0.029 C 
ATOM     13  C   LIG    1      -37.427  70.379  29.157  0.00  0.00    +0.021 C 
ATOM     14  C   LIG    1      -36.153  70.911  29.795  0.00  0.00    +0.107 C 
BRANCH  11  15
ATOM     15  C   LIG    1      -35.481  70.028  26.616  0.00  0.00    +0.037 A 
ATOM     16  C   LIG    1      -35.670  69.922  25.231  0.00  0.00    +0.220 A 
ATOM     17  N   LIG    1      -35.175  68.921  24.463  0.00  0.00    -0.218 NA
ATOM     18  C   LIG    1      -34.472  67.952  25.087  0.00  0.00    +0.153 A 
ATOM     19  C   LIG    1      -34.232  67.956  26.444  0.00  0.00    +0.142 A 
ATOM     20  F   LIG    1      -33.514  66.980  27.013  0.00  0.00    -0.204 F 
ATOM     21  C   LIG    1      -34.733  68.998  27.214  0.00  0.00    +0.050 A 
BRANCH  16  22
ATOM     22  O   LIG    1      -36.324  70.949  24.582  0.00  0.00    -0.479 OA
ATOM     23  C   LIG    1      -37.515  70.491  23.931  0.00  0.00    +0.279 C 
ENDBRANCH  16  22
ENDBRANCH  11  15
ENDBRANCH   4  10
BRANCH   1  26
ATOM     24  N   LIG    1      -35.439  75.926  27.228  0.00  0.00    -0.267 N 
ATOM     25  H   LIG    1      -35.575  75.036  27.730  0.00  0.00    +0.157 HD
ATOM     26  C   LIG    1      -34.167  76.589  27.350  0.00  0.00    +0.254 C 
ATOM     27  O   LIG    1      -33.898  77.648  26.845  0.00  0.00    -0.270 OA
BRANCH  24  32
ATOM     28  C   LIG    1      -38.143  76.923  25.114  0.00  0.00    +0.064 A 
ATOM     29  N   LIG    1      -38.115  77.962  25.956  0.00  0.00    -0.177 NA
ATOM     30  N   LIG    1      -37.129  77.656  26.817  0.00  0.00    -0.264 N 
ATOM     31  H   LIG    1      -36.915  78.325  27.549  0.00  0.00    +0.190 HD
ATOM     32  C   LIG    1      -36.501  76.473  26.535  0.00  0.00    +0.121 A 
ATOM     33  C   LIG    1      -37.149  75.968  25.430  0.00  0.00    +0.068 A 
BRANCH  28  35
ATOM     34  C   LIG    1      -40.139  75.714  24.225  0.00  0.00    +0.010 C 
ATOM     35  C   LIG    1      -39.147  76.847  24.012  0.00  0.00    +0.054 C 
ENDBRANCH  28  35
ENDBRANCH  24  32
ENDBRANCH   1  26
TORSDOF 6
ENDMDL
MODEL 6
REMARK VINA RESULT:      -5.8     11.570     15.828
REMARK  Name = pdb/CHEMBL3676105.pdb
REMARK                            x       y       z     vdW  Elec       q    Type
REMARK                         _______ _______ _______ _____ _____    ______ ____
ROOT
ATOM      1  C   LIG    1      -33.178  75.949  28.254  0.00  0.00    +0.101 A 
ATOM      2  C   LIG    1      -33.153  74.578  28.480  0.00  0.00    +0.170 A 
ATOM      3  N   LIG    1      -33.921  73.565  27.977  0.00  0.00    -0.212 NA
ATOM      4  C   LIG    1      -33.688  72.341  28.417  0.00  0.00    +0.126 A 
ATOM      5  C   LIG    1      -32.573  72.052  29.402  0.00  0.00    +0.063 A 
ATOM      6  C   LIG    1      -31.845  73.085  29.842  0.00  0.00    +0.118 A 
ATOM      7  N   LIG    1      -32.122  74.363  29.397  0.00  0.00    -0.221 N 
ATOM      8  N   LIG    1      -31.485  75.512  29.721  0.00  0.00    -0.173 NA
ATOM      9  C   LIG    1      -32.130  76.456  29.042  0.00  0.00    +0.150 A 
ENDROOT
BRANCH   4  10
ATOM     10  N   LIG    1      -34.468  71.286  27.957  0.00  0.00    -0.308 N 
ATOM     11  C   LIG    1      -35.932  71.210  28.158  0.00  0.00    +0.110 C 
ATOM     12  C   LIG    1      -36.132  69.750  28.596  0.00  0.00    +0.029 C 
ATOM     13  C   LIG    1      -35.086  68.983  27.810  0.00  0.00    +0.021 C 
ATOM     14  C   LIG    1      -33.909  69.944  27.745  0.00  0.00    +0.107 C 
BRANCH  11  15
ATOM     15  C   LIG    1      -36.713  71.614  26.915  0.00  0.00    +0.037 A 
ATOM     16  C   LIG    1      -37.440  72.811  26.871  0.00  0.00    +0.220 A 
ATOM     17  N   LIG    1      -38.111  73.262  25.783  0.00  0.00    -0.218 NA
ATOM     18  C   LIG    1      -38.090  72.487  24.678  0.00  0.00    +0.153 A 
ATOM     19  C   LIG    1      -37.411  71.289  24.615  0.00  0.00    +0.142 A 
ATOM     20  F   LIG    1      -37.408  70.565  23.490  0.00  0.00    -0.204 F 
ATOM     21  C   LIG    1      -36.716  70.849  25.735  0.00  0.00    +0.050 A 
BRANCH  16  22
ATOM     22  O   LIG    1      -37.400  73.639  27.974  0.00  0.00    -0.479 OA
ATOM     23  C   LIG    1      -38.698  74.147  28.302  0.00  0.00    +0.279 C 
ENDBRANCH  16  22
ENDBRANCH  11  15
ENDBRANCH   4  10
BRANCH   1  26
ATOM     24  N   LIG    1      -35.328  76.017  27.307  0.00  0.00    -0.267 N 
ATOM     25  H   LIG    1      -35.441  75.134  27.826  0.00  0.00    +0.157 HD
ATOM     26  C   LIG    1      -34.077  76.721  27.426  0.00  0.00    +0.254 C 
ATOM     27  O   LIG    1      -33.837  77.777  26.902  0.00  0.00    -0.270 OA
BRANCH  24  32
ATOM     28  C   LIG    1      -38.225  77.574  25.910  0.00  0.00    +0.064 A 
ATOM     29  N   LIG    1      -37.851  76.814  24.874  0.00  0.00    -0.177 NA
ATOM     30  N   LIG    1      -36.735  76.202  25.307  0.00  0.00    -0.264 N 
ATOM     31  H   LIG    1      -36.279  75.550  24.678  0.00  0.00    +0.190 HD
ATOM     32  C   LIG    1      -36.400  76.517  26.596  0.00  0.00    +0.121 A 
ATOM     33  C   LIG    1      -37.354  77.419  27.012  0.00  0.00    +0.068 A 
BRANCH  28  35
ATOM     34  C   LIG    1      -40.644  77.839  26.470  0.00  0.00    +0.010 C 
ATOM     35  C   LIG    1      -39.419  78.466  25.823  0.00  0.00    +0.054 C 
ENDBRANCH  28  35
ENDBRANCH  24  32
ENDBRANCH   1  26
TORSDOF 6
ENDMDL
MODEL 7
REMARK VINA RESULT:      -5.8     14.039     19.878
REMARK  Name = pdb/CHEMBL3676105.pdb
REMARK                            x       y       z     vdW  Elec       q    Type
REMARK                         _______ _______ _______ _____ _____    ______ ____
ROOT
ATOM      1  C   LIG    1      -39.470  76.184  24.164  0.00  0.00    +0.101 A 
ATOM      2  C   LIG    1      -40.234  75.035  24.002  0.00  0.00    +0.170 A 
ATOM      3  N   LIG    1      -39.965  73.724  24.280  0.00  0.00    -0.212 NA
ATOM      4  C   LIG    1      -40.886  72.829  23.973  0.00  0.00    +0.126 A 
ATOM      5  C   LIG    1      -42.223  73.238  23.385  0.00  0.00    +0.063 A 
ATOM      6  C   LIG    1      -42.431  74.539  23.154  0.00  0.00    +0.118 A 
ATOM      7  N   LIG    1      -41.445  75.459  23.451  0.00  0.00    -0.221 N 
ATOM      8  N   LIG    1      -41.490  76.802  23.299  0.00  0.00    -0.173 NA
ATOM      9  C   LIG    1      -40.301  77.226  23.717  0.00  0.00    +0.150 A 
ENDROOT
BRANCH   4  10
ATOM     10  N   LIG    1      -40.640  71.481  24.207  0.00  0.00    -0.308 N 
ATOM     11  C   LIG    1      -39.561  70.723  23.535  0.00  0.00    +0.110 C 
ATOM     12  C   LIG    1      -40.269  69.416  23.141  0.00  0.00    +0.029 C 
ATOM     13  C   LIG    1      -41.247  69.171  24.274  0.00  0.00    +0.021 C 
ATOM     14  C   LIG    1      -41.695  70.569  24.671  0.00  0.00    +0.107 C 
BRANCH  11  15
ATOM     15  C   LIG    1      -38.337  70.541  24.423  0.00  0.00    +0.037 A 
ATOM     16  C   LIG    1      -37.157  69.973  23.924  0.00  0.00    +0.220 A 
ATOM     17  N   LIG    1      -36.012  69.832  24.637  0.00  0.00    -0.218 NA
ATOM     18  C   LIG    1      -36.027  70.249  25.920  0.00  0.00    +0.153 A 
ATOM     19  C   LIG    1      -37.136  70.817  26.511  0.00  0.00    +0.142 A 
ATOM     20  F   LIG    1      -37.094  71.230  27.783  0.00  0.00    -0.204 F 
ATOM     21  C   LIG    1      -38.296  70.969  25.762  0.00  0.00    +0.050 A 
BRANCH  16  22
ATOM     22  O   LIG    1      -37.117  69.615  22.593  0.00  0.00    -0.479 OA
ATOM     23  C   LIG    1      -36.613  68.286  22.416  0.00  0.00    +0.279 C 
ENDBRANCH  16  22
ENDBRANCH  11  15
ENDBRANCH   4  10
BRANCH   1  26
ATOM     24  N   LIG    1      -38.007  75.657  25.926  0.00  0.00    -0.267 N 
ATOM     25  H   LIG    1      -38.835  75.163  26.291  0.00  0.00    +0.157 HD
ATOM     26  C   LIG    1      -38.116  76.318  24.652  0.00  0.00    +0.254 C 
ATOM     27  O   LIG    1      -37.213  76.894  24.104  0.00  0.00    -0.270 OA
BRANCH  24  32
ATOM     28  C   LIG    1      -35.149  75.055  27.986  0.00  0.00    +0.064 A 
ATOM     29  N   LIG    1      -34.765  76.188  27.386  0.00  0.00    -0.177 NA
ATOM     30  N   LIG    1      -35.784  76.478  26.559  0.00  0.00    -0.264 N 
ATOM     31  H   LIG    1      -35.716  77.325  26.003  0.00  0.00    +0.190 HD
ATOM     32  C   LIG    1      -36.823  75.591  26.633  0.00  0.00    +0.121 A 
ATOM     33  C   LIG    1      -36.432  74.645  27.554  0.00  0.00    +0.068 A 
BRANCH  28  35
ATOM     34  C   LIG    1      -33.721  73.052  28.413  0.00  0.00    +0.010 C 
ATOM     35  C   LIG    1      -34.264  74.361  28.966  0.00  0.00    +0.054 C 
ENDBRANCH  28  35
ENDBRANCH  24  32
ENDBRANCH   1  26
TORSDOF 6
ENDMDL
MODEL 8
REMARK VINA RESULT:      -5.7      2.353      6.038
REMARK  Name = pdb/CHEMBL3676105.pdb
REMARK                            x       y       z     vdW  Elec       q    Type
REMARK                         _______ _______ _______ _____ _____    ______ ____
ROOT
ATOM      1  C   LIG    1      -19.174  78.005  32.267  0.00  0.00    +0.101 A 
ATOM      2  C   LIG    1      -20.376  77.589  31.708  0.00  0.00    +0.170 A 
ATOM      3  N   LIG    1      -21.668  77.739  32.130  0.00  0.00    -0.212 NA
ATOM      4  C   LIG    1      -22.621  77.190  31.398  0.00  0.00    +0.126 A 
ATOM      5  C   LIG    1      -22.307  76.465  30.104  0.00  0.00    +0.063 A 
ATOM      6  C   LIG    1      -21.024  76.370  29.737  0.00  0.00    +0.118 A 
ATOM      7  N   LIG    1      -20.037  76.921  30.530  0.00  0.00    -0.221 N 
ATOM      8  N   LIG    1      -18.702  76.933  30.308  0.00  0.00    -0.173 NA
ATOM      9  C   LIG    1      -18.194  77.573  31.356  0.00  0.00    +0.150 A 
ENDROOT
BRANCH   4  10
ATOM     10  N   LIG    1      -23.946  77.289  31.808  0.00  0.00    -0.308 N 
ATOM     11  C   LIG    1      -24.502  76.527  32.948  0.00  0.00    +0.110 C 
ATOM     12  C   LIG    1      -25.842  76.022  32.388  0.00  0.00    +0.029 C 
ATOM     13  C   LIG    1      -26.308  77.144  31.479  0.00  0.00    +0.021 C 
ATOM     14  C   LIG    1      -25.017  77.682  30.882  0.00  0.00    +0.107 C 
BRANCH  11  15
ATOM     15  C   LIG    1      -24.618  77.370  34.211  0.00  0.00    +0.037 A 
ATOM     16  C   LIG    1      -24.863  76.780  35.459  0.00  0.00    +0.220 A 
ATOM     17  N   LIG    1      -24.922  77.459  36.630  0.00  0.00    -0.218 NA
ATOM     18  C   LIG    1      -24.755  78.797  36.579  0.00  0.00    +0.153 A 
ATOM     19  C   LIG    1      -24.515  79.478  35.406  0.00  0.00    +0.142 A 
ATOM     20  F   LIG    1      -24.339  80.805  35.411  0.00  0.00    -0.204 F 
ATOM     21  C   LIG    1      -24.442  78.765  34.216  0.00  0.00    +0.050 A 
BRANCH  16  22
ATOM     22  O   LIG    1      -24.959  75.405  35.521  0.00  0.00    -0.479 OA
ATOM     23  C   LIG    1      -26.244  74.985  35.996  0.00  0.00    +0.279 C 
ENDBRANCH  16  22
ENDBRANCH  11  15
ENDBRANCH   4  10
BRANCH   1  26
ATOM     24  N   LIG    1      -20.135  79.407  33.890  0.00  0.00    -0.267 N 
ATOM     25  H   LIG    1      -20.972  79.301  33.296  0.00  0.00    +0.157 HD
ATOM     26  C   LIG    1      -18.938  78.702  33.512  0.00  0.00    +0.254 C 
ATOM     27  O   LIG    1      -17.913  78.714  34.141  0.00  0.00    -0.270 OA
BRANCH  24  32
ATOM     28  C   LIG    1      -20.705  81.638  36.623  0.00  0.00    +0.064 A 
ATOM     29  N   LIG    1      -19.820  80.807  37.186  0.00  0.00    -0.177 NA
ATOM     30  N   LIG    1      -19.566  79.904  36.223  0.00  0.00    -0.264 N 
ATOM     31  H   LIG    1      -18.893  79.171  36.428  0.00  0.00    +0.190 HD
ATOM     32  C   LIG    1      -20.229  80.147  35.051  0.00  0.00    +0.121 A 
ATOM     33  C   LIG    1      -20.989  81.272  35.287  0.00  0.00    +0.068 A 
BRANCH  28  35
ATOM     34  C   LIG    1      -20.229  83.783  37.810  0.00  0.00    +0.010 C 
ATOM     35  C   LIG    1      -21.290  82.778  37.388  0.00  0.00    +0.054 C 
ENDBRANCH  28  35
ENDBRANCH  24  32
ENDBRANCH   1  26
TORSDOF 6
ENDMDL
MODEL 9
REMARK VINA RESULT:      -5.7     12.964     16.379
REMARK  Name = pdb/CHEMBL3676105.pdb
REMARK                            x       y       z     vdW  Elec       q    Type
REMARK                         _______ _______ _______ _____ _____    ______ ____
ROOT
ATOM      1  C   LIG    1      -35.164  76.476  27.302  0.00  0.00    +0.101 A 
ATOM      2  C   LIG    1      -35.076  77.821  27.637  0.00  0.00    +0.170 A 
ATOM      3  N   LIG    1      -36.042  78.773  27.817  0.00  0.00    -0.212 NA
ATOM      4  C   LIG    1      -35.648  80.003  28.095  0.00  0.00    +0.126 A 
ATOM      5  C   LIG    1      -34.180  80.345  28.267  0.00  0.00    +0.063 A 
ATOM      6  C   LIG    1      -33.287  79.364  28.096  0.00  0.00    +0.118 A 
ATOM      7  N   LIG    1      -33.713  78.090  27.774  0.00  0.00    -0.221 N 
ATOM      8  N   LIG    1      -32.957  76.985  27.581  0.00  0.00    -0.173 NA
ATOM      9  C   LIG    1      -33.832  76.028  27.288  0.00  0.00    +0.150 A 
ENDROOT
BRANCH   4  10
ATOM     10  N   LIG    1      -36.594  81.008  28.253  0.00  0.00    -0.308 N 
ATOM     11  C   LIG    1      -36.472  82.344  27.629  0.00  0.00    +0.110 C 
ATOM     12  C   LIG    1      -36.860  83.286  28.781  0.00  0.00    +0.029 C 
ATOM     13  C   LIG    1      -37.924  82.518  29.543  0.00  0.00    +0.021 C 
ATOM     14  C   LIG    1      -37.471  81.071  29.431  0.00  0.00    +0.107 C 
BRANCH  11  15
ATOM     15  C   LIG    1      -37.329  82.484  26.378  0.00  0.00    +0.037 A 
ATOM     16  C   LIG    1      -36.921  83.287  25.304  0.00  0.00    +0.220 A 
ATOM     17  N   LIG    1      -37.602  83.414  24.139  0.00  0.00    -0.218 NA
ATOM     18  C   LIG    1      -38.763  82.735  24.023  0.00  0.00    +0.153 A 
ATOM     19  C   LIG    1      -39.259  81.922  25.020  0.00  0.00    +0.142 A 
ATOM     20  F   LIG    1      -40.407  81.257  24.850  0.00  0.00    -0.204 F 
ATOM     21  C   LIG    1      -38.540  81.791  26.202  0.00  0.00    +0.050 A 
BRANCH  16  22
ATOM     22  O   LIG    1      -35.699  83.921  25.392  0.00  0.00    -0.479 OA
ATOM     23  C   LIG    1      -35.843  85.345  25.424  0.00  0.00    +0.279 C 
ENDBRANCH  16  22
ENDBRANCH  11  15
ENDBRANCH   4  10
BRANCH   1  26
ATOM     24  N   LIG    1      -36.874  76.105  25.733  0.00  0.00    -0.267 N 
ATOM     25  H   LIG    1      -36.369  76.835  25.207  0.00  0.00    +0.157 HD
ATOM     26  C   LIG    1      -36.337  75.685  27.000  0.00  0.00    +0.254 C 
ATOM     27  O   LIG    1      -36.811  74.819  27.688  0.00  0.00    -0.270 OA
BRANCH  24  32
ATOM     28  C   LIG    1      -39.493  74.122  24.323  0.00  0.00    +0.064 A 
ATOM     29  N   LIG    1      -40.008  75.344  24.143  0.00  0.00    -0.177 NA
ATOM     30  N   LIG    1      -39.087  76.166  24.677  0.00  0.00    -0.264 N 
ATOM     31  H   LIG    1      -39.264  77.165  24.636  0.00  0.00    +0.190 HD
ATOM     32  C   LIG    1      -37.984  75.516  25.161  0.00  0.00    +0.121 A 
ATOM     33  C   LIG    1      -38.226  74.177  24.950  0.00  0.00    +0.068 A 
BRANCH  28  35
ATOM     34  C   LIG    1      -39.412  71.637  24.096  0.00  0.00    +0.010 C 
ATOM     35  C   LIG    1      -40.238  72.900  23.904  0.00  0.00    +0.054 C 
ENDBRANCH  28  35
ENDBRANCH  24  32
ENDBRANCH   1  26
TORSDOF 6
ENDMDL
