MODEL 1
REMARK VINA RESULT:      -7.2      0.000      0.000
REMARK  Name = pdb/CHEMBL2010872.pdb
REMARK                            x       y       z     vdW  Elec       q    Type
REMARK                         _______ _______ _______ _____ _____    ______ ____
ROOT
ATOM      1  N   LIG    1      -42.717  73.436  23.014  0.00  0.00    -0.339 N 
ATOM      2  C   LIG    1      -41.810  74.337  23.583  0.00  0.00    +0.054 A 
ATOM      3  C   LIG    1      -41.803  75.727  23.862  0.00  0.00    -0.014 A 
ATOM      4  C   LIG    1      -43.029  76.640  23.756  0.00  0.00    +0.044 C 
ATOM      5  C   LIG    1      -42.926  77.981  24.522  0.00  0.00    +0.062 C 
ATOM      6  C   LIG    1      -41.599  78.575  24.255  0.00  0.00    +0.071 A 
ATOM      7  C   LIG    1      -40.459  77.756  24.154  0.00  0.00    +0.024 A 
ATOM      8  C   LIG    1      -39.480  78.586  23.671  0.00  0.00    +0.116 A 
ATOM      9  N   LIG    1      -40.059  79.825  23.571  0.00  0.00    -0.274 N 
ATOM     10  C   LIG    1      -39.479  80.997  22.962  0.00  0.00    +0.172 C 
ATOM     11  N   LIG    1      -41.363  79.847  23.935  0.00  0.00    -0.176 NA
ATOM     12  C   LIG    1      -40.536  76.316  24.180  0.00  0.00    +0.003 A 
ATOM     13  C   LIG    1      -39.461  75.479  24.465  0.00  0.00    +0.050 A 
ATOM     14  C   LIG    1      -38.155  75.813  24.984  0.00  0.00    +0.245 C 
ATOM     15  O   LIG    1      -37.610  76.864  25.322  0.00  0.00    -0.270 OA
ATOM     16  N   LIG    1      -37.495  74.598  25.095  0.00  0.00    -0.307 N 
ATOM     17  H   LIG    1      -36.562  74.572  25.480  0.00  0.00    +0.149 HD
ATOM     18  C   LIG    1      -38.248  73.431  24.694  0.00  0.00    +0.141 C 
ATOM     19  C   LIG    1      -39.508  74.077  24.315  0.00  0.00    -0.008 A 
ATOM     20  C   LIG    1      -40.716  73.542  23.815  0.00  0.00    +0.013 A 
ATOM     21  C   LIG    1      -40.869  72.207  23.473  0.00  0.00    +0.010 A 
ATOM     22  C   LIG    1      -40.086  71.042  23.466  0.00  0.00    +0.034 A 
ATOM     23  C   LIG    1      -40.537  69.849  22.892  0.00  0.00    +0.034 A 
ATOM     24  C   LIG    1      -41.867  69.796  22.468  0.00  0.00    +0.025 A 
ATOM     25  C   LIG    1      -42.708  70.922  22.523  0.00  0.00    +0.028 A 
ATOM     26  C   LIG    1      -42.176  72.140  22.984  0.00  0.00    +0.050 A 
ENDROOT
BRANCH  23  27
ATOM     27  N   LIG    1      -39.692  68.733  22.736  0.00  0.00    -0.284 N 
ATOM     28  H   LIG    1      -39.924  67.916  23.283  0.00  0.00    +0.155 HD
BRANCH  27  29
ATOM     29  C   LIG    1      -39.026  68.311  21.575  0.00  0.00    +0.219 A 
ATOM     30  N   LIG    1      -37.962  68.986  21.104  0.00  0.00    -0.223 NA
ATOM     31  C   LIG    1      -37.403  68.584  19.953  0.00  0.00    +0.116 A 
ATOM     32  C   LIG    1      -37.863  67.514  19.239  0.00  0.00    +0.039 A 
ATOM     33  C   LIG    1      -38.942  66.868  19.794  0.00  0.00    +0.116 A 
ATOM     34  N   LIG    1      -39.532  67.237  20.952  0.00  0.00    -0.223 NA
ENDBRANCH  27  29
ENDBRANCH  23  27
BRANCH   1  35
ATOM     35  C   LIG    1      -43.985  73.765  22.367  0.00  0.00    +0.125 C 
BRANCH  35  37
ATOM     36  C   LIG    1      -44.661  72.960  20.054  0.00  0.00    +0.009 C 
ATOM     37  C   LIG    1      -43.890  74.024  20.845  0.00  0.00    +0.003 C 
ATOM     38  C   LIG    1      -44.423  75.405  20.465  0.00  0.00    +0.009 C 
ENDBRANCH  35  37
ENDBRANCH   1  35
TORSDOF 4
ENDMDL
MODEL 2
REMARK VINA RESULT:      -7.1      3.247      8.203
REMARK  Name = pdb/CHEMBL2010872.pdb
REMARK                            x       y       z     vdW  Elec       q    Type
REMARK                         _______ _______ _______ _____ _____    ______ ____
ROOT
ATOM      1  N   LIG    1      -40.229  75.454  24.826  0.00  0.00    -0.339 N 
ATOM      2  C   LIG    1      -40.007  74.144  24.384  0.00  0.00    +0.054 A 
ATOM      3  C   LIG    1      -40.768  73.163  23.699  0.00  0.00    -0.014 A 
ATOM      4  C   LIG    1      -42.125  73.424  23.038  0.00  0.00    +0.044 C 
ATOM      5  C   LIG    1      -42.560  72.379  21.982  0.00  0.00    +0.062 C 
ATOM      6  C   LIG    1      -42.304  71.028  22.523  0.00  0.00    +0.071 A 
ATOM      7  C   LIG    1      -41.160  70.777  23.301  0.00  0.00    +0.024 A 
ATOM      8  C   LIG    1      -41.366  69.526  23.824  0.00  0.00    +0.116 A 
ATOM      9  N   LIG    1      -42.555  69.094  23.297  0.00  0.00    -0.274 N 
ATOM     10  C   LIG    1      -43.278  67.902  23.669  0.00  0.00    +0.172 C 
ATOM     11  N   LIG    1      -43.150  69.998  22.483  0.00  0.00    -0.176 NA
ATOM     12  C   LIG    1      -40.257  71.825  23.711  0.00  0.00    +0.003 A 
ATOM     13  C   LIG    1      -38.949  71.611  24.135  0.00  0.00    +0.050 A 
ATOM     14  C   LIG    1      -38.152  70.408  24.069  0.00  0.00    +0.245 C 
ATOM     15  O   LIG    1      -38.351  69.270  23.643  0.00  0.00    -0.270 OA
ATOM     16  N   LIG    1      -36.925  70.765  24.609  0.00  0.00    -0.307 N 
ATOM     17  H   LIG    1      -36.177  70.087  24.634  0.00  0.00    +0.149 HD
ATOM     18  C   LIG    1      -36.803  72.137  25.048  0.00  0.00    +0.141 C 
ATOM     19  C   LIG    1      -38.140  72.622  24.696  0.00  0.00    -0.008 A 
ATOM     20  C   LIG    1      -38.741  73.891  24.848  0.00  0.00    +0.013 A 
ATOM     21  C   LIG    1      -38.132  74.943  25.515  0.00  0.00    +0.010 A 
ATOM     22  C   LIG    1      -36.923  75.182  26.189  0.00  0.00    +0.034 A 
ATOM     23  C   LIG    1      -36.693  76.365  26.900  0.00  0.00    +0.034 A 
ATOM     24  C   LIG    1      -37.640  77.385  26.785  0.00  0.00    +0.025 A 
ATOM     25  C   LIG    1      -38.833  77.211  26.061  0.00  0.00    +0.028 A 
ATOM     26  C   LIG    1      -39.088  75.960  25.470  0.00  0.00    +0.050 A 
ENDROOT
BRANCH  23  27
ATOM     27  N   LIG    1      -35.554  76.535  27.711  0.00  0.00    -0.284 N 
ATOM     28  H   LIG    1      -35.241  75.719  28.219  0.00  0.00    +0.155 HD
BRANCH  27  29
ATOM     29  C   LIG    1      -34.444  77.360  27.477  0.00  0.00    +0.219 A 
ATOM     30  N   LIG    1      -34.506  78.685  27.707  0.00  0.00    -0.223 NA
ATOM     31  C   LIG    1      -33.442  79.441  27.401  0.00  0.00    +0.116 A 
ATOM     32  C   LIG    1      -32.293  78.925  26.872  0.00  0.00    +0.039 A 
ATOM     33  C   LIG    1      -32.301  77.565  26.683  0.00  0.00    +0.116 A 
ATOM     34  N   LIG    1      -33.350  76.766  26.980  0.00  0.00    -0.223 NA
ENDBRANCH  27  29
ENDBRANCH  23  27
BRANCH   1  35
ATOM     35  C   LIG    1      -41.497  76.178  24.806  0.00  0.00    +0.125 C 
BRANCH  35  37
ATOM     36  C   LIG    1      -43.132  76.973  23.032  0.00  0.00    +0.009 C 
ATOM     37  C   LIG    1      -41.704  77.093  23.577  0.00  0.00    +0.003 C 
ATOM     38  C   LIG    1      -41.421  78.560  23.901  0.00  0.00    +0.009 C 
ENDBRANCH  35  37
ENDBRANCH   1  35
TORSDOF 4
ENDMDL
MODEL 3
REMARK VINA RESULT:      -6.8     19.178     23.044
REMARK  Name = pdb/CHEMBL2010872.pdb
REMARK                            x       y       z     vdW  Elec       q    Type
REMARK                         _______ _______ _______ _____ _____    ______ ____
ROOT
ATOM      1  N   LIG    1      -20.557  76.718  32.485  0.00  0.00    -0.339 N 
ATOM      2  C   LIG    1      -20.432  77.758  33.413  0.00  0.00    +0.054 A 
ATOM      3  C   LIG    1      -19.419  78.212  34.294  0.00  0.00    -0.014 A 
ATOM      4  C   LIG    1      -17.972  77.706  34.289  0.00  0.00    +0.044 C 
ATOM      5  C   LIG    1      -16.944  78.625  34.992  0.00  0.00    +0.062 C 
ATOM      6  C   LIG    1      -17.515  79.070  36.280  0.00  0.00    +0.071 A 
ATOM      7  C   LIG    1      -18.885  79.369  36.388  0.00  0.00    +0.024 A 
ATOM      8  C   LIG    1      -19.104  79.502  37.736  0.00  0.00    +0.116 A 
ATOM      9  N   LIG    1      -17.880  79.338  38.329  0.00  0.00    -0.274 N 
ATOM     10  C   LIG    1      -17.619  79.232  39.744  0.00  0.00    +0.172 C 
ATOM     11  N   LIG    1      -16.881  79.081  37.453  0.00  0.00    -0.176 NA
ATOM     12  C   LIG    1      -19.813  79.146  35.307  0.00  0.00    +0.003 A 
ATOM     13  C   LIG    1      -21.062  79.753  35.207  0.00  0.00    +0.050 A 
ATOM     14  C   LIG    1      -21.611  80.844  35.979  0.00  0.00    +0.245 C 
ATOM     15  O   LIG    1      -21.187  81.541  36.901  0.00  0.00    -0.270 OA
ATOM     16  N   LIG    1      -22.873  81.058  35.443  0.00  0.00    -0.307 N 
ATOM     17  H   LIG    1      -23.444  81.810  35.800  0.00  0.00    +0.149 HD
ATOM     18  C   LIG    1      -23.248  80.195  34.345  0.00  0.00    +0.141 C 
ATOM     19  C   LIG    1      -22.025  79.394  34.241  0.00  0.00    -0.008 A 
ATOM     20  C   LIG    1      -21.676  78.334  33.375  0.00  0.00    +0.013 A 
ATOM     21  C   LIG    1      -22.566  77.767  32.475  0.00  0.00    +0.010 A 
ATOM     22  C   LIG    1      -23.906  77.939  32.094  0.00  0.00    +0.034 A 
ATOM     23  C   LIG    1      -24.548  77.055  31.220  0.00  0.00    +0.034 A 
ATOM     24  C   LIG    1      -23.767  76.079  30.597  0.00  0.00    +0.025 A 
ATOM     25  C   LIG    1      -22.402  75.917  30.897  0.00  0.00    +0.028 A 
ATOM     26  C   LIG    1      -21.826  76.742  31.881  0.00  0.00    +0.050 A 
ENDROOT
BRANCH  23  27
ATOM     27  N   LIG    1      -25.932  77.130  30.970  0.00  0.00    -0.284 N 
ATOM     28  H   LIG    1      -26.228  76.918  30.028  0.00  0.00    +0.155 HD
BRANCH  27  29
ATOM     29  C   LIG    1      -26.984  76.817  31.843  0.00  0.00    +0.219 A 
ATOM     30  N   LIG    1      -26.870  75.815  32.734  0.00  0.00    -0.223 NA
ATOM     31  C   LIG    1      -27.929  75.509  33.498  0.00  0.00    +0.116 A 
ATOM     32  C   LIG    1      -29.118  76.175  33.417  0.00  0.00    +0.039 A 
ATOM     33  C   LIG    1      -29.151  77.195  32.497  0.00  0.00    +0.116 A 
ATOM     34  N   LIG    1      -28.107  77.538  31.710  0.00  0.00    -0.223 NA
ENDBRANCH  27  29
ENDBRANCH  23  27
BRANCH   1  35
ATOM     35  C   LIG    1      -19.610  75.629  32.260  0.00  0.00    +0.125 C 
BRANCH  35  37
ATOM     36  C   LIG    1      -18.340  77.167  30.686  0.00  0.00    +0.009 C 
ATOM     37  C   LIG    1      -18.805  75.729  30.943  0.00  0.00    +0.003 C 
ATOM     38  C   LIG    1      -17.586  74.807  30.946  0.00  0.00    +0.009 C 
ENDBRANCH  35  37
ENDBRANCH   1  35
TORSDOF 4
ENDMDL
MODEL 4
REMARK VINA RESULT:      -6.7      3.044      7.734
REMARK  Name = pdb/CHEMBL2010872.pdb
REMARK                            x       y       z     vdW  Elec       q    Type
REMARK                         _______ _______ _______ _____ _____    ______ ____
ROOT
ATOM      1  N   LIG    1      -41.145  75.569  23.775  0.00  0.00    -0.339 N 
ATOM      2  C   LIG    1      -40.852  74.207  23.638  0.00  0.00    +0.054 A 
ATOM      3  C   LIG    1      -41.515  73.078  23.095  0.00  0.00    -0.014 A 
ATOM      4  C   LIG    1      -42.796  73.144  22.256  0.00  0.00    +0.044 C 
ATOM      5  C   LIG    1      -43.093  71.890  21.399  0.00  0.00    +0.062 C 
ATOM      6  C   LIG    1      -42.874  70.688  22.230  0.00  0.00    +0.071 A 
ATOM      7  C   LIG    1      -41.818  70.647  23.158  0.00  0.00    +0.024 A 
ATOM      8  C   LIG    1      -42.057  69.520  23.903  0.00  0.00    +0.116 A 
ATOM      9  N   LIG    1      -43.173  68.943  23.356  0.00  0.00    -0.274 N 
ATOM     10  C   LIG    1      -43.911  67.824  23.889  0.00  0.00    +0.172 C 
ATOM     11  N   LIG    1      -43.691  69.638  22.316  0.00  0.00    -0.176 NA
ATOM     12  C   LIG    1      -40.985  71.791  23.434  0.00  0.00    +0.003 A 
ATOM     13  C   LIG    1      -39.727  71.721  24.028  0.00  0.00    +0.050 A 
ATOM     14  C   LIG    1      -38.906  70.563  24.293  0.00  0.00    +0.245 C 
ATOM     15  O   LIG    1      -39.036  69.355  24.093  0.00  0.00    -0.270 OA
ATOM     16  N   LIG    1      -37.752  71.071  24.873  0.00  0.00    -0.307 N 
ATOM     17  H   LIG    1      -36.999  70.443  25.115  0.00  0.00    +0.149 HD
ATOM     18  C   LIG    1      -37.704  72.507  25.030  0.00  0.00    +0.141 C 
ATOM     19  C   LIG    1      -39.003  72.856  24.449  0.00  0.00    -0.008 A 
ATOM     20  C   LIG    1      -39.640  74.105  24.273  0.00  0.00    +0.013 A 
ATOM     21  C   LIG    1      -39.127  75.293  24.769  0.00  0.00    +0.010 A 
ATOM     22  C   LIG    1      -38.005  75.713  25.500  0.00  0.00    +0.034 A 
ATOM     23  C   LIG    1      -37.876  77.024  25.973  0.00  0.00    +0.034 A 
ATOM     24  C   LIG    1      -38.822  77.960  25.553  0.00  0.00    +0.025 A 
ATOM     25  C   LIG    1      -39.926  77.596  24.759  0.00  0.00    +0.028 A 
ATOM     26  C   LIG    1      -40.091  76.241  24.416  0.00  0.00    +0.050 A 
ENDROOT
BRANCH  23  27
ATOM     27  N   LIG    1      -36.835  77.400  26.845  0.00  0.00    -0.284 N 
ATOM     28  H   LIG    1      -37.096  77.992  27.622  0.00  0.00    +0.155 HD
BRANCH  27  29
ATOM     29  C   LIG    1      -35.710  76.651  27.220  0.00  0.00    +0.219 A 
ATOM     30  N   LIG    1      -35.838  75.530  27.953  0.00  0.00    -0.223 NA
ATOM     31  C   LIG    1      -34.728  74.888  28.346  0.00  0.00    +0.116 A 
ATOM     32  C   LIG    1      -33.471  75.318  28.028  0.00  0.00    +0.039 A 
ATOM     33  C   LIG    1      -33.425  76.459  27.264  0.00  0.00    +0.116 A 
ATOM     34  N   LIG    1      -34.517  77.135  26.845  0.00  0.00    -0.223 NA
ENDBRANCH  27  29
ENDBRANCH  23  27
BRANCH   1  35
ATOM     35  C   LIG    1      -42.416  76.223  23.475  0.00  0.00    +0.125 C 
BRANCH  35  37
ATOM     36  C   LIG    1      -44.258  77.652  24.485  0.00  0.00    +0.009 C 
ATOM     37  C   LIG    1      -43.338  76.443  24.696  0.00  0.00    +0.003 C 
ATOM     38  C   LIG    1      -44.197  75.214  24.994  0.00  0.00    +0.009 C 
ENDBRANCH  35  37
ENDBRANCH   1  35
TORSDOF 4
ENDMDL
MODEL 5
REMARK VINA RESULT:      -6.7      2.991      8.395
REMARK  Name = pdb/CHEMBL2010872.pdb
REMARK                            x       y       z     vdW  Elec       q    Type
REMARK                         _______ _______ _______ _____ _____    ______ ____
ROOT
ATOM      1  N   LIG    1      -41.470  74.245  24.062  0.00  0.00    -0.339 N 
ATOM      2  C   LIG    1      -41.373  72.941  23.564  0.00  0.00    +0.054 A 
ATOM      3  C   LIG    1      -40.545  71.819  23.818  0.00  0.00    -0.014 A 
ATOM      4  C   LIG    1      -39.559  71.715  24.987  0.00  0.00    +0.044 C 
ATOM      5  C   LIG    1      -39.104  70.279  25.346  0.00  0.00    +0.062 C 
ATOM      6  C   LIG    1      -38.771  69.566  24.096  0.00  0.00    +0.071 A 
ATOM      7  C   LIG    1      -39.534  69.769  22.932  0.00  0.00    +0.024 A 
ATOM      8  C   LIG    1      -38.815  69.160  21.936  0.00  0.00    +0.116 A 
ATOM      9  N   LIG    1      -37.729  68.596  22.554  0.00  0.00    -0.274 N 
ATOM     10  C   LIG    1      -36.596  67.981  21.906  0.00  0.00    +0.172 C 
ATOM     11  N   LIG    1      -37.683  68.823  23.887  0.00  0.00    -0.176 NA
ATOM     12  C   LIG    1      -40.584  70.755  22.859  0.00  0.00    +0.003 A 
ATOM     13  C   LIG    1      -41.601  70.750  21.908  0.00  0.00    +0.050 A 
ATOM     14  C   LIG    1      -41.965  69.715  20.967  0.00  0.00    +0.245 C 
ATOM     15  O   LIG    1      -41.533  68.589  20.721  0.00  0.00    -0.270 OA
ATOM     16  N   LIG    1      -43.058  70.227  20.283  0.00  0.00    -0.307 N 
ATOM     17  H   LIG    1      -43.520  69.659  19.588  0.00  0.00    +0.149 HD
ATOM     18  C   LIG    1      -43.490  71.548  20.680  0.00  0.00    +0.141 C 
ATOM     19  C   LIG    1      -42.514  71.812  21.741  0.00  0.00    -0.008 A 
ATOM     20  C   LIG    1      -42.329  72.933  22.579  0.00  0.00    +0.013 A 
ATOM     21  C   LIG    1      -43.045  74.111  22.438  0.00  0.00    +0.010 A 
ATOM     22  C   LIG    1      -44.050  74.620  21.599  0.00  0.00    +0.034 A 
ATOM     23  C   LIG    1      -44.451  75.959  21.650  0.00  0.00    +0.034 A 
ATOM     24  C   LIG    1      -43.939  76.750  22.680  0.00  0.00    +0.025 A 
ATOM     25  C   LIG    1      -42.982  76.259  23.587  0.00  0.00    +0.028 A 
ATOM     26  C   LIG    1      -42.506  74.945  23.420  0.00  0.00    +0.050 A 
ENDROOT
BRANCH  23  27
ATOM     27  N   LIG    1      -45.335  76.507  20.699  0.00  0.00    -0.284 N 
ATOM     28  H   LIG    1      -46.178  76.926  21.064  0.00  0.00    +0.155 HD
BRANCH  27  29
ATOM     29  C   LIG    1      -45.016  77.140  19.489  0.00  0.00    +0.219 A 
ATOM     30  N   LIG    1      -44.576  76.431  18.433  0.00  0.00    -0.223 NA
ATOM     31  C   LIG    1      -44.217  77.089  17.321  0.00  0.00    +0.116 A 
ATOM     32  C   LIG    1      -44.284  78.449  17.210  0.00  0.00    +0.039 A 
ATOM     33  C   LIG    1      -44.758  79.099  18.324  0.00  0.00    +0.116 A 
ATOM     34  N   LIG    1      -45.133  78.475  19.462  0.00  0.00    -0.223 NA
ENDBRANCH  27  29
ENDBRANCH  23  27
BRANCH   1  35
ATOM     35  C   LIG    1      -40.548  74.898  24.987  0.00  0.00    +0.125 C 
BRANCH  35  37
ATOM     36  C   LIG    1      -39.339  76.988  24.197  0.00  0.00    +0.009 C 
ATOM     37  C   LIG    1      -39.264  75.462  24.336  0.00  0.00    +0.003 C 
ATOM     38  C   LIG    1      -38.011  75.099  25.132  0.00  0.00    +0.009 C 
ENDBRANCH  35  37
ENDBRANCH   1  35
TORSDOF 4
ENDMDL
MODEL 6
REMARK VINA RESULT:      -6.7      2.801      8.224
REMARK  Name = pdb/CHEMBL2010872.pdb
REMARK                            x       y       z     vdW  Elec       q    Type
REMARK                         _______ _______ _______ _____ _____    ______ ____
ROOT
ATOM      1  N   LIG    1      -39.133  74.517  24.522  0.00  0.00    -0.339 N 
ATOM      2  C   LIG    1      -39.260  73.136  24.331  0.00  0.00    +0.054 A 
ATOM      3  C   LIG    1      -38.433  72.004  24.540  0.00  0.00    -0.014 A 
ATOM      4  C   LIG    1      -37.101  72.031  25.299  0.00  0.00    +0.044 C 
ATOM      5  C   LIG    1      -36.596  70.657  25.800  0.00  0.00    +0.062 C 
ATOM      6  C   LIG    1      -36.748  69.672  24.709  0.00  0.00    +0.071 A 
ATOM      7  C   LIG    1      -37.867  69.719  23.858  0.00  0.00    +0.024 A 
ATOM      8  C   LIG    1      -37.566  68.845  22.844  0.00  0.00    +0.116 A 
ATOM      9  N   LIG    1      -36.352  68.302  23.170  0.00  0.00    -0.274 N 
ATOM     10  C   LIG    1      -35.541  67.447  22.337  0.00  0.00    +0.172 C 
ATOM     11  N   LIG    1      -35.830  68.787  24.321  0.00  0.00    -0.176 NA
ATOM     12  C   LIG    1      -38.843  70.779  23.920  0.00  0.00    +0.003 A 
ATOM     13  C   LIG    1      -40.130  70.693  23.396  0.00  0.00    +0.050 A 
ATOM     14  C   LIG    1      -40.836  69.536  22.895  0.00  0.00    +0.245 C 
ATOM     15  O   LIG    1      -40.555  68.343  22.782  0.00  0.00    -0.270 OA
ATOM     16  N   LIG    1      -42.083  70.016  22.523  0.00  0.00    -0.307 N 
ATOM     17  H   LIG    1      -42.779  69.374  22.173  0.00  0.00    +0.149 HD
ATOM     18  C   LIG    1      -42.304  71.430  22.730  0.00  0.00    +0.141 C 
ATOM     19  C   LIG    1      -41.009  71.793  23.309  0.00  0.00    -0.008 A 
ATOM     20  C   LIG    1      -40.502  73.034  23.756  0.00  0.00    +0.013 A 
ATOM     21  C   LIG    1      -41.184  74.231  23.600  0.00  0.00    +0.010 A 
ATOM     22  C   LIG    1      -42.404  74.666  23.057  0.00  0.00    +0.034 A 
ATOM     23  C   LIG    1      -42.717  76.024  22.933  0.00  0.00    +0.034 A 
ATOM     24  C   LIG    1      -41.849  76.946  23.521  0.00  0.00    +0.025 A 
ATOM     25  C   LIG    1      -40.649  76.546  24.138  0.00  0.00    +0.028 A 
ATOM     26  C   LIG    1      -40.306  75.182  24.125  0.00  0.00    +0.050 A 
ENDROOT
BRANCH  23  27
ATOM     27  N   LIG    1      -43.862  76.462  22.238  0.00  0.00    -0.284 N 
ATOM     28  H   LIG    1      -43.848  77.419  21.914  0.00  0.00    +0.155 HD
BRANCH  27  29
ATOM     29  C   LIG    1      -44.690  75.719  21.385  0.00  0.00    +0.219 A 
ATOM     30  N   LIG    1      -44.350  75.510  20.100  0.00  0.00    -0.223 NA
ATOM     31  C   LIG    1      -45.208  74.853  19.305  0.00  0.00    +0.116 A 
ATOM     32  C   LIG    1      -46.411  74.380  19.746  0.00  0.00    +0.039 A 
ATOM     33  C   LIG    1      -46.678  74.618  21.072  0.00  0.00    +0.116 A 
ATOM     34  N   LIG    1      -45.842  75.273  21.907  0.00  0.00    -0.223 NA
ENDBRANCH  27  29
ENDBRANCH  23  27
BRANCH   1  35
ATOM     35  C   LIG    1      -37.923  75.237  24.906  0.00  0.00    +0.125 C 
BRANCH  35  37
ATOM     36  C   LIG    1      -38.412  74.805  27.361  0.00  0.00    +0.009 C 
ATOM     37  C   LIG    1      -37.950  75.841  26.329  0.00  0.00    +0.003 C 
ATOM     38  C   LIG    1      -36.582  76.380  26.749  0.00  0.00    +0.009 C 
ENDBRANCH  35  37
ENDBRANCH   1  35
TORSDOF 4
ENDMDL
MODEL 7
REMARK VINA RESULT:      -6.7      2.911      7.726
REMARK  Name = pdb/CHEMBL2010872.pdb
REMARK                            x       y       z     vdW  Elec       q    Type
REMARK                         _______ _______ _______ _____ _____    ______ ____
ROOT
ATOM      1  N   LIG    1      -42.035  73.531  23.233  0.00  0.00    -0.339 N 
ATOM      2  C   LIG    1      -40.781  73.912  23.723  0.00  0.00    +0.054 A 
ATOM      3  C   LIG    1      -39.635  73.234  24.209  0.00  0.00    -0.014 A 
ATOM      4  C   LIG    1      -39.418  71.720  24.118  0.00  0.00    +0.044 C 
ATOM      5  C   LIG    1      -37.953  71.248  24.281  0.00  0.00    +0.062 C 
ATOM      6  C   LIG    1      -37.354  71.963  25.427  0.00  0.00    +0.071 A 
ATOM      7  C   LIG    1      -37.668  73.313  25.669  0.00  0.00    +0.024 A 
ATOM      8  C   LIG    1      -37.146  73.571  26.911  0.00  0.00    +0.116 A 
ATOM      9  N   LIG    1      -36.521  72.415  27.299  0.00  0.00    -0.274 N 
ATOM     10  C   LIG    1      -35.960  72.137  28.599  0.00  0.00    +0.172 C 
ATOM     11  N   LIG    1      -36.625  71.411  26.398  0.00  0.00    -0.176 NA
ATOM     12  C   LIG    1      -38.663  74.024  24.906  0.00  0.00    +0.003 A 
ATOM     13  C   LIG    1      -38.751  75.411  24.830  0.00  0.00    +0.050 A 
ATOM     14  C   LIG    1      -37.809  76.412  25.279  0.00  0.00    +0.245 C 
ATOM     15  O   LIG    1      -36.707  76.367  25.825  0.00  0.00    -0.270 OA
ATOM     16  N   LIG    1      -38.388  77.624  24.934  0.00  0.00    -0.307 N 
ATOM     17  H   LIG    1      -37.889  78.483  25.114  0.00  0.00    +0.149 HD
ATOM     18  C   LIG    1      -39.671  77.546  24.271  0.00  0.00    +0.141 C 
ATOM     19  C   LIG    1      -39.830  76.090  24.226  0.00  0.00    -0.008 A 
ATOM     20  C   LIG    1      -40.870  75.281  23.715  0.00  0.00    +0.013 A 
ATOM     21  C   LIG    1      -42.061  75.797  23.228  0.00  0.00    +0.010 A 
ATOM     22  C   LIG    1      -42.650  77.060  23.055  0.00  0.00    +0.034 A 
ATOM     23  C   LIG    1      -43.982  77.207  22.653  0.00  0.00    +0.034 A 
ATOM     24  C   LIG    1      -44.672  76.057  22.263  0.00  0.00    +0.025 A 
ATOM     25  C   LIG    1      -44.094  74.778  22.355  0.00  0.00    +0.028 A 
ATOM     26  C   LIG    1      -42.798  74.660  22.889  0.00  0.00    +0.050 A 
ENDROOT
BRANCH  23  27
ATOM     27  N   LIG    1      -44.620  78.463  22.641  0.00  0.00    -0.284 N 
ATOM     28  H   LIG    1      -44.598  78.984  23.506  0.00  0.00    +0.155 HD
BRANCH  27  29
ATOM     29  C   LIG    1      -44.707  79.376  21.579  0.00  0.00    +0.219 A 
ATOM     30  N   LIG    1      -45.036  78.967  20.340  0.00  0.00    -0.223 NA
ATOM     31  C   LIG    1      -45.036  79.866  19.345  0.00  0.00    +0.116 A 
ATOM     32  C   LIG    1      -44.724  81.182  19.535  0.00  0.00    +0.039 A 
ATOM     33  C   LIG    1      -44.415  81.524  20.829  0.00  0.00    +0.116 A 
ATOM     34  N   LIG    1      -44.405  80.652  21.861  0.00  0.00    -0.223 NA
ENDBRANCH  27  29
ENDBRANCH  23  27
BRANCH   1  35
ATOM     35  C   LIG    1      -42.595  72.182  23.220  0.00  0.00    +0.125 C 
BRANCH  35  37
ATOM     36  C   LIG    1      -42.380  69.808  22.342  0.00  0.00    +0.009 C 
ATOM     37  C   LIG    1      -42.116  71.290  22.052  0.00  0.00    +0.003 C 
ATOM     38  C   LIG    1      -42.792  71.663  20.732  0.00  0.00    +0.009 C 
ENDBRANCH  35  37
ENDBRANCH   1  35
TORSDOF 4
ENDMDL
MODEL 8
REMARK VINA RESULT:      -6.7      3.112      8.007
REMARK  Name = pdb/CHEMBL2010872.pdb
REMARK                            x       y       z     vdW  Elec       q    Type
REMARK                         _______ _______ _______ _____ _____    ______ ____
ROOT
ATOM      1  N   LIG    1      -40.816  77.236  24.667  0.00  0.00    -0.339 N 
ATOM      2  C   LIG    1      -40.871  75.923  24.185  0.00  0.00    +0.054 A 
ATOM      3  C   LIG    1      -41.801  75.157  23.438  0.00  0.00    -0.014 A 
ATOM      4  C   LIG    1      -43.038  75.732  22.741  0.00  0.00    +0.044 C 
ATOM      5  C   LIG    1      -43.649  74.841  21.632  0.00  0.00    +0.062 C 
ATOM      6  C   LIG    1      -43.722  73.452  22.131  0.00  0.00    +0.071 A 
ATOM      7  C   LIG    1      -42.695  72.930  22.938  0.00  0.00    +0.024 A 
ATOM      8  C   LIG    1      -43.195  71.742  23.406  0.00  0.00    +0.116 A 
ATOM      9  N   LIG    1      -44.427  71.601  22.823  0.00  0.00    -0.274 N 
ATOM     10  C   LIG    1      -45.411  70.590  23.126  0.00  0.00    +0.172 C 
ATOM     11  N   LIG    1      -44.772  72.638  22.023  0.00  0.00    -0.176 NA
ATOM     12  C   LIG    1      -41.601  73.738  23.417  0.00  0.00    +0.003 A 
ATOM     13  C   LIG    1      -40.391  73.226  23.878  0.00  0.00    +0.050 A 
ATOM     14  C   LIG    1      -39.878  71.878  23.794  0.00  0.00    +0.245 C 
ATOM     15  O   LIG    1      -40.307  70.826  23.319  0.00  0.00    -0.270 OA
ATOM     16  N   LIG    1      -38.626  71.937  24.389  0.00  0.00    -0.307 N 
ATOM     17  H   LIG    1      -38.049  71.109  24.414  0.00  0.00    +0.149 HD
ATOM     18  C   LIG    1      -38.222  73.234  24.883  0.00  0.00    +0.141 C 
ATOM     19  C   LIG    1      -39.402  74.014  24.504  0.00  0.00    -0.008 A 
ATOM     20  C   LIG    1      -39.713  75.381  24.682  0.00  0.00    +0.013 A 
ATOM     21  C   LIG    1      -38.914  76.251  25.408  0.00  0.00    +0.010 A 
ATOM     22  C   LIG    1      -37.712  76.196  26.132  0.00  0.00    +0.034 A 
ATOM     23  C   LIG    1      -37.255  77.276  26.894  0.00  0.00    +0.034 A 
ATOM     24  C   LIG    1      -37.947  78.484  26.785  0.00  0.00    +0.025 A 
ATOM     25  C   LIG    1      -39.118  78.602  26.014  0.00  0.00    +0.028 A 
ATOM     26  C   LIG    1      -39.618  77.456  25.369  0.00  0.00    +0.050 A 
ENDROOT
BRANCH  23  27
ATOM     27  N   LIG    1      -36.142  77.164  27.750  0.00  0.00    -0.284 N 
ATOM     28  H   LIG    1      -36.064  76.303  28.273  0.00  0.00    +0.155 HD
BRANCH  27  29
ATOM     29  C   LIG    1      -34.851  77.680  27.558  0.00  0.00    +0.219 A 
ATOM     30  N   LIG    1      -34.606  78.997  27.689  0.00  0.00    -0.223 NA
ATOM     31  C   LIG    1      -33.372  79.451  27.426  0.00  0.00    +0.116 A 
ATOM     32  C   LIG    1      -32.349  78.633  27.037  0.00  0.00    +0.039 A 
ATOM     33  C   LIG    1      -32.674  77.302  26.942  0.00  0.00    +0.116 A 
ATOM     34  N   LIG    1      -33.903  76.802  27.200  0.00  0.00    -0.223 NA
ENDBRANCH  27  29
ENDBRANCH  23  27
BRANCH   1  35
ATOM     35  C   LIG    1      -41.889  78.225  24.631  0.00  0.00    +0.125 C 
BRANCH  35  37
ATOM     36  C   LIG    1      -42.718  79.290  26.784  0.00  0.00    +0.009 C 
ATOM     37  C   LIG    1      -42.900  78.130  25.797  0.00  0.00    +0.003 C 
ATOM     38  C   LIG    1      -44.347  78.125  25.302  0.00  0.00    +0.009 C 
ENDBRANCH  35  37
ENDBRANCH   1  35
TORSDOF 4
ENDMDL
MODEL 9
REMARK VINA RESULT:      -6.4      2.491      8.677
REMARK  Name = pdb/CHEMBL2010872.pdb
REMARK                            x       y       z     vdW  Elec       q    Type
REMARK                         _______ _______ _______ _____ _____    ______ ____
ROOT
ATOM      1  N   LIG    1      -42.773  76.206  23.171  0.00  0.00    -0.339 N 
ATOM      2  C   LIG    1      -41.758  75.266  23.383  0.00  0.00    +0.054 A 
ATOM      3  C   LIG    1      -41.623  73.865  23.214  0.00  0.00    -0.014 A 
ATOM      4  C   LIG    1      -42.639  72.977  22.487  0.00  0.00    +0.044 C 
ATOM      5  C   LIG    1      -42.104  71.601  22.022  0.00  0.00    +0.062 C 
ATOM      6  C   LIG    1      -41.328  71.000  23.127  0.00  0.00    +0.071 A 
ATOM      7  C   LIG    1      -40.520  71.804  23.950  0.00  0.00    +0.024 A 
ATOM      8  C   LIG    1      -40.157  70.982  24.986  0.00  0.00    +0.116 A 
ATOM      9  N   LIG    1      -40.704  69.759  24.698  0.00  0.00    -0.274 N 
ATOM     10  C   LIG    1      -40.735  68.606  25.566  0.00  0.00    +0.172 C 
ATOM     11  N   LIG    1      -41.423  69.740  23.552  0.00  0.00    -0.176 NA
ATOM     12  C   LIG    1      -40.498  73.243  23.846  0.00  0.00    +0.003 A 
ATOM     13  C   LIG    1      -39.478  74.050  24.341  0.00  0.00    +0.050 A 
ATOM     14  C   LIG    1      -38.178  73.671  24.846  0.00  0.00    +0.245 C 
ATOM     15  O   LIG    1      -37.592  72.598  24.987  0.00  0.00    -0.270 OA
ATOM     16  N   LIG    1      -37.565  74.870  25.180  0.00  0.00    -0.307 N 
ATOM     17  H   LIG    1      -36.616  74.864  25.525  0.00  0.00    +0.149 HD
ATOM     18  C   LIG    1      -38.342  76.065  24.942  0.00  0.00    +0.141 C 
ATOM     19  C   LIG    1      -39.554  75.458  24.388  0.00  0.00    -0.008 A 
ATOM     20  C   LIG    1      -40.760  76.034  23.930  0.00  0.00    +0.013 A 
ATOM     21  C   LIG    1      -41.048  77.384  24.049  0.00  0.00    +0.010 A 
ATOM     22  C   LIG    1      -40.424  78.536  24.555  0.00  0.00    +0.034 A 
ATOM     23  C   LIG    1      -41.094  79.761  24.648  0.00  0.00    +0.034 A 
ATOM     24  C   LIG    1      -42.359  79.854  24.063  0.00  0.00    +0.025 A 
ATOM     25  C   LIG    1      -42.991  78.740  23.482  0.00  0.00    +0.028 A 
ATOM     26  C   LIG    1      -42.339  77.494  23.528  0.00  0.00    +0.050 A 
ENDROOT
BRANCH  23  27
ATOM     27  N   LIG    1      -40.528  80.870  25.307  0.00  0.00    -0.284 N 
ATOM     28  H   LIG    1      -40.025  80.673  26.161  0.00  0.00    +0.155 HD
BRANCH  27  29
ATOM     29  C   LIG    1      -39.985  82.030  24.734  0.00  0.00    +0.219 A 
ATOM     30  N   LIG    1      -38.659  82.150  24.539  0.00  0.00    -0.223 NA
ATOM     31  C   LIG    1      -38.183  83.306  24.053  0.00  0.00    +0.116 A 
ATOM     32  C   LIG    1      -38.986  84.366  23.741  0.00  0.00    +0.039 A 
ATOM     33  C   LIG    1      -40.328  84.159  23.952  0.00  0.00    +0.116 A 
ATOM     34  N   LIG    1      -40.850  83.011  24.437  0.00  0.00    -0.223 NA
ENDBRANCH  27  29
ENDBRANCH  23  27
BRANCH   1  35
ATOM     35  C   LIG    1      -44.158  75.927  22.802  0.00  0.00    +0.125 C 
BRANCH  35  37
ATOM     36  C   LIG    1      -44.561  75.222  20.395  0.00  0.00    +0.009 C 
ATOM     37  C   LIG    1      -44.560  76.394  21.384  0.00  0.00    +0.003 C 
ATOM     38  C   LIG    1      -45.938  77.055  21.368  0.00  0.00    +0.009 C 
ENDBRANCH  35  37
ENDBRANCH   1  35
TORSDOF 4
ENDMDL
