MODEL 1
REMARK VINA RESULT:      -6.5      0.000      0.000
REMARK  Name = pdb/CHEMBL3972009.pdb
REMARK                            x       y       z     vdW  Elec       q    Type
REMARK                         _______ _______ _______ _____ _____    ______ ____
ROOT
ATOM      1  C   LIG    1      -25.371  77.422  31.826  0.00  0.00    +0.131 A 
ATOM      2  C   LIG    1      -25.144  77.808  33.142  0.00  0.00    +0.183 A 
ATOM      3  N   LIG    1      -24.353  78.775  33.745  0.00  0.00    -0.211 NA
ATOM      4  C   LIG    1      -24.337  78.859  35.059  0.00  0.00    +0.126 A 
ATOM      5  C   LIG    1      -25.234  77.986  35.911  0.00  0.00    +0.063 A 
ATOM      6  C   LIG    1      -25.945  77.046  35.290  0.00  0.00    +0.118 A 
ATOM      7  N   LIG    1      -25.896  76.915  33.912  0.00  0.00    -0.220 N 
ATOM      8  N   LIG    1      -26.509  75.968  33.158  0.00  0.00    -0.171 NA
ATOM      9  C   LIG    1      -26.115  76.240  31.912  0.00  0.00    +0.164 A 
ENDROOT
BRANCH   4  10
ATOM     10  N   LIG    1      -23.485  79.763  35.701  0.00  0.00    -0.308 N 
ATOM     11  C   LIG    1      -22.477  80.580  35.001  0.00  0.00    +0.108 C 
ATOM     12  C   LIG    1      -22.723  81.988  35.559  0.00  0.00    +0.029 C 
ATOM     13  C   LIG    1      -23.087  81.729  37.009  0.00  0.00    +0.021 C 
ATOM     14  C   LIG    1      -23.884  80.423  36.957  0.00  0.00    +0.107 C 
BRANCH  11  15
ATOM     15  C   LIG    1      -21.065  80.058  35.226  0.00  0.00    +0.011 A 
ATOM     16  C   LIG    1      -20.454  79.269  34.237  0.00  0.00    +0.129 A 
ATOM     17  F   LIG    1      -21.116  79.000  33.102  0.00  0.00    -0.205 F 
ATOM     18  C   LIG    1      -19.172  78.743  34.401  0.00  0.00    +0.041 A 
ATOM     19  C   LIG    1      -18.461  79.005  35.567  0.00  0.00    +0.041 A 
ATOM     20  C   LIG    1      -19.043  79.795  36.549  0.00  0.00    +0.124 A 
ATOM     21  F   LIG    1      -18.362  80.057  37.673  0.00  0.00    -0.205 F 
ATOM     22  C   LIG    1      -20.326  80.316  36.389  0.00  0.00    +0.046 A 
ENDBRANCH  11  15
ENDBRANCH   4  10
BRANCH   1  24
ATOM     23  C   LIG    1      -23.630  77.552  30.170  0.00  0.00    +0.193 C 
ATOM     24  N   LIG    1      -24.722  77.970  30.719  0.00  0.00    -0.212 NA
BRANCH  23  26
ATOM     25  C   LIG    1      -21.480  76.415  29.419  0.00  0.00    +0.020 C 
ATOM     26  C   LIG    1      -22.612  76.397  30.466  0.00  0.00    +0.038 C 
ATOM     27  C   LIG    1      -22.008  76.456  31.881  0.00  0.00    +0.020 C 
ATOM     28  C   LIG    1      -23.265  74.985  30.352  0.00  0.00    +0.020 C 
ENDBRANCH  23  26
BRANCH  23  29
ATOM     29  O   LIG    1      -23.268  78.330  29.119  0.00  0.00    -0.495 OA
ATOM     30  H   LIG    1      -22.712  79.089  29.318  0.00  0.00    +0.293 HD
ENDBRANCH  23  29
ENDBRANCH   1  24
TORSDOF 5
ENDMDL
MODEL 2
REMARK VINA RESULT:      -6.1      2.461      5.708
REMARK  Name = pdb/CHEMBL3972009.pdb
REMARK                            x       y       z     vdW  Elec       q    Type
REMARK                         _______ _______ _______ _____ _____    ______ ____
ROOT
ATOM      1  C   LIG    1      -24.078  80.840  35.941  0.00  0.00    +0.131 A 
ATOM      2  C   LIG    1      -24.384  79.785  35.090  0.00  0.00    +0.183 A 
ATOM      3  N   LIG    1      -23.794  79.256  33.951  0.00  0.00    -0.211 NA
ATOM      4  C   LIG    1      -24.374  78.243  33.342  0.00  0.00    +0.126 A 
ATOM      5  C   LIG    1      -25.616  77.593  33.913  0.00  0.00    +0.063 A 
ATOM      6  C   LIG    1      -26.168  78.159  34.985  0.00  0.00    +0.118 A 
ATOM      7  N   LIG    1      -25.592  79.273  35.574  0.00  0.00    -0.220 N 
ATOM      8  N   LIG    1      -26.077  79.988  36.619  0.00  0.00    -0.171 NA
ATOM      9  C   LIG    1      -25.194  80.978  36.773  0.00  0.00    +0.164 A 
ENDROOT
BRANCH   4  10
ATOM     10  N   LIG    1      -23.853  77.745  32.144  0.00  0.00    -0.308 N 
ATOM     11  C   LIG    1      -23.229  76.416  32.009  0.00  0.00    +0.108 C 
ATOM     12  C   LIG    1      -23.917  75.834  30.767  0.00  0.00    +0.029 C 
ATOM     13  C   LIG    1      -24.090  77.043  29.867  0.00  0.00    +0.021 C 
ATOM     14  C   LIG    1      -24.388  78.185  30.842  0.00  0.00    +0.107 C 
BRANCH  11  15
ATOM     15  C   LIG    1      -21.714  76.507  31.898  0.00  0.00    +0.011 A 
ATOM     16  C   LIG    1      -20.966  75.339  31.674  0.00  0.00    +0.129 A 
ATOM     17  F   LIG    1      -21.597  74.163  31.545  0.00  0.00    -0.205 F 
ATOM     18  C   LIG    1      -19.573  75.361  31.590  0.00  0.00    +0.041 A 
ATOM     19  C   LIG    1      -18.891  76.565  31.720  0.00  0.00    +0.041 A 
ATOM     20  C   LIG    1      -19.615  77.732  31.927  0.00  0.00    +0.124 A 
ATOM     21  F   LIG    1      -18.965  78.897  32.047  0.00  0.00    -0.205 F 
ATOM     22  C   LIG    1      -21.006  77.711  32.017  0.00  0.00    +0.046 A 
ENDBRANCH  11  15
ENDBRANCH   4  10
BRANCH   1  24
ATOM     23  C   LIG    1      -21.758  81.482  35.991  0.00  0.00    +0.193 C 
ATOM     24  N   LIG    1      -23.007  81.717  35.759  0.00  0.00    -0.212 NA
BRANCH  23  26
ATOM     25  C   LIG    1      -19.603  80.754  37.132  0.00  0.00    +0.020 C 
ATOM     26  C   LIG    1      -20.946  80.265  36.553  0.00  0.00    +0.038 C 
ATOM     27  C   LIG    1      -21.706  79.457  37.620  0.00  0.00    +0.020 C 
ATOM     28  C   LIG    1      -20.572  79.236  35.442  0.00  0.00    +0.020 C 
ENDBRANCH  23  26
BRANCH  23  29
ATOM     29  O   LIG    1      -20.987  82.565  35.722  0.00  0.00    -0.495 OA
ATOM     30  H   LIG    1      -20.990  82.881  34.814  0.00  0.00    +0.293 HD
ENDBRANCH  23  29
ENDBRANCH   1  24
TORSDOF 5
ENDMDL
MODEL 3
REMARK VINA RESULT:      -5.9     18.428     21.456
REMARK  Name = pdb/CHEMBL3972009.pdb
REMARK                            x       y       z     vdW  Elec       q    Type
REMARK                         _______ _______ _______ _____ _____    ______ ____
ROOT
ATOM      1  C   LIG    1      -18.407  85.767  12.716  0.00  0.00    +0.131 A 
ATOM      2  C   LIG    1      -18.319  84.380  12.732  0.00  0.00    +0.183 A 
ATOM      3  N   LIG    1      -18.580  83.404  13.683  0.00  0.00    -0.211 NA
ATOM      4  C   LIG    1      -18.352  82.142  13.383  0.00  0.00    +0.126 A 
ATOM      5  C   LIG    1      -17.903  81.736  11.996  0.00  0.00    +0.063 A 
ATOM      6  C   LIG    1      -17.628  82.709  11.129  0.00  0.00    +0.118 A 
ATOM      7  N   LIG    1      -17.797  84.039  11.480  0.00  0.00    -0.220 N 
ATOM      8  N   LIG    1      -17.495  85.128  10.731  0.00  0.00    -0.171 NA
ATOM      9  C   LIG    1      -17.792  86.161  11.523  0.00  0.00    +0.164 A 
ENDROOT
BRANCH   4  10
ATOM     10  N   LIG    1      -18.520  81.143  14.347  0.00  0.00    -0.308 N 
ATOM     11  C   LIG    1      -19.383  79.962  14.165  0.00  0.00    +0.108 C 
ATOM     12  C   LIG    1      -18.476  78.800  14.592  0.00  0.00    +0.029 C 
ATOM     13  C   LIG    1      -17.676  79.388  15.740  0.00  0.00    +0.021 C 
ATOM     14  C   LIG    1      -17.457  80.845  15.324  0.00  0.00    +0.107 C 
BRANCH  11  15
ATOM     15  C   LIG    1      -20.674  80.072  14.962  0.00  0.00    +0.011 A 
ATOM     16  C   LIG    1      -21.657  79.076  14.828  0.00  0.00    +0.129 A 
ATOM     17  F   LIG    1      -21.437  78.036  14.011  0.00  0.00    -0.205 F 
ATOM     18  C   LIG    1      -22.870  79.139  15.515  0.00  0.00    +0.041 A 
ATOM     19  C   LIG    1      -23.125  80.206  16.369  0.00  0.00    +0.041 A 
ATOM     20  C   LIG    1      -22.160  81.192  16.526  0.00  0.00    +0.124 A 
ATOM     21  F   LIG    1      -22.397  82.220  17.352  0.00  0.00    -0.205 F 
ATOM     22  C   LIG    1      -20.951  81.133  15.836  0.00  0.00    +0.046 A 
ENDBRANCH  11  15
ENDBRANCH   4  10
BRANCH   1  24
ATOM     23  C   LIG    1      -19.967  86.797  14.232  0.00  0.00    +0.193 C 
ATOM     24  N   LIG    1      -18.770  86.549  13.814  0.00  0.00    -0.212 NA
BRANCH  23  26
ATOM     25  C   LIG    1      -22.451  87.296  14.476  0.00  0.00    +0.020 C 
ATOM     26  C   LIG    1      -21.410  86.420  13.749  0.00  0.00    +0.038 C 
ATOM     27  C   LIG    1      -21.603  86.544  12.227  0.00  0.00    +0.020 C 
ATOM     28  C   LIG    1      -21.787  84.947  14.096  0.00  0.00    +0.020 C 
ENDBRANCH  23  26
BRANCH  23  29
ATOM     29  O   LIG    1      -19.959  87.612  15.317  0.00  0.00    -0.495 OA
ATOM     30  H   LIG    1      -20.555  88.366  15.293  0.00  0.00    +0.293 HD
ENDBRANCH  23  29
ENDBRANCH   1  24
TORSDOF 5
ENDMDL
MODEL 4
REMARK VINA RESULT:      -5.9     18.531     21.561
REMARK  Name = pdb/CHEMBL3972009.pdb
REMARK                            x       y       z     vdW  Elec       q    Type
REMARK                         _______ _______ _______ _____ _____    ______ ____
ROOT
ATOM      1  C   LIG    1      -19.162  85.498  12.827  0.00  0.00    +0.131 A 
ATOM      2  C   LIG    1      -19.510  84.153  12.836  0.00  0.00    +0.183 A 
ATOM      3  N   LIG    1      -20.015  83.289  13.798  0.00  0.00    -0.211 NA
ATOM      4  C   LIG    1      -20.206  82.025  13.485  0.00  0.00    +0.126 A 
ATOM      5  C   LIG    1      -19.974  81.523  12.075  0.00  0.00    +0.063 A 
ATOM      6  C   LIG    1      -19.453  82.379  11.197  0.00  0.00    +0.118 A 
ATOM      7  N   LIG    1      -19.182  83.688  11.558  0.00  0.00    -0.220 N 
ATOM      8  N   LIG    1      -18.593  84.642  10.795  0.00  0.00    -0.171 NA
ATOM      9  C   LIG    1      -18.514  85.702  11.603  0.00  0.00    +0.164 A 
ENDROOT
BRANCH   4  10
ATOM     10  N   LIG    1      -20.629  81.111  14.455  0.00  0.00    -0.308 N 
ATOM     11  C   LIG    1      -21.180  79.780  14.145  0.00  0.00    +0.108 C 
ATOM     12  C   LIG    1      -20.391  78.852  15.078  0.00  0.00    +0.029 C 
ATOM     13  C   LIG    1      -20.222  79.685  16.335  0.00  0.00    +0.021 C 
ATOM     14  C   LIG    1      -20.038  81.110  15.806  0.00  0.00    +0.107 C 
BRANCH  11  15
ATOM     15  C   LIG    1      -22.688  79.727  14.341  0.00  0.00    +0.011 A 
ATOM     16  C   LIG    1      -23.533  80.245  13.345  0.00  0.00    +0.129 A 
ATOM     17  F   LIG    1      -23.001  80.764  12.229  0.00  0.00    -0.205 F 
ATOM     18  C   LIG    1      -24.922  80.246  13.483  0.00  0.00    +0.041 A 
ATOM     19  C   LIG    1      -25.502  79.715  14.629  0.00  0.00    +0.041 A 
ATOM     20  C   LIG    1      -24.684  79.185  15.618  0.00  0.00    +0.124 A 
ATOM     21  F   LIG    1      -25.236  78.666  16.722  0.00  0.00    -0.205 F 
ATOM     22  C   LIG    1      -23.296  79.189  15.483  0.00  0.00    +0.046 A 
ENDBRANCH  11  15
ENDBRANCH   4  10
BRANCH   1  24
ATOM     23  C   LIG    1      -20.244  86.952  14.411  0.00  0.00    +0.193 C 
ATOM     24  N   LIG    1      -19.210  86.335  13.942  0.00  0.00    -0.212 NA
BRANCH  23  26
ATOM     25  C   LIG    1      -22.428  88.204  14.786  0.00  0.00    +0.020 C 
ATOM     26  C   LIG    1      -21.747  87.074  13.986  0.00  0.00    +0.038 C 
ATOM     27  C   LIG    1      -21.944  87.318  12.478  0.00  0.00    +0.020 C 
ATOM     28  C   LIG    1      -22.563  85.784  14.307  0.00  0.00    +0.020 C 
ENDBRANCH  23  26
BRANCH  23  29
ATOM     29  O   LIG    1      -19.930  87.699  15.499  0.00  0.00    -0.495 OA
ATOM     30  H   LIG    1      -19.437  87.257  16.196  0.00  0.00    +0.293 HD
ENDBRANCH  23  29
ENDBRANCH   1  24
TORSDOF 5
ENDMDL
MODEL 5
REMARK VINA RESULT:      -5.9     13.127     17.018
REMARK  Name = pdb/CHEMBL3972009.pdb
REMARK                            x       y       z     vdW  Elec       q    Type
REMARK                         _______ _______ _______ _____ _____    ______ ____
ROOT
ATOM      1  C   LIG    1      -33.811  76.950  27.513  0.00  0.00    +0.131 A 
ATOM      2  C   LIG    1      -34.966  76.197  27.346  0.00  0.00    +0.183 A 
ATOM      3  N   LIG    1      -36.196  76.430  26.746  0.00  0.00    -0.211 NA
ATOM      4  C   LIG    1      -37.118  75.492  26.795  0.00  0.00    +0.126 A 
ATOM      5  C   LIG    1      -36.828  74.139  27.408  0.00  0.00    +0.063 A 
ATOM      6  C   LIG    1      -35.649  73.975  28.006  0.00  0.00    +0.118 A 
ATOM      7  N   LIG    1      -34.713  74.997  28.017  0.00  0.00    -0.220 N 
ATOM      8  N   LIG    1      -33.509  74.996  28.640  0.00  0.00    -0.171 NA
ATOM      9  C   LIG    1      -33.014  76.212  28.395  0.00  0.00    +0.164 A 
ENDROOT
BRANCH   4  10
ATOM     10  N   LIG    1      -38.396  75.727  26.278  0.00  0.00    -0.308 N 
ATOM     11  C   LIG    1      -38.652  76.243  24.921  0.00  0.00    +0.108 C 
ATOM     12  C   LIG    1      -39.722  75.285  24.381  0.00  0.00    +0.029 C 
ATOM     13  C   LIG    1      -40.572  74.989  25.603  0.00  0.00    +0.021 C 
ATOM     14  C   LIG    1      -39.561  74.957  26.752  0.00  0.00    +0.107 C 
BRANCH  11  15
ATOM     15  C   LIG    1      -39.075  77.705  24.938  0.00  0.00    +0.011 A 
ATOM     16  C   LIG    1      -39.658  78.269  23.791  0.00  0.00    +0.129 A 
ATOM     17  F   LIG    1      -39.849  77.508  22.703  0.00  0.00    -0.205 F 
ATOM     18  C   LIG    1      -40.041  79.610  23.741  0.00  0.00    +0.041 A 
ATOM     19  C   LIG    1      -39.855  80.423  24.854  0.00  0.00    +0.041 A 
ATOM     20  C   LIG    1      -39.294  79.879  26.002  0.00  0.00    +0.124 A 
ATOM     21  F   LIG    1      -39.117  80.655  27.079  0.00  0.00    -0.205 F 
ATOM     22  C   LIG    1      -38.906  78.541  26.050  0.00  0.00    +0.046 A 
ENDBRANCH  11  15
ENDBRANCH   4  10
BRANCH   1  24
ATOM     23  C   LIG    1      -34.117  79.330  27.697  0.00  0.00    +0.193 C 
ATOM     24  N   LIG    1      -33.664  78.276  27.102  0.00  0.00    -0.212 NA
BRANCH  23  26
ATOM     25  C   LIG    1      -34.764  81.048  29.460  0.00  0.00    +0.020 C 
ATOM     26  C   LIG    1      -34.973  79.597  28.982  0.00  0.00    +0.038 C 
ATOM     27  C   LIG    1      -36.476  79.328  28.788  0.00  0.00    +0.020 C 
ATOM     28  C   LIG    1      -34.542  78.696  30.180  0.00  0.00    +0.020 C 
ENDBRANCH  23  26
BRANCH  23  29
ATOM     29  O   LIG    1      -33.808  80.461  27.013  0.00  0.00    -0.495 OA
ATOM     30  H   LIG    1      -34.320  80.636  26.218  0.00  0.00    +0.293 HD
ENDBRANCH  23  29
ENDBRANCH   1  24
TORSDOF 5
ENDMDL
MODEL 6
REMARK VINA RESULT:      -5.8      3.000      4.800
REMARK  Name = pdb/CHEMBL3972009.pdb
REMARK                            x       y       z     vdW  Elec       q    Type
REMARK                         _______ _______ _______ _____ _____    ______ ____
ROOT
ATOM      1  C   LIG    1      -19.361  77.902  31.543  0.00  0.00    +0.131 A 
ATOM      2  C   LIG    1      -19.422  78.384  32.845  0.00  0.00    +0.183 A 
ATOM      3  N   LIG    1      -20.405  79.006  33.603  0.00  0.00    -0.211 NA
ATOM      4  C   LIG    1      -20.122  79.381  34.832  0.00  0.00    +0.126 A 
ATOM      5  C   LIG    1      -18.780  79.065  35.459  0.00  0.00    +0.063 A 
ATOM      6  C   LIG    1      -17.857  78.503  34.681  0.00  0.00    +0.118 A 
ATOM      7  N   LIG    1      -18.140  78.181  33.364  0.00  0.00    -0.220 N 
ATOM      8  N   LIG    1      -17.283  77.672  32.444  0.00  0.00    -0.171 NA
ATOM      9  C   LIG    1      -18.014  77.588  31.330  0.00  0.00    +0.164 A 
ENDROOT
BRANCH   4  10
ATOM     10  N   LIG    1      -21.060  80.088  35.591  0.00  0.00    -0.308 N 
ATOM     11  C   LIG    1      -20.967  81.531  35.876  0.00  0.00    +0.108 C 
ATOM     12  C   LIG    1      -22.371  82.045  35.532  0.00  0.00    +0.029 C 
ATOM     13  C   LIG    1      -23.275  80.911  35.980  0.00  0.00    +0.021 C 
ATOM     14  C   LIG    1      -22.466  79.651  35.657  0.00  0.00    +0.107 C 
BRANCH  11  15
ATOM     15  C   LIG    1      -20.537  81.802  37.311  0.00  0.00    +0.011 A 
ATOM     16  C   LIG    1      -20.214  83.112  37.700  0.00  0.00    +0.129 A 
ATOM     17  F   LIG    1      -20.303  84.109  36.808  0.00  0.00    -0.205 F 
ATOM     18  C   LIG    1      -19.790  83.413  38.996  0.00  0.00    +0.041 A 
ATOM     19  C   LIG    1      -19.688  82.400  39.942  0.00  0.00    +0.041 A 
ATOM     20  C   LIG    1      -20.018  81.101  39.580  0.00  0.00    +0.124 A 
ATOM     21  F   LIG    1      -19.927  80.121  40.488  0.00  0.00    -0.205 F 
ATOM     22  C   LIG    1      -20.436  80.798  38.284  0.00  0.00    +0.046 A 
ENDBRANCH  11  15
ENDBRANCH   4  10
BRANCH   1  24
ATOM     23  C   LIG    1      -21.439  77.260  30.512  0.00  0.00    +0.193 C 
ATOM     24  N   LIG    1      -20.393  78.012  30.610  0.00  0.00    -0.212 NA
BRANCH  23  26
ATOM     25  C   LIG    1      -23.117  75.347  30.473  0.00  0.00    +0.020 C 
ATOM     26  C   LIG    1      -21.971  75.998  31.274  0.00  0.00    +0.038 C 
ATOM     27  C   LIG    1      -20.883  74.948  31.564  0.00  0.00    +0.020 C 
ATOM     28  C   LIG    1      -22.583  76.356  32.663  0.00  0.00    +0.020 C 
ENDBRANCH  23  26
BRANCH  23  29
ATOM     29  O   LIG    1      -22.230  77.637  29.477  0.00  0.00    -0.495 OA
ATOM     30  H   LIG    1      -22.556  78.541  29.491  0.00  0.00    +0.293 HD
ENDBRANCH  23  29
ENDBRANCH   1  24
TORSDOF 5
ENDMDL
MODEL 7
REMARK VINA RESULT:      -5.7     12.413     15.513
REMARK  Name = pdb/CHEMBL3972009.pdb
REMARK                            x       y       z     vdW  Elec       q    Type
REMARK                         _______ _______ _______ _____ _____    ______ ____
ROOT
ATOM      1  C   LIG    1      -38.565  76.377  24.767  0.00  0.00    +0.131 A 
ATOM      2  C   LIG    1      -37.638  76.107  25.765  0.00  0.00    +0.183 A 
ATOM      3  N   LIG    1      -36.542  76.786  26.279  0.00  0.00    -0.211 NA
ATOM      4  C   LIG    1      -35.828  76.220  27.229  0.00  0.00    +0.126 A 
ATOM      5  C   LIG    1      -36.234  74.890  27.829  0.00  0.00    +0.063 A 
ATOM      6  C   LIG    1      -37.269  74.258  27.276  0.00  0.00    +0.118 A 
ATOM      7  N   LIG    1      -37.968  74.828  26.225  0.00  0.00    -0.220 N 
ATOM      8  N   LIG    1      -38.989  74.273  25.526  0.00  0.00    -0.171 NA
ATOM      9  C   LIG    1      -39.283  75.188  24.598  0.00  0.00    +0.164 A 
ENDROOT
BRANCH   4  10
ATOM     10  N   LIG    1      -34.668  76.838  27.707  0.00  0.00    -0.308 N 
ATOM     11  C   LIG    1      -33.303  76.423  27.335  0.00  0.00    +0.108 C 
ATOM     12  C   LIG    1      -32.629  77.748  26.956  0.00  0.00    +0.029 C 
ATOM     13  C   LIG    1      -33.228  78.737  27.939  0.00  0.00    +0.021 C 
ATOM     14  C   LIG    1      -34.673  78.258  28.103  0.00  0.00    +0.107 C 
BRANCH  11  15
ATOM     15  C   LIG    1      -32.610  75.670  28.462  0.00  0.00    +0.011 A 
ATOM     16  C   LIG    1      -32.776  74.279  28.568  0.00  0.00    +0.129 A 
ATOM     17  F   LIG    1      -33.529  73.631  27.667  0.00  0.00    -0.205 F 
ATOM     18  C   LIG    1      -32.185  73.542  29.595  0.00  0.00    +0.041 A 
ATOM     19  C   LIG    1      -31.399  74.186  30.543  0.00  0.00    +0.041 A 
ATOM     20  C   LIG    1      -31.211  75.559  30.446  0.00  0.00    +0.124 A 
ATOM     21  F   LIG    1      -30.451  76.185  31.354  0.00  0.00    -0.205 F 
ATOM     22  C   LIG    1      -31.806  76.297  29.424  0.00  0.00    +0.046 A 
ENDBRANCH  11  15
ENDBRANCH   4  10
BRANCH   1  24
ATOM     23  C   LIG    1      -39.483  78.374  23.786  0.00  0.00    +0.193 C 
ATOM     24  N   LIG    1      -38.539  77.507  23.948  0.00  0.00    -0.212 NA
BRANCH  23  26
ATOM     25  C   LIG    1      -41.883  77.543  23.621  0.00  0.00    +0.020 C 
ATOM     26  C   LIG    1      -40.943  78.538  24.331  0.00  0.00    +0.038 C 
ATOM     27  C   LIG    1      -41.056  78.357  25.855  0.00  0.00    +0.020 C 
ATOM     28  C   LIG    1      -41.532  79.952  24.036  0.00  0.00    +0.020 C 
ENDBRANCH  23  26
BRANCH  23  29
ATOM     29  O   LIG    1      -39.129  79.339  22.900  0.00  0.00    -0.495 OA
ATOM     30  H   LIG    1      -38.318  79.819  23.089  0.00  0.00    +0.293 HD
ENDBRANCH  23  29
ENDBRANCH   1  24
TORSDOF 5
ENDMDL
MODEL 8
REMARK VINA RESULT:      -5.7     16.016     18.224
REMARK  Name = pdb/CHEMBL3972009.pdb
REMARK                            x       y       z     vdW  Elec       q    Type
REMARK                         _______ _______ _______ _____ _____    ______ ____
ROOT
ATOM      1  C   LIG    1      -19.610  72.129  18.467  0.00  0.00    +0.131 A 
ATOM      2  C   LIG    1      -19.079  73.381  18.187  0.00  0.00    +0.183 A 
ATOM      3  N   LIG    1      -19.176  74.258  17.115  0.00  0.00    -0.211 NA
ATOM      4  C   LIG    1      -18.498  75.385  17.148  0.00  0.00    +0.126 A 
ATOM      5  C   LIG    1      -17.692  75.780  18.367  0.00  0.00    +0.063 A 
ATOM      6  C   LIG    1      -17.596  74.891  19.354  0.00  0.00    +0.118 A 
ATOM      7  N   LIG    1      -18.252  73.673  19.277  0.00  0.00    -0.220 N 
ATOM      8  N   LIG    1      -18.189  72.652  20.168  0.00  0.00    -0.171 NA
ATOM      9  C   LIG    1      -18.948  71.698  19.623  0.00  0.00    +0.164 A 
ENDROOT
BRANCH   4  10
ATOM     10  N   LIG    1      -18.505  76.248  16.047  0.00  0.00    -0.308 N 
ATOM     11  C   LIG    1      -18.480  77.718  16.156  0.00  0.00    +0.108 C 
ATOM     12  C   LIG    1      -17.372  78.120  15.173  0.00  0.00    +0.029 C 
ATOM     13  C   LIG    1      -17.532  77.122  14.041  0.00  0.00    +0.021 C 
ATOM     14  C   LIG    1      -17.943  75.829  14.751  0.00  0.00    +0.107 C 
BRANCH  11  15
ATOM     15  C   LIG    1      -19.838  78.334  15.851  0.00  0.00    +0.011 A 
ATOM     16  C   LIG    1      -20.064  79.689  16.147  0.00  0.00    +0.129 A 
ATOM     17  F   LIG    1      -19.077  80.424  16.678  0.00  0.00    -0.205 F 
ATOM     18  C   LIG    1      -21.297  80.299  15.912  0.00  0.00    +0.041 A 
ATOM     19  C   LIG    1      -22.339  79.561  15.362  0.00  0.00    +0.041 A 
ATOM     20  C   LIG    1      -22.130  78.225  15.050  0.00  0.00    +0.124 A 
ATOM     21  F   LIG    1      -23.128  77.509  14.514  0.00  0.00    -0.205 F 
ATOM     22  C   LIG    1      -20.900  77.613  15.289  0.00  0.00    +0.046 A 
ENDBRANCH  11  15
ENDBRANCH   4  10
BRANCH   1  24
ATOM     23  C   LIG    1      -21.681  71.499  17.415  0.00  0.00    +0.193 C 
ATOM     24  N   LIG    1      -20.405  71.392  17.588  0.00  0.00    -0.212 NA
BRANCH  23  26
ATOM     25  C   LIG    1      -24.196  71.796  17.671  0.00  0.00    +0.020 C 
ATOM     26  C   LIG    1      -22.816  72.371  18.053  0.00  0.00    +0.038 C 
ATOM     27  C   LIG    1      -22.713  72.492  19.584  0.00  0.00    +0.020 C 
ATOM     28  C   LIG    1      -22.812  73.836  17.519  0.00  0.00    +0.020 C 
ENDBRANCH  23  26
BRANCH  23  29
ATOM     29  O   LIG    1      -22.136  70.613  16.493  0.00  0.00    -0.495 OA
ATOM     30  H   LIG    1      -23.088  70.489  16.450  0.00  0.00    +0.293 HD
ENDBRANCH  23  29
ENDBRANCH   1  24
TORSDOF 5
ENDMDL
MODEL 9
REMARK VINA RESULT:      -5.7     19.072     22.434
REMARK  Name = pdb/CHEMBL3972009.pdb
REMARK                            x       y       z     vdW  Elec       q    Type
REMARK                         _______ _______ _______ _____ _____    ______ ____
ROOT
ATOM      1  C   LIG    1      -32.067  68.141  16.769  0.00  0.00    +0.131 A 
ATOM      2  C   LIG    1      -33.363  67.640  16.819  0.00  0.00    +0.183 A 
ATOM      3  N   LIG    1      -34.226  67.289  17.847  0.00  0.00    -0.211 NA
ATOM      4  C   LIG    1      -35.410  66.797  17.547  0.00  0.00    +0.126 A 
ATOM      5  C   LIG    1      -35.875  66.695  16.109  0.00  0.00    +0.063 A 
ATOM      6  C   LIG    1      -34.998  67.006  15.157  0.00  0.00    +0.118 A 
ATOM      7  N   LIG    1      -33.726  67.451  15.482  0.00  0.00    -0.220 N 
ATOM      8  N   LIG    1      -32.715  67.736  14.624  0.00  0.00    -0.171 NA
ATOM      9  C   LIG    1      -31.698  68.071  15.421  0.00  0.00    +0.164 A 
ENDROOT
BRANCH   4  10
ATOM     10  N   LIG    1      -36.269  66.351  18.557  0.00  0.00    -0.308 N 
ATOM     11  C   LIG    1      -37.250  67.213  19.240  0.00  0.00    +0.108 C 
ATOM     12  C   LIG    1      -38.539  66.383  19.184  0.00  0.00    +0.029 C 
ATOM     13  C   LIG    1      -38.044  64.959  19.359  0.00  0.00    +0.021 C 
ATOM     14  C   LIG    1      -36.706  64.945  18.615  0.00  0.00    +0.107 C 
BRANCH  11  15
ATOM     15  C   LIG    1      -36.804  67.578  20.648  0.00  0.00    +0.011 A 
ATOM     16  C   LIG    1      -37.506  68.565  21.362  0.00  0.00    +0.129 A 
ATOM     17  F   LIG    1      -38.568  69.158  20.799  0.00  0.00    -0.205 F 
ATOM     18  C   LIG    1      -37.125  68.957  22.646  0.00  0.00    +0.041 A 
ATOM     19  C   LIG    1      -36.028  68.359  23.254  0.00  0.00    +0.041 A 
ATOM     20  C   LIG    1      -35.331  67.372  22.571  0.00  0.00    +0.124 A 
ATOM     21  F   LIG    1      -34.276  66.787  23.153  0.00  0.00    -0.205 F 
ATOM     22  C   LIG    1      -35.706  66.983  21.285  0.00  0.00    +0.046 A 
ENDBRANCH  11  15
ENDBRANCH   4  10
BRANCH   1  24
ATOM     23  C   LIG    1      -30.650  69.461  18.198  0.00  0.00    +0.193 C 
ATOM     24  N   LIG    1      -31.263  68.367  17.887  0.00  0.00    -0.212 NA
BRANCH  23  26
ATOM     25  C   LIG    1      -31.875  71.570  17.469  0.00  0.00    +0.020 C 
ATOM     26  C   LIG    1      -30.500  70.874  17.536  0.00  0.00    +0.038 C 
ATOM     27  C   LIG    1      -29.493  71.788  18.256  0.00  0.00    +0.020 C 
ATOM     28  C   LIG    1      -30.003  70.789  16.060  0.00  0.00    +0.020 C 
ENDBRANCH  23  26
BRANCH  23  29
ATOM     29  O   LIG    1      -29.938  69.326  19.345  0.00  0.00    -0.495 OA
ATOM     30  H   LIG    1      -29.239  69.969  19.495  0.00  0.00    +0.293 HD
ENDBRANCH  23  29
ENDBRANCH   1  24
TORSDOF 5
ENDMDL
