MODEL 1
REMARK VINA RESULT:      -5.6      0.000      0.000
REMARK  Name = pdb/CHEMBL3671425.pdb
REMARK                            x       y       z     vdW  Elec       q    Type
REMARK                         _______ _______ _______ _____ _____    ______ ____
ROOT
ATOM      1  C   LIG    1      -21.549  76.381  29.956  0.00  0.00    +0.197 C 
ATOM      2  O   LIG    1      -21.594  76.492  28.742  0.00  0.00    -0.287 OA
ENDROOT
BRANCH   1  10
ATOM      3  N   LIG    1      -23.879  74.481  32.101  0.00  0.00    -0.323 N 
ATOM      4  C   LIG    1      -24.697  75.512  31.670  0.00  0.00    +0.147 A 
ATOM      5  N   LIG    1      -25.985  75.707  32.000  0.00  0.00    -0.197 NA
ATOM      6  C   LIG    1      -26.509  76.833  31.504  0.00  0.00    +0.214 A 
ATOM      7  N   LIG    1      -25.899  77.704  30.692  0.00  0.00    -0.222 NA
ATOM      8  C   LIG    1      -24.610  77.477  30.358  0.00  0.00    +0.126 A 
ATOM      9  C   LIG    1      -23.954  76.349  30.847  0.00  0.00    +0.048 A 
ATOM     10  C   LIG    1      -22.648  75.789  30.705  0.00  0.00    +0.051 A 
ATOM     11  C   LIG    1      -22.659  74.622  31.458  0.00  0.00    +0.100 A 
BRANCH   3  12
ATOM     12  C   LIG    1      -24.218  73.419  33.088  0.00  0.00    +0.065 C 
ATOM     13  C   LIG    1      -25.316  72.460  32.543  0.00  0.00    +0.036 C 
ATOM     14  C   LIG    1      -23.000  72.519  33.409  0.00  0.00    +0.036 C 
BRANCH  12  15
ATOM     15  C   LIG    1      -24.755  74.055  34.400  0.00  0.00    +0.187 C 
BRANCH  15  17
ATOM     16  C   LIG    1      -23.989  76.124  35.300  0.00  0.00    +0.194 C 
ATOM     17  O   LIG    1      -23.696  74.753  35.075  0.00  0.00    -0.381 OA
ENDBRANCH  15  17
ENDBRANCH  12  15
ENDBRANCH   3  12
BRANCH   6  18
ATOM     18  N   LIG    1      -27.827  77.104  31.817  0.00  0.00    -0.327 N 
ATOM     19  H   LIG    1      -27.926  77.201  32.817  0.00  0.00    +0.145 HD
ATOM     20  H   LIG    1      -28.423  76.434  31.351  0.00  0.00    +0.145 HD
ENDBRANCH   6  18
ENDBRANCH   1  10
BRANCH   1  21
ATOM     21  C   LIG    1      -20.330  76.858  30.652  0.00  0.00    +0.042 A 
ATOM     22  C   LIG    1      -20.463  77.687  31.774  0.00  0.00    +0.038 A 
ATOM     23  C   LIG    1      -19.331  78.207  32.408  0.00  0.00    +0.052 A 
ATOM     24  C   LIG    1      -18.093  77.857  31.874  0.00  0.00    +0.134 A 
ATOM     25  N   LIG    1      -17.928  77.066  30.781  0.00  0.00    -0.261 NA
ATOM     26  C   LIG    1      -19.049  76.599  30.186  0.00  0.00    +0.122 A 
BRANCH  23  27
ATOM     27  N   LIG    1      -19.533  79.048  33.523  0.00  0.00    -0.283 N 
ATOM     28  H   LIG    1      -19.826  80.001  33.323  0.00  0.00    +0.155 HD
ATOM     29  C   LIG    1      -19.428  78.694  34.859  0.00  0.00    +0.239 C 
ATOM     30  O   LIG    1      -19.155  77.572  35.281  0.00  0.00    -0.273 OA
BRANCH  29  31
ATOM     31  C   LIG    1      -19.669  79.841  35.816  0.00  0.00    +0.239 C 
BRANCH  31  32
ATOM     32  N   LIG    1      -21.058  80.246  35.787  0.00  0.00    -0.262 N 
ATOM     33  N   LIG    1      -21.369  81.540  35.577  0.00  0.00    -0.179 NA
ATOM     34  C   LIG    1      -22.705  81.555  35.625  0.00  0.00    +0.146 A 
ATOM     35  C   LIG    1      -23.258  80.279  35.871  0.00  0.00    +0.092 A 
ATOM     36  C   LIG    1      -22.151  79.456  35.988  0.00  0.00    +0.121 A 
BRANCH  35  37
ATOM     37  C   LIG    1      -24.698  79.948  35.967  0.00  0.00    +0.420 C 
ATOM     38  F   LIG    1      -24.936  79.012  36.919  0.00  0.00    -0.166 F 
ATOM     39  F   LIG    1      -25.182  79.452  34.799  0.00  0.00    -0.166 F 
ATOM     40  F   LIG    1      -25.457  81.030  36.279  0.00  0.00    -0.166 F 
ENDBRANCH  35  37
ENDBRANCH  31  32
ENDBRANCH  29  31
ENDBRANCH  23  27
ENDBRANCH   1  21
TORSDOF 10
ENDMDL
MODEL 2
REMARK VINA RESULT:      -5.4      1.392      2.060
REMARK  Name = pdb/CHEMBL3671425.pdb
REMARK                            x       y       z     vdW  Elec       q    Type
REMARK                         _______ _______ _______ _____ _____    ______ ____
ROOT
ATOM      1  C   LIG    1      -21.763  76.362  29.812  0.00  0.00    +0.197 C 
ATOM      2  O   LIG    1      -21.665  76.498  28.604  0.00  0.00    -0.287 OA
ENDROOT
BRANCH   1  10
ATOM      3  N   LIG    1      -24.252  74.197  31.473  0.00  0.00    -0.323 N 
ATOM      4  C   LIG    1      -24.988  75.357  31.295  0.00  0.00    +0.147 A 
ATOM      5  N   LIG    1      -26.262  75.565  31.666  0.00  0.00    -0.197 NA
ATOM      6  C   LIG    1      -26.697  76.810  31.444  0.00  0.00    +0.214 A 
ATOM      7  N   LIG    1      -26.014  77.797  30.851  0.00  0.00    -0.222 NA
ATOM      8  C   LIG    1      -24.741  77.559  30.469  0.00  0.00    +0.126 A 
ATOM      9  C   LIG    1      -24.176  76.304  30.683  0.00  0.00    +0.048 A 
ATOM     10  C   LIG    1      -22.912  75.696  30.410  0.00  0.00    +0.051 A 
ATOM     11  C   LIG    1      -23.017  74.392  30.875  0.00  0.00    +0.100 A 
BRANCH   3  12
ATOM     12  C   LIG    1      -24.680  72.966  32.192  0.00  0.00    +0.065 C 
ATOM     13  C   LIG    1      -23.563  71.882  32.189  0.00  0.00    +0.036 C 
ATOM     14  C   LIG    1      -24.987  73.245  33.684  0.00  0.00    +0.036 C 
BRANCH  12  15
ATOM     15  C   LIG    1      -25.934  72.352  31.510  0.00  0.00    +0.187 C 
BRANCH  15  17
ATOM     16  C   LIG    1      -26.569  70.394  30.309  0.00  0.00    +0.194 C 
ATOM     17  O   LIG    1      -25.538  71.331  30.580  0.00  0.00    -0.381 OA
ENDBRANCH  15  17
ENDBRANCH  12  15
ENDBRANCH   3  12
BRANCH   6  18
ATOM     18  N   LIG    1      -27.995  77.099  31.817  0.00  0.00    -0.327 N 
ATOM     19  H   LIG    1      -28.308  76.430  32.505  0.00  0.00    +0.145 HD
ATOM     20  H   LIG    1      -28.560  77.216  30.987  0.00  0.00    +0.145 HD
ENDBRANCH   6  18
ENDBRANCH   1  10
BRANCH   1  21
ATOM     21  C   LIG    1      -20.667  76.886  30.662  0.00  0.00    +0.042 A 
ATOM     22  C   LIG    1      -20.979  77.713  31.749  0.00  0.00    +0.038 A 
ATOM     23  C   LIG    1      -19.962  78.277  32.524  0.00  0.00    +0.052 A 
ATOM     24  C   LIG    1      -18.651  77.971  32.165  0.00  0.00    +0.134 A 
ATOM     25  N   LIG    1      -18.313  77.183  31.110  0.00  0.00    -0.261 NA
ATOM     26  C   LIG    1      -19.326  76.673  30.374  0.00  0.00    +0.122 A 
BRANCH  23  27
ATOM     27  N   LIG    1      -20.342  79.114  33.596  0.00  0.00    -0.283 N 
ATOM     28  H   LIG    1      -20.819  79.977  33.346  0.00  0.00    +0.155 HD
ATOM     29  C   LIG    1      -20.184  78.855  34.948  0.00  0.00    +0.239 C 
ATOM     30  O   LIG    1      -19.696  77.832  35.426  0.00  0.00    -0.273 OA
BRANCH  29  31
ATOM     31  C   LIG    1      -20.662  79.974  35.845  0.00  0.00    +0.239 C 
BRANCH  31  32
ATOM     32  N   LIG    1      -22.107  80.050  35.842  0.00  0.00    -0.262 N 
ATOM     33  N   LIG    1      -22.710  81.254  35.869  0.00  0.00    -0.179 NA
ATOM     34  C   LIG    1      -24.013  80.953  35.870  0.00  0.00    +0.146 A 
ATOM     35  C   LIG    1      -24.254  79.562  35.848  0.00  0.00    +0.092 A 
ATOM     36  C   LIG    1      -22.986  79.007  35.849  0.00  0.00    +0.121 A 
BRANCH  35  37
ATOM     37  C   LIG    1      -25.578  78.900  35.826  0.00  0.00    +0.420 C 
ATOM     38  F   LIG    1      -26.562  79.729  36.259  0.00  0.00    -0.166 F 
ATOM     39  F   LIG    1      -25.608  77.804  36.626  0.00  0.00    -0.166 F 
ATOM     40  F   LIG    1      -25.929  78.488  34.581  0.00  0.00    -0.166 F 
ENDBRANCH  35  37
ENDBRANCH  31  32
ENDBRANCH  29  31
ENDBRANCH  23  27
ENDBRANCH   1  21
TORSDOF 10
ENDMDL
MODEL 3
REMARK VINA RESULT:      -5.3     15.591     17.893
REMARK  Name = pdb/CHEMBL3671425.pdb
REMARK                            x       y       z     vdW  Elec       q    Type
REMARK                         _______ _______ _______ _____ _____    ______ ____
ROOT
ATOM      1  C   LIG    1      -19.291  76.166  15.020  0.00  0.00    +0.197 C 
ATOM      2  O   LIG    1      -18.947  75.810  13.906  0.00  0.00    -0.287 OA
ENDROOT
BRANCH   1  10
ATOM      3  N   LIG    1      -20.924  73.600  17.116  0.00  0.00    -0.323 N 
ATOM      4  C   LIG    1      -19.757  73.820  17.828  0.00  0.00    +0.147 A 
ATOM      5  N   LIG    1      -19.383  73.211  18.967  0.00  0.00    -0.197 NA
ATOM      6  C   LIG    1      -18.165  73.558  19.394  0.00  0.00    +0.214 A 
ATOM      7  N   LIG    1      -17.354  74.467  18.838  0.00  0.00    -0.222 NA
ATOM      8  C   LIG    1      -17.759  75.079  17.704  0.00  0.00    +0.126 A 
ATOM      9  C   LIG    1      -19.000  74.769  17.152  0.00  0.00    +0.048 A 
ATOM     10  C   LIG    1      -19.747  75.205  16.016  0.00  0.00    +0.051 A 
ATOM     11  C   LIG    1      -20.938  74.493  16.055  0.00  0.00    +0.100 A 
BRANCH   3  12
ATOM     12  C   LIG    1      -21.973  72.584  17.406  0.00  0.00    +0.065 C 
ATOM     13  C   LIG    1      -21.361  71.166  17.593  0.00  0.00    +0.036 C 
ATOM     14  C   LIG    1      -22.725  72.891  18.724  0.00  0.00    +0.036 C 
BRANCH  12  15
ATOM     15  C   LIG    1      -22.989  72.509  16.233  0.00  0.00    +0.187 C 
BRANCH  15  17
ATOM     16  C   LIG    1      -25.358  72.568  15.977  0.00  0.00    +0.194 C 
ATOM     17  O   LIG    1      -24.223  73.139  16.612  0.00  0.00    -0.381 OA
ENDBRANCH  15  17
ENDBRANCH  12  15
ENDBRANCH   3  12
BRANCH   6  18
ATOM     18  N   LIG    1      -17.710  72.957  20.553  0.00  0.00    -0.327 N 
ATOM     19  H   LIG    1      -17.817  71.957  20.482  0.00  0.00    +0.145 HD
ATOM     20  H   LIG    1      -18.128  73.418  21.350  0.00  0.00    +0.145 HD
ENDBRANCH   6  18
ENDBRANCH   1  10
BRANCH   1  21
ATOM     21  C   LIG    1      -19.221  77.612  15.342  0.00  0.00    +0.042 A 
ATOM     22  C   LIG    1      -20.322  78.430  15.058  0.00  0.00    +0.038 A 
ATOM     23  C   LIG    1      -20.257  79.807  15.287  0.00  0.00    +0.052 A 
ATOM     24  C   LIG    1      -19.065  80.305  15.806  0.00  0.00    +0.134 A 
ATOM     25  N   LIG    1      -17.974  79.542  16.082  0.00  0.00    -0.261 NA
ATOM     26  C   LIG    1      -18.071  78.218  15.828  0.00  0.00    +0.122 A 
BRANCH  23  27
ATOM     27  N   LIG    1      -21.395  80.579  14.964  0.00  0.00    -0.283 N 
ATOM     28  H   LIG    1      -21.546  80.769  13.977  0.00  0.00    +0.155 HD
ATOM     29  C   LIG    1      -22.353  81.053  15.846  0.00  0.00    +0.239 C 
ATOM     30  O   LIG    1      -22.365  80.856  17.061  0.00  0.00    -0.273 OA
BRANCH  29  31
ATOM     31  C   LIG    1      -23.431  81.885  15.189  0.00  0.00    +0.239 C 
BRANCH  31  32
ATOM     32  N   LIG    1      -22.917  83.186  14.819  0.00  0.00    -0.262 N 
ATOM     33  N   LIG    1      -22.472  83.393  13.565  0.00  0.00    -0.179 NA
ATOM     34  C   LIG    1      -22.069  84.669  13.580  0.00  0.00    +0.146 A 
ATOM     35  C   LIG    1      -22.248  85.284  14.839  0.00  0.00    +0.092 A 
ATOM     36  C   LIG    1      -22.785  84.279  15.624  0.00  0.00    +0.121 A 
BRANCH  35  37
ATOM     37  C   LIG    1      -21.922  86.686  15.186  0.00  0.00    +0.420 C 
ATOM     38  F   LIG    1      -22.793  87.558  14.619  0.00  0.00    -0.166 F 
ATOM     39  F   LIG    1      -20.682  87.037  14.759  0.00  0.00    -0.166 F 
ATOM     40  F   LIG    1      -21.956  86.908  16.524  0.00  0.00    -0.166 F 
ENDBRANCH  35  37
ENDBRANCH  31  32
ENDBRANCH  29  31
ENDBRANCH  23  27
ENDBRANCH   1  21
TORSDOF 10
ENDMDL
MODEL 4
REMARK VINA RESULT:      -5.2     12.482     16.234
REMARK  Name = pdb/CHEMBL3671425.pdb
REMARK                            x       y       z     vdW  Elec       q    Type
REMARK                         _______ _______ _______ _____ _____    ______ ____
ROOT
ATOM      1  C   LIG    1      -39.107  72.312  24.518  0.00  0.00    +0.197 C 
ATOM      2  O   LIG    1      -40.139  71.833  24.078  0.00  0.00    -0.287 OA
ENDROOT
BRANCH   1  10
ATOM      3  N   LIG    1      -36.503  70.417  26.326  0.00  0.00    -0.323 N 
ATOM      4  C   LIG    1      -36.445  69.821  25.078  0.00  0.00    +0.147 A 
ATOM      5  N   LIG    1      -35.635  68.816  24.705  0.00  0.00    -0.197 NA
ATOM      6  C   LIG    1      -35.850  68.378  23.459  0.00  0.00    +0.214 A 
ATOM      7  N   LIG    1      -36.722  68.882  22.578  0.00  0.00    -0.222 NA
ATOM      8  C   LIG    1      -37.512  69.905  22.970  0.00  0.00    +0.126 A 
ATOM      9  C   LIG    1      -37.395  70.419  24.259  0.00  0.00    +0.048 A 
ATOM     10  C   LIG    1      -38.023  71.467  25.000  0.00  0.00    +0.051 A 
ATOM     11  C   LIG    1      -37.416  71.457  26.249  0.00  0.00    +0.100 A 
BRANCH   3  12
ATOM     12  C   LIG    1      -35.749  70.018  27.546  0.00  0.00    +0.065 C 
ATOM     13  C   LIG    1      -36.169  70.865  28.782  0.00  0.00    +0.036 C 
ATOM     14  C   LIG    1      -36.024  68.545  27.938  0.00  0.00    +0.036 C 
BRANCH  12  15
ATOM     15  C   LIG    1      -34.224  70.222  27.329  0.00  0.00    +0.187 C 
BRANCH  15  17
ATOM     16  C   LIG    1      -32.457  69.555  28.782  0.00  0.00    +0.194 C 
ATOM     17  O   LIG    1      -33.570  70.416  28.593  0.00  0.00    -0.381 OA
ENDBRANCH  15  17
ENDBRANCH  12  15
ENDBRANCH   3  12
BRANCH   6  18
ATOM     18  N   LIG    1      -35.063  67.333  23.015  0.00  0.00    -0.327 N 
ATOM     19  H   LIG    1      -34.112  67.650  22.899  0.00  0.00    +0.145 HD
ATOM     20  H   LIG    1      -35.510  66.896  22.220  0.00  0.00    +0.145 HD
ENDBRANCH   6  18
ENDBRANCH   1  10
BRANCH   1  21
ATOM     21  C   LIG    1      -38.979  73.790  24.538  0.00  0.00    +0.042 A 
ATOM     22  C   LIG    1      -37.858  74.371  25.143  0.00  0.00    +0.038 A 
ATOM     23  C   LIG    1      -37.746  75.761  25.237  0.00  0.00    +0.052 A 
ATOM     24  C   LIG    1      -38.787  76.515  24.702  0.00  0.00    +0.134 A 
ATOM     25  N   LIG    1      -39.895  75.984  24.120  0.00  0.00    -0.261 NA
ATOM     26  C   LIG    1      -39.973  74.635  24.066  0.00  0.00    +0.122 A 
BRANCH  23  27
ATOM     27  N   LIG    1      -36.599  76.284  25.873  0.00  0.00    -0.283 N 
ATOM     28  H   LIG    1      -35.774  76.402  25.290  0.00  0.00    +0.155 HD
ATOM     29  C   LIG    1      -36.499  76.704  27.190  0.00  0.00    +0.239 C 
ATOM     30  O   LIG    1      -37.414  76.700  28.011  0.00  0.00    -0.273 OA
BRANCH  29  31
ATOM     31  C   LIG    1      -35.117  77.179  27.577  0.00  0.00    +0.239 C 
BRANCH  31  32
ATOM     32  N   LIG    1      -34.307  76.072  28.036  0.00  0.00    -0.262 N 
ATOM     33  N   LIG    1      -34.641  74.814  27.689  0.00  0.00    -0.179 NA
ATOM     34  C   LIG    1      -33.707  74.064  28.282  0.00  0.00    +0.146 A 
ATOM     35  C   LIG    1      -32.775  74.830  29.016  0.00  0.00    +0.092 A 
ATOM     36  C   LIG    1      -33.211  76.132  28.845  0.00  0.00    +0.121 A 
BRANCH  35  37
ATOM     37  C   LIG    1      -31.612  74.311  29.772  0.00  0.00    +0.420 C 
ATOM     38  F   LIG    1      -30.636  75.246  29.895  0.00  0.00    -0.166 F 
ATOM     39  F   LIG    1      -31.052  73.236  29.162  0.00  0.00    -0.166 F 
ATOM     40  F   LIG    1      -31.945  73.922  31.029  0.00  0.00    -0.166 F 
ENDBRANCH  35  37
ENDBRANCH  31  32
ENDBRANCH  29  31
ENDBRANCH  23  27
ENDBRANCH   1  21
TORSDOF 10
ENDMDL
MODEL 5
REMARK VINA RESULT:      -5.2     15.899     19.378
REMARK  Name = pdb/CHEMBL3671425.pdb
REMARK                            x       y       z     vdW  Elec       q    Type
REMARK                         _______ _______ _______ _____ _____    ______ ____
ROOT
ATOM      1  C   LIG    1      -41.822  73.608  24.074  0.00  0.00    +0.197 C 
ATOM      2  O   LIG    1      -42.789  73.717  24.810  0.00  0.00    -0.287 OA
ENDROOT
BRANCH   1  10
ATOM      3  N   LIG    1      -41.083  70.444  22.320  0.00  0.00    -0.323 N 
ATOM      4  C   LIG    1      -42.003  71.016  21.457  0.00  0.00    +0.147 A 
ATOM      5  N   LIG    1      -42.463  70.490  20.310  0.00  0.00    -0.197 NA
ATOM      6  C   LIG    1      -43.411  71.224  19.716  0.00  0.00    +0.214 A 
ATOM      7  N   LIG    1      -43.867  72.414  20.124  0.00  0.00    -0.222 NA
ATOM      8  C   LIG    1      -43.376  72.932  21.271  0.00  0.00    +0.126 A 
ATOM      9  C   LIG    1      -42.407  72.235  21.989  0.00  0.00    +0.048 A 
ATOM     10  C   LIG    1      -41.667  72.463  23.190  0.00  0.00    +0.051 A 
ATOM     11  C   LIG    1      -40.838  71.358  23.333  0.00  0.00    +0.100 A 
BRANCH   3  12
ATOM     12  C   LIG    1      -40.474  69.090  22.212  0.00  0.00    +0.065 C 
ATOM     13  C   LIG    1      -41.556  67.972  22.226  0.00  0.00    +0.036 C 
ATOM     14  C   LIG    1      -39.704  68.908  20.880  0.00  0.00    +0.036 C 
BRANCH  12  15
ATOM     15  C   LIG    1      -39.514  68.833  23.406  0.00  0.00    +0.187 C 
BRANCH  15  17
ATOM     16  C   LIG    1      -37.434  69.906  23.855  0.00  0.00    +0.194 C 
ATOM     17  O   LIG    1      -38.153  69.035  22.993  0.00  0.00    -0.381 OA
ENDBRANCH  15  17
ENDBRANCH  12  15
ENDBRANCH   3  12
BRANCH   6  18
ATOM     18  N   LIG    1      -43.941  70.734  18.538  0.00  0.00    -0.327 N 
ATOM     19  H   LIG    1      -43.486  69.866  18.296  0.00  0.00    +0.145 HD
ATOM     20  H   LIG    1      -43.944  71.470  17.845  0.00  0.00    +0.145 HD
ENDBRANCH   6  18
ENDBRANCH   1  10
BRANCH   1  21
ATOM     21  C   LIG    1      -40.806  74.689  24.097  0.00  0.00    +0.042 A 
ATOM     22  C   LIG    1      -39.633  74.509  24.840  0.00  0.00    +0.038 A 
ATOM     23  C   LIG    1      -38.691  75.538  24.934  0.00  0.00    +0.052 A 
ATOM     24  C   LIG    1      -38.979  76.721  24.258  0.00  0.00    +0.134 A 
ATOM     25  N   LIG    1      -40.113  76.933  23.539  0.00  0.00    -0.261 NA
ATOM     26  C   LIG    1      -41.007  75.920  23.489  0.00  0.00    +0.122 A 
BRANCH  23  27
ATOM     27  N   LIG    1      -37.537  75.300  25.712  0.00  0.00    -0.283 N 
ATOM     28  H   LIG    1      -36.647  75.335  25.221  0.00  0.00    +0.155 HD
ATOM     29  C   LIG    1      -37.489  75.079  27.079  0.00  0.00    +0.239 C 
ATOM     30  O   LIG    1      -38.459  75.075  27.836  0.00  0.00    -0.273 OA
BRANCH  29  31
ATOM     31  C   LIG    1      -36.096  74.816  27.608  0.00  0.00    +0.239 C 
BRANCH  31  32
ATOM     32  N   LIG    1      -35.311  76.031  27.605  0.00  0.00    -0.262 N 
ATOM     33  N   LIG    1      -35.899  77.204  27.910  0.00  0.00    -0.179 NA
ATOM     34  C   LIG    1      -34.907  78.093  27.799  0.00  0.00    +0.146 A 
ATOM     35  C   LIG    1      -33.682  77.501  27.419  0.00  0.00    +0.092 A 
ATOM     36  C   LIG    1      -33.992  76.159  27.284  0.00  0.00    +0.121 A 
BRANCH  35  37
ATOM     37  C   LIG    1      -32.391  78.199  27.226  0.00  0.00    +0.420 C 
ATOM     38  F   LIG    1      -32.569  79.514  26.939  0.00  0.00    -0.166 F 
ATOM     39  F   LIG    1      -31.677  77.667  26.202  0.00  0.00    -0.166 F 
ATOM     40  F   LIG    1      -31.602  78.141  28.329  0.00  0.00    -0.166 F 
ENDBRANCH  35  37
ENDBRANCH  31  32
ENDBRANCH  29  31
ENDBRANCH  23  27
ENDBRANCH   1  21
TORSDOF 10
ENDMDL
MODEL 6
REMARK VINA RESULT:      -5.2      4.506      8.820
REMARK  Name = pdb/CHEMBL3671425.pdb
REMARK                            x       y       z     vdW  Elec       q    Type
REMARK                         _______ _______ _______ _____ _____    ______ ____
ROOT
ATOM      1  C   LIG    1      -25.357  77.444  31.221  0.00  0.00    +0.197 C 
ATOM      2  O   LIG    1      -25.823  78.262  30.446  0.00  0.00    -0.287 OA
ENDROOT
BRANCH   1  10
ATOM      3  N   LIG    1      -22.279  77.915  33.208  0.00  0.00    -0.323 N 
ATOM      4  C   LIG    1      -21.749  77.545  31.983  0.00  0.00    +0.147 A 
ATOM      5  N   LIG    1      -20.448  77.405  31.679  0.00  0.00    -0.197 NA
ATOM      6  C   LIG    1      -20.223  76.957  30.440  0.00  0.00    +0.214 A 
ATOM      7  N   LIG    1      -21.148  76.709  29.503  0.00  0.00    -0.222 NA
ATOM      8  C   LIG    1      -22.449  76.875  29.825  0.00  0.00    +0.126 A 
ATOM      9  C   LIG    1      -22.798  77.308  31.102  0.00  0.00    +0.048 A 
ATOM     10  C   LIG    1      -24.021  77.603  31.779  0.00  0.00    +0.051 A 
ATOM     11  C   LIG    1      -23.654  78.010  33.055  0.00  0.00    +0.100 A 
BRANCH   3  12
ATOM     12  C   LIG    1      -21.532  78.149  34.473  0.00  0.00    +0.065 C 
ATOM     13  C   LIG    1      -22.459  78.709  35.591  0.00  0.00    +0.036 C 
ATOM     14  C   LIG    1      -20.936  76.838  35.043  0.00  0.00    +0.036 C 
BRANCH  12  15
ATOM     15  C   LIG    1      -20.393  79.181  34.244  0.00  0.00    +0.187 C 
BRANCH  15  17
ATOM     16  C   LIG    1      -18.871  79.556  36.038  0.00  0.00    +0.194 C 
ATOM     17  O   LIG    1      -20.124  79.894  35.461  0.00  0.00    -0.381 OA
ENDBRANCH  15  17
ENDBRANCH  12  15
ENDBRANCH   3  12
BRANCH   6  18
ATOM     18  N   LIG    1      -18.906  76.774  30.065  0.00  0.00    -0.327 N 
ATOM     19  H   LIG    1      -18.866  76.442  29.113  0.00  0.00    +0.145 HD
ATOM     20  H   LIG    1      -18.434  76.227  30.772  0.00  0.00    +0.145 HD
ENDBRANCH   6  18
ENDBRANCH   1  10
BRANCH   1  21
ATOM     21  C   LIG    1      -26.199  76.281  31.594  0.00  0.00    +0.042 A 
ATOM     22  C   LIG    1      -25.640  74.997  31.567  0.00  0.00    +0.038 A 
ATOM     23  C   LIG    1      -26.429  73.877  31.847  0.00  0.00    +0.052 A 
ATOM     24  C   LIG    1      -27.769  74.108  32.149  0.00  0.00    +0.134 A 
ATOM     25  N   LIG    1      -28.346  75.340  32.172  0.00  0.00    -0.261 NA
ATOM     26  C   LIG    1      -27.553  76.394  31.877  0.00  0.00    +0.122 A 
BRANCH  23  27
ATOM     27  N   LIG    1      -25.811  72.609  31.787  0.00  0.00    -0.283 N 
ATOM     28  H   LIG    1      -25.506  72.298  30.869  0.00  0.00    +0.155 HD
ATOM     29  C   LIG    1      -25.527  71.774  32.857  0.00  0.00    +0.239 C 
ATOM     30  O   LIG    1      -25.760  72.023  34.038  0.00  0.00    -0.273 OA
BRANCH  29  31
ATOM     31  C   LIG    1      -24.893  70.461  32.455  0.00  0.00    +0.239 C 
BRANCH  31  32
ATOM     32  N   LIG    1      -25.125  70.190  31.053  0.00  0.00    -0.262 N 
ATOM     33  N   LIG    1      -26.380  69.975  30.616  0.00  0.00    -0.179 NA
ATOM     34  C   LIG    1      -26.225  69.751  29.307  0.00  0.00    +0.146 A 
ATOM     35  C   LIG    1      -24.875  69.814  28.898  0.00  0.00    +0.092 A 
ATOM     36  C   LIG    1      -24.187  70.084  30.068  0.00  0.00    +0.121 A 
BRANCH  35  37
ATOM     37  C   LIG    1      -24.364  69.630  27.520  0.00  0.00    +0.420 C 
ATOM     38  F   LIG    1      -25.351  69.763  26.598  0.00  0.00    -0.166 F 
ATOM     39  F   LIG    1      -23.824  68.398  27.342  0.00  0.00    -0.166 F 
ATOM     40  F   LIG    1      -23.402  70.532  27.201  0.00  0.00    -0.166 F 
ENDBRANCH  35  37
ENDBRANCH  31  32
ENDBRANCH  29  31
ENDBRANCH  23  27
ENDBRANCH   1  21
TORSDOF 10
ENDMDL
MODEL 7
REMARK VINA RESULT:      -5.2      4.563      8.847
REMARK  Name = pdb/CHEMBL3671425.pdb
REMARK                            x       y       z     vdW  Elec       q    Type
REMARK                         _______ _______ _______ _____ _____    ______ ____
ROOT
ATOM      1  C   LIG    1      -25.568  77.395  31.397  0.00  0.00    +0.197 C 
ATOM      2  O   LIG    1      -26.000  78.116  30.513  0.00  0.00    -0.287 OA
ENDROOT
BRANCH   1  10
ATOM      3  N   LIG    1      -21.919  77.368  31.961  0.00  0.00    -0.323 N 
ATOM      4  C   LIG    1      -22.349  78.113  33.046  0.00  0.00    +0.147 A 
ATOM      5  N   LIG    1      -21.578  78.658  34.002  0.00  0.00    -0.197 NA
ATOM      6  C   LIG    1      -22.252  79.398  34.889  0.00  0.00    +0.214 A 
ATOM      7  N   LIG    1      -23.578  79.577  34.931  0.00  0.00    -0.222 NA
ATOM      8  C   LIG    1      -24.335  79.003  33.970  0.00  0.00    +0.126 A 
ATOM      9  C   LIG    1      -23.731  78.236  32.976  0.00  0.00    +0.048 A 
ATOM     10  C   LIG    1      -24.187  77.489  31.847  0.00  0.00    +0.051 A 
ATOM     11  C   LIG    1      -23.047  76.940  31.277  0.00  0.00    +0.100 A 
BRANCH   3  12
ATOM     12  C   LIG    1      -20.511  77.085  31.569  0.00  0.00    +0.065 C 
ATOM     13  C   LIG    1      -20.418  76.549  30.111  0.00  0.00    +0.036 C 
ATOM     14  C   LIG    1      -19.636  78.362  31.599  0.00  0.00    +0.036 C 
BRANCH  12  15
ATOM     15  C   LIG    1      -19.895  76.011  32.507  0.00  0.00    +0.187 C 
BRANCH  15  17
ATOM     16  C   LIG    1      -19.986  73.632  32.408  0.00  0.00    +0.194 C 
ATOM     17  O   LIG    1      -20.725  74.839  32.522  0.00  0.00    -0.381 OA
ENDBRANCH  15  17
ENDBRANCH  12  15
ENDBRANCH   3  12
BRANCH   6  18
ATOM     18  N   LIG    1      -21.519  80.002  35.892  0.00  0.00    -0.327 N 
ATOM     19  H   LIG    1      -21.244  80.929  35.601  0.00  0.00    +0.145 HD
ATOM     20  H   LIG    1      -20.789  79.372  36.194  0.00  0.00    +0.145 HD
ENDBRANCH   6  18
ENDBRANCH   1  10
BRANCH   1  21
ATOM     21  C   LIG    1      -26.500  76.419  32.015  0.00  0.00    +0.042 A 
ATOM     22  C   LIG    1      -26.236  75.049  31.891  0.00  0.00    +0.038 A 
ATOM     23  C   LIG    1      -27.133  74.108  32.404  0.00  0.00    +0.052 A 
ATOM     24  C   LIG    1      -28.274  74.600  33.034  0.00  0.00    +0.134 A 
ATOM     25  N   LIG    1      -28.566  75.922  33.161  0.00  0.00    -0.261 NA
ATOM     26  C   LIG    1      -27.682  76.799  32.634  0.00  0.00    +0.122 A 
BRANCH  23  27
ATOM     27  N   LIG    1      -26.818  72.742  32.232  0.00  0.00    -0.283 N 
ATOM     28  H   LIG    1      -25.992  72.405  32.720  0.00  0.00    +0.155 HD
ATOM     29  C   LIG    1      -27.547  71.806  31.516  0.00  0.00    +0.239 C 
ATOM     30  O   LIG    1      -28.605  72.024  30.927  0.00  0.00    -0.273 OA
BRANCH  29  31
ATOM     31  C   LIG    1      -26.919  70.431  31.491  0.00  0.00    +0.239 C 
BRANCH  31  32
ATOM     32  N   LIG    1      -25.729  70.428  30.668  0.00  0.00    -0.262 N 
ATOM     33  N   LIG    1      -24.543  70.757  31.214  0.00  0.00    -0.179 NA
ATOM     34  C   LIG    1      -23.688  70.663  30.190  0.00  0.00    +0.146 A 
ATOM     35  C   LIG    1      -24.317  70.280  28.986  0.00  0.00    +0.092 A 
ATOM     36  C   LIG    1      -25.650  70.154  29.335  0.00  0.00    +0.121 A 
BRANCH  35  37
ATOM     37  C   LIG    1      -23.656  70.070  27.677  0.00  0.00    +0.420 C 
ATOM     38  F   LIG    1      -24.263  69.091  26.960  0.00  0.00    -0.166 F 
ATOM     39  F   LIG    1      -22.357  69.704  27.820  0.00  0.00    -0.166 F 
ATOM     40  F   LIG    1      -23.669  71.188  26.907  0.00  0.00    -0.166 F 
ENDBRANCH  35  37
ENDBRANCH  31  32
ENDBRANCH  29  31
ENDBRANCH  23  27
ENDBRANCH   1  21
TORSDOF 10
ENDMDL
MODEL 8
REMARK VINA RESULT:      -5.1     13.700     17.355
REMARK  Name = pdb/CHEMBL3671425.pdb
REMARK                            x       y       z     vdW  Elec       q    Type
REMARK                         _______ _______ _______ _____ _____    ______ ____
ROOT
ATOM      1  C   LIG    1      -39.685  72.883  25.332  0.00  0.00    +0.197 C 
ATOM      2  O   LIG    1      -40.646  72.787  26.077  0.00  0.00    -0.287 OA
ENDROOT
BRANCH   1  10
ATOM      3  N   LIG    1      -38.526  69.943  23.421  0.00  0.00    -0.323 N 
ATOM      4  C   LIG    1      -37.498  70.084  24.338  0.00  0.00    +0.147 A 
ATOM      5  N   LIG    1      -36.397  69.320  24.435  0.00  0.00    -0.197 NA
ATOM      6  C   LIG    1      -35.527  69.734  25.362  0.00  0.00    +0.214 A 
ATOM      7  N   LIG    1      -35.690  70.762  26.203  0.00  0.00    -0.222 NA
ATOM      8  C   LIG    1      -36.814  71.505  26.100  0.00  0.00    +0.126 A 
ATOM      9  C   LIG    1      -37.774  71.182  25.144  0.00  0.00    +0.048 A 
ATOM     10  C   LIG    1      -39.047  71.705  24.761  0.00  0.00    +0.051 A 
ATOM     11  C   LIG    1      -39.491  70.889  23.728  0.00  0.00    +0.100 A 
BRANCH   3  12
ATOM     12  C   LIG    1      -38.593  68.975  22.292  0.00  0.00    +0.065 C 
ATOM     13  C   LIG    1      -37.307  69.024  21.417  0.00  0.00    +0.036 C 
ATOM     14  C   LIG    1      -38.703  67.513  22.791  0.00  0.00    +0.036 C 
BRANCH  12  15
ATOM     15  C   LIG    1      -39.802  69.303  21.372  0.00  0.00    +0.187 C 
BRANCH  15  17
ATOM     16  C   LIG    1      -42.102  68.678  21.405  0.00  0.00    +0.194 C 
ATOM     17  O   LIG    1      -40.755  68.228  21.413  0.00  0.00    -0.381 OA
ENDBRANCH  15  17
ENDBRANCH  12  15
ENDBRANCH   3  12
BRANCH   6  18
ATOM     18  N   LIG    1      -34.364  69.002  25.505  0.00  0.00    -0.327 N 
ATOM     19  H   LIG    1      -34.022  68.727  24.597  0.00  0.00    +0.145 HD
ATOM     20  H   LIG    1      -34.513  68.273  26.190  0.00  0.00    +0.145 HD
ENDBRANCH   6  18
ENDBRANCH   1  10
BRANCH   1  21
ATOM     21  C   LIG    1      -39.187  74.243  25.010  0.00  0.00    +0.042 A 
ATOM     22  C   LIG    1      -37.973  74.674  25.561  0.00  0.00    +0.038 A 
ATOM     23  C   LIG    1      -37.515  75.974  25.330  0.00  0.00    +0.052 A 
ATOM     24  C   LIG    1      -38.314  76.794  24.536  0.00  0.00    +0.134 A 
ATOM     25  N   LIG    1      -39.502  76.411  23.997  0.00  0.00    -0.261 NA
ATOM     26  C   LIG    1      -39.919  75.152  24.260  0.00  0.00    +0.122 A 
BRANCH  23  27
ATOM     27  N   LIG    1      -36.292  76.353  25.926  0.00  0.00    -0.283 N 
ATOM     28  H   LIG    1      -35.476  76.357  25.319  0.00  0.00    +0.155 HD
ATOM     29  C   LIG    1      -36.101  76.772  27.233  0.00  0.00    +0.239 C 
ATOM     30  O   LIG    1      -36.985  76.894  28.079  0.00  0.00    -0.273 OA
BRANCH  29  31
ATOM     31  C   LIG    1      -34.659  77.069  27.575  0.00  0.00    +0.239 C 
BRANCH  31  32
ATOM     32  N   LIG    1      -34.001  75.886  28.087  0.00  0.00    -0.262 N 
ATOM     33  N   LIG    1      -34.508  74.670  27.808  0.00  0.00    -0.179 NA
ATOM     34  C   LIG    1      -33.677  73.831  28.435  0.00  0.00    +0.146 A 
ATOM     35  C   LIG    1      -32.639  74.499  29.121  0.00  0.00    +0.092 A 
ATOM     36  C   LIG    1      -32.896  75.838  28.885  0.00  0.00    +0.121 A 
BRANCH  35  37
ATOM     37  C   LIG    1      -31.548  73.865  29.896  0.00  0.00    +0.420 C 
ATOM     38  F   LIG    1      -32.019  73.231  30.999  0.00  0.00    -0.166 F 
ATOM     39  F   LIG    1      -30.639  74.777  30.326  0.00  0.00    -0.166 F 
ATOM     40  F   LIG    1      -30.868  72.942  29.171  0.00  0.00    -0.166 F 
ENDBRANCH  35  37
ENDBRANCH  31  32
ENDBRANCH  29  31
ENDBRANCH  23  27
ENDBRANCH   1  21
TORSDOF 10
ENDMDL
MODEL 9
REMARK VINA RESULT:      -5.1     12.366     16.820
REMARK  Name = pdb/CHEMBL3671425.pdb
REMARK                            x       y       z     vdW  Elec       q    Type
REMARK                         _______ _______ _______ _____ _____    ______ ____
ROOT
ATOM      1  C   LIG    1      -36.733  80.070  30.555  0.00  0.00    +0.197 C 
ATOM      2  O   LIG    1      -36.438  80.914  31.384  0.00  0.00    -0.287 OA
ENDROOT
BRANCH   1  10
ATOM      3  N   LIG    1      -34.532  77.228  29.705  0.00  0.00    -0.323 N 
ATOM      4  C   LIG    1      -34.148  78.155  28.751  0.00  0.00    +0.147 A 
ATOM      5  N   LIG    1      -33.220  77.985  27.794  0.00  0.00    -0.197 NA
ATOM      6  C   LIG    1      -33.109  79.019  26.954  0.00  0.00    +0.214 A 
ATOM      7  N   LIG    1      -33.774  80.179  27.027  0.00  0.00    -0.222 NA
ATOM      8  C   LIG    1      -34.688  80.334  28.009  0.00  0.00    +0.126 A 
ATOM      9  C   LIG    1      -34.908  79.305  28.922  0.00  0.00    +0.048 A 
ATOM     10  C   LIG    1      -35.750  79.116  30.061  0.00  0.00    +0.051 A 
ATOM     11  C   LIG    1      -35.456  77.844  30.535  0.00  0.00    +0.100 A 
BRANCH   3  12
ATOM     12  C   LIG    1      -34.069  75.819  29.824  0.00  0.00    +0.065 C 
ATOM     13  C   LIG    1      -32.525  75.736  30.004  0.00  0.00    +0.036 C 
ATOM     14  C   LIG    1      -34.672  75.115  31.065  0.00  0.00    +0.036 C 
BRANCH  12  15
ATOM     15  C   LIG    1      -34.438  75.020  28.544  0.00  0.00    +0.187 C 
BRANCH  15  17
ATOM     16  C   LIG    1      -34.041  72.709  28.118  0.00  0.00    +0.194 C 
ATOM     17  O   LIG    1      -33.463  73.992  28.308  0.00  0.00    -0.381 OA
ENDBRANCH  15  17
ENDBRANCH  12  15
ENDBRANCH   3  12
BRANCH   6  18
ATOM     18  N   LIG    1      -32.183  78.906  25.935  0.00  0.00    -0.327 N 
ATOM     19  H   LIG    1      -31.844  77.957  25.888  0.00  0.00    +0.145 HD
ATOM     20  H   LIG    1      -31.498  79.644  26.027  0.00  0.00    +0.145 HD
ENDBRANCH   6  18
ENDBRANCH   1  10
BRANCH   1  21
ATOM     21  C   LIG    1      -38.134  80.032  30.069  0.00  0.00    +0.042 A 
ATOM     22  C   LIG    1      -38.403  79.504  28.800  0.00  0.00    +0.038 A 
ATOM     23  C   LIG    1      -39.705  79.519  28.290  0.00  0.00    +0.052 A 
ATOM     24  C   LIG    1      -40.694  80.072  29.100  0.00  0.00    +0.134 A 
ATOM     25  N   LIG    1      -40.465  80.603  30.331  0.00  0.00    -0.261 NA
ATOM     26  C   LIG    1      -39.190  80.586  30.779  0.00  0.00    +0.122 A 
BRANCH  23  27
ATOM     27  N   LIG    1      -39.908  78.986  26.998  0.00  0.00    -0.283 N 
ATOM     28  H   LIG    1      -40.349  78.072  26.951  0.00  0.00    +0.155 HD
ATOM     29  C   LIG    1      -39.620  79.605  25.792  0.00  0.00    +0.239 C 
ATOM     30  O   LIG    1      -39.152  80.735  25.663  0.00  0.00    -0.273 OA
BRANCH  29  31
ATOM     31  C   LIG    1      -39.919  78.750  24.580  0.00  0.00    +0.239 C 
BRANCH  31  32
ATOM     32  N   LIG    1      -39.288  77.453  24.702  0.00  0.00    -0.262 N 
ATOM     33  N   LIG    1      -37.973  77.377  24.984  0.00  0.00    -0.179 NA
ATOM     34  C   LIG    1      -37.732  76.062  25.009  0.00  0.00    +0.146 A 
ATOM     35  C   LIG    1      -38.883  75.289  24.741  0.00  0.00    +0.092 A 
ATOM     36  C   LIG    1      -39.873  76.234  24.528  0.00  0.00    +0.121 A 
BRANCH  35  37
ATOM     37  C   LIG    1      -38.962  73.811  24.710  0.00  0.00    +0.420 C 
ATOM     38  F   LIG    1      -37.732  73.245  24.615  0.00  0.00    -0.166 F 
ATOM     39  F   LIG    1      -39.682  73.366  23.649  0.00  0.00    -0.166 F 
ATOM     40  F   LIG    1      -39.545  73.302  25.825  0.00  0.00    -0.166 F 
ENDBRANCH  35  37
ENDBRANCH  31  32
ENDBRANCH  29  31
ENDBRANCH  23  27
ENDBRANCH   1  21
TORSDOF 10
ENDMDL
