MODEL 1
REMARK VINA RESULT:      -6.4      0.000      0.000
REMARK  Name = pdb/CHEMBL2152285.pdb
REMARK                            x       y       z     vdW  Elec       q    Type
REMARK                         _______ _______ _______ _____ _____    ______ ____
ROOT
ATOM      1  C   LIG    1      -18.161  79.393  36.882  0.00  0.00    +0.027 A 
ATOM      2  C   LIG    1      -18.226  78.847  35.590  0.00  0.00    +0.031 A 
ATOM      3  C   LIG    1      -19.316  79.077  34.730  0.00  0.00    -0.013 A 
ATOM      4  C   LIG    1      -20.335  79.908  35.215  0.00  0.00    +0.033 A 
ATOM      5  C   LIG    1      -20.259  80.506  36.478  0.00  0.00    +0.050 A 
ATOM      6  C   LIG    1      -19.153  80.286  37.292  0.00  0.00    +0.047 A 
ENDROOT
BRANCH   3   7
ATOM      7  C   LIG    1      -19.390  78.487  33.372  0.00  0.00    +0.001 A 
ATOM      8  C   LIG    1      -20.619  78.118  32.791  0.00  0.00    +0.022 A 
ATOM      9  C   LIG    1      -20.649  77.555  31.497  0.00  0.00    +0.027 A 
ATOM     10  C   LIG    1      -21.651  77.055  30.596  0.00  0.00    +0.009 A 
ATOM     11  C   LIG    1      -20.976  76.617  29.466  0.00  0.00    +0.093 A 
ATOM     12  N   LIG    1      -19.634  76.820  29.653  0.00  0.00    -0.345 N 
ATOM     13  H   LIG    1      -18.894  76.594  29.005  0.00  0.00    +0.167 HD
ATOM     14  C   LIG    1      -19.419  77.385  30.875  0.00  0.00    +0.139 A 
ATOM     15  N   LIG    1      -18.204  77.701  31.351  0.00  0.00    -0.237 NA
ATOM     16  C   LIG    1      -18.251  78.249  32.593  0.00  0.00    +0.121 A 
BRANCH  10  17
ATOM     17  C   LIG    1      -23.105  76.970  30.729  0.00  0.00    -0.013 A 
ATOM     18  C   LIG    1      -23.723  75.792  31.153  0.00  0.00    +0.028 A 
ATOM     19  C   LIG    1      -25.106  75.760  31.249  0.00  0.00    +0.111 A 
ATOM     20  N   LIG    1      -25.905  76.810  30.970  0.00  0.00    -0.263 NA
ATOM     21  C   LIG    1      -25.291  77.945  30.576  0.00  0.00    +0.111 A 
ATOM     22  C   LIG    1      -23.919  78.070  30.438  0.00  0.00    +0.028 A 
ENDBRANCH  10  17
ENDBRANCH   3   7
BRANCH   1  23
ATOM     23  N   LIG    1      -16.999  79.217  37.648  0.00  0.00    -0.358 N 
ATOM     24  H   LIG    1      -16.722  78.246  37.759  0.00  0.00    +0.142 HD
ATOM     25  H   LIG    1      -17.020  79.705  38.539  0.00  0.00    +0.142 HD
ENDBRANCH   1  23
BRANCH   5  26
ATOM     26  N   LIG    1      -21.260  81.462  36.828  0.00  0.00    -0.216 N 
ATOM     27  H   LIG    1      -20.946  82.257  37.384  0.00  0.00    +0.174 HD
BRANCH  26  28
ATOM     28  S   LIG    1      -22.721  80.873  37.472  0.00  0.00    +0.072 S 
ATOM     29  O   LIG    1      -23.676  81.964  37.525  0.00  0.00    -0.150 OA
ATOM     30  O   LIG    1      -22.365  80.124  38.654  0.00  0.00    -0.150 OA
BRANCH  28  31
ATOM     31  C   LIG    1      -23.272  79.717  36.238  0.00  0.00    +0.108 A 
ATOM     32  C   LIG    1      -23.255  78.345  36.513  0.00  0.00    +0.029 A 
ATOM     33  C   LIG    1      -23.610  77.447  35.507  0.00  0.00    +0.002 A 
ATOM     34  C   LIG    1      -23.981  77.920  34.246  0.00  0.00    +0.000 A 
ATOM     35  C   LIG    1      -24.000  79.291  33.981  0.00  0.00    +0.002 A 
ATOM     36  C   LIG    1      -23.653  80.195  34.980  0.00  0.00    +0.029 A 
ENDBRANCH  28  31
ENDBRANCH  26  28
ENDBRANCH   5  26
TORSDOF 6
ENDMDL
MODEL 2
REMARK VINA RESULT:      -6.0      6.147      9.813
REMARK  Name = pdb/CHEMBL2152285.pdb
REMARK                            x       y       z     vdW  Elec       q    Type
REMARK                         _______ _______ _______ _____ _____    ______ ____
ROOT
ATOM      1  C   LIG    1      -28.274  77.364  34.311  0.00  0.00    +0.027 A 
ATOM      2  C   LIG    1      -29.233  76.753  33.488  0.00  0.00    +0.031 A 
ATOM      3  C   LIG    1      -28.883  76.039  32.326  0.00  0.00    -0.013 A 
ATOM      4  C   LIG    1      -27.515  75.940  32.038  0.00  0.00    +0.033 A 
ATOM      5  C   LIG    1      -26.543  76.494  32.879  0.00  0.00    +0.050 A 
ATOM      6  C   LIG    1      -26.920  77.166  34.037  0.00  0.00    +0.047 A 
ENDROOT
BRANCH   3   7
ATOM      7  C   LIG    1      -29.899  75.407  31.451  0.00  0.00    +0.001 A 
ATOM      8  C   LIG    1      -30.634  76.156  30.510  0.00  0.00    +0.022 A 
ATOM      9  C   LIG    1      -31.595  75.521  29.697  0.00  0.00    +0.027 A 
ATOM     10  C   LIG    1      -32.523  75.913  28.671  0.00  0.00    +0.009 A 
ATOM     11  C   LIG    1      -33.201  74.763  28.297  0.00  0.00    +0.093 A 
ATOM     12  N   LIG    1      -32.734  73.717  29.048  0.00  0.00    -0.345 N 
ATOM     13  H   LIG    1      -33.043  72.757  29.003  0.00  0.00    +0.167 HD
ATOM     14  C   LIG    1      -31.765  74.158  29.900  0.00  0.00    +0.139 A 
ATOM     15  N   LIG    1      -31.116  73.367  30.770  0.00  0.00    -0.237 NA
ATOM     16  C   LIG    1      -30.199  74.041  31.510  0.00  0.00    +0.121 A 
BRANCH  10  17
ATOM     17  C   LIG    1      -32.791  77.218  28.068  0.00  0.00    -0.013 A 
ATOM     18  C   LIG    1      -33.672  78.122  28.665  0.00  0.00    +0.028 A 
ATOM     19  C   LIG    1      -33.902  79.341  28.045  0.00  0.00    +0.111 A 
ATOM     20  N   LIG    1      -33.312  79.723  26.894  0.00  0.00    -0.263 NA
ATOM     21  C   LIG    1      -32.453  78.845  26.338  0.00  0.00    +0.111 A 
ATOM     22  C   LIG    1      -32.168  77.600  26.875  0.00  0.00    +0.028 A 
ENDBRANCH  10  17
ENDBRANCH   3   7
BRANCH   1  23
ATOM     23  N   LIG    1      -28.678  77.965  35.512  0.00  0.00    -0.358 N 
ATOM     24  H   LIG    1      -29.626  78.330  35.492  0.00  0.00    +0.142 HD
ATOM     25  H   LIG    1      -28.019  78.654  35.865  0.00  0.00    +0.142 HD
ENDBRANCH   1  23
BRANCH   5  26
ATOM     26  N   LIG    1      -25.173  76.211  32.596  0.00  0.00    -0.216 N 
ATOM     27  H   LIG    1      -24.486  76.793  33.076  0.00  0.00    +0.174 HD
BRANCH  26  28
ATOM     28  S   LIG    1      -24.722  76.048  30.964  0.00  0.00    +0.072 S 
ATOM     29  O   LIG    1      -25.492  76.993  30.176  0.00  0.00    -0.150 OA
ATOM     30  O   LIG    1      -24.747  74.632  30.679  0.00  0.00    -0.150 OA
BRANCH  28  31
ATOM     31  C   LIG    1      -23.025  76.578  30.956  0.00  0.00    +0.108 A 
ATOM     32  C   LIG    1      -22.492  77.219  32.080  0.00  0.00    +0.029 A 
ATOM     33  C   LIG    1      -21.185  77.704  32.027  0.00  0.00    +0.002 A 
ATOM     34  C   LIG    1      -20.425  77.543  30.867  0.00  0.00    +0.000 A 
ATOM     35  C   LIG    1      -20.962  76.897  29.752  0.00  0.00    +0.002 A 
ATOM     36  C   LIG    1      -22.263  76.405  29.796  0.00  0.00    +0.029 A 
ENDBRANCH  28  31
ENDBRANCH  26  28
ENDBRANCH   5  26
TORSDOF 6
ENDMDL
MODEL 3
REMARK VINA RESULT:      -5.9      2.963      6.394
REMARK  Name = pdb/CHEMBL2152285.pdb
REMARK                            x       y       z     vdW  Elec       q    Type
REMARK                         _______ _______ _______ _____ _____    ______ ____
ROOT
ATOM      1  C   LIG    1      -20.582  77.018  29.555  0.00  0.00    +0.027 A 
ATOM      2  C   LIG    1      -19.965  77.487  30.726  0.00  0.00    +0.031 A 
ATOM      3  C   LIG    1      -20.657  77.608  31.946  0.00  0.00    -0.013 A 
ATOM      4  C   LIG    1      -22.000  77.209  31.948  0.00  0.00    +0.033 A 
ATOM      5  C   LIG    1      -22.615  76.685  30.805  0.00  0.00    +0.050 A 
ATOM      6  C   LIG    1      -21.895  76.547  29.623  0.00  0.00    +0.047 A 
ENDROOT
BRANCH   3   7
ATOM      7  C   LIG    1      -20.006  78.119  33.176  0.00  0.00    +0.001 A 
ATOM      8  C   LIG    1      -20.706  78.908  34.110  0.00  0.00    +0.022 A 
ATOM      9  C   LIG    1      -20.052  79.379  35.268  0.00  0.00    +0.027 A 
ATOM     10  C   LIG    1      -20.392  80.187  36.407  0.00  0.00    +0.009 A 
ATOM     11  C   LIG    1      -19.243  80.278  37.179  0.00  0.00    +0.093 A 
ATOM     12  N   LIG    1      -18.243  79.579  36.556  0.00  0.00    -0.345 N 
ATOM     13  H   LIG    1      -17.292  79.471  36.878  0.00  0.00    +0.167 HD
ATOM     14  C   LIG    1      -18.714  79.031  35.400  0.00  0.00    +0.139 A 
ATOM     15  N   LIG    1      -17.969  78.291  34.564  0.00  0.00    -0.237 NA
ATOM     16  C   LIG    1      -18.664  77.861  33.480  0.00  0.00    +0.121 A 
BRANCH  10  17
ATOM     17  C   LIG    1      -21.648  80.835  36.783  0.00  0.00    -0.013 A 
ATOM     18  C   LIG    1      -22.470  80.295  37.774  0.00  0.00    +0.028 A 
ATOM     19  C   LIG    1      -23.658  80.941  38.083  0.00  0.00    +0.111 A 
ATOM     20  N   LIG    1      -24.070  82.081  37.492  0.00  0.00    -0.263 NA
ATOM     21  C   LIG    1      -23.258  82.598  36.548  0.00  0.00    +0.111 A 
ATOM     22  C   LIG    1      -22.060  82.019  36.162  0.00  0.00    +0.028 A 
ENDBRANCH  10  17
ENDBRANCH   3   7
BRANCH   1  23
ATOM     23  N   LIG    1      -19.811  76.816  28.402  0.00  0.00    -0.358 N 
ATOM     24  H   LIG    1      -20.212  77.225  27.562  0.00  0.00    +0.142 HD
ATOM     25  H   LIG    1      -19.543  75.846  28.254  0.00  0.00    +0.142 HD
ENDBRANCH   1  23
BRANCH   5  26
ATOM     26  N   LIG    1      -23.934  76.156  30.938  0.00  0.00    -0.216 N 
ATOM     27  H   LIG    1      -24.213  75.466  30.240  0.00  0.00    +0.174 HD
BRANCH  26  28
ATOM     28  S   LIG    1      -25.207  77.262  31.167  0.00  0.00    +0.072 S 
ATOM     29  O   LIG    1      -26.465  76.570  30.955  0.00  0.00    -0.150 OA
ATOM     30  O   LIG    1      -24.857  78.440  30.408  0.00  0.00    -0.150 OA
BRANCH  28  31
ATOM     31  C   LIG    1      -25.085  77.669  32.894  0.00  0.00    +0.108 A 
ATOM     32  C   LIG    1      -25.762  76.891  33.841  0.00  0.00    +0.029 A 
ATOM     33  C   LIG    1      -25.725  77.272  35.182  0.00  0.00    +0.002 A 
ATOM     34  C   LIG    1      -25.017  78.413  35.566  0.00  0.00    +0.000 A 
ATOM     35  C   LIG    1      -24.340  79.180  34.616  0.00  0.00    +0.002 A 
ATOM     36  C   LIG    1      -24.365  78.805  33.276  0.00  0.00    +0.029 A 
ENDBRANCH  28  31
ENDBRANCH  26  28
ENDBRANCH   5  26
TORSDOF 6
ENDMDL
MODEL 4
REMARK VINA RESULT:      -5.9     17.703     21.418
REMARK  Name = pdb/CHEMBL2152285.pdb
REMARK                            x       y       z     vdW  Elec       q    Type
REMARK                         _______ _______ _______ _____ _____    ______ ____
ROOT
ATOM      1  C   LIG    1      -42.212  79.426  24.006  0.00  0.00    +0.027 A 
ATOM      2  C   LIG    1      -41.737  80.714  23.709  0.00  0.00    +0.031 A 
ATOM      3  C   LIG    1      -40.385  80.969  23.414  0.00  0.00    -0.013 A 
ATOM      4  C   LIG    1      -39.525  79.862  23.403  0.00  0.00    +0.033 A 
ATOM      5  C   LIG    1      -39.992  78.564  23.640  0.00  0.00    +0.050 A 
ATOM      6  C   LIG    1      -41.341  78.341  23.895  0.00  0.00    +0.047 A 
ENDROOT
BRANCH   3   7
ATOM      7  C   LIG    1      -39.884  82.332  23.117  0.00  0.00    +0.001 A 
ATOM      8  C   LIG    1      -39.128  83.064  24.054  0.00  0.00    +0.022 A 
ATOM      9  C   LIG    1      -38.671  84.360  23.737  0.00  0.00    +0.027 A 
ATOM     10  C   LIG    1      -37.918  85.395  24.391  0.00  0.00    +0.009 A 
ATOM     11  C   LIG    1      -37.845  86.451  23.495  0.00  0.00    +0.093 A 
ATOM     12  N   LIG    1      -38.520  86.104  22.354  0.00  0.00    -0.345 N 
ATOM     13  H   LIG    1      -38.642  86.672  21.529  0.00  0.00    +0.167 HD
ATOM     14  C   LIG    1      -39.026  84.844  22.484  0.00  0.00    +0.139 A 
ATOM     15  N   LIG    1      -39.742  84.223  21.533  0.00  0.00    -0.237 NA
ATOM     16  C   LIG    1      -40.137  82.978  21.900  0.00  0.00    +0.121 A 
BRANCH  10  17
ATOM     17  C   LIG    1      -37.308  85.444  25.719  0.00  0.00    -0.013 A 
ATOM     18  C   LIG    1      -35.925  85.550  25.874  0.00  0.00    +0.028 A 
ATOM     19  C   LIG    1      -35.396  85.578  27.156  0.00  0.00    +0.111 A 
ATOM     20  N   LIG    1      -36.141  85.524  28.279  0.00  0.00    -0.263 NA
ATOM     21  C   LIG    1      -37.476  85.436  28.112  0.00  0.00    +0.111 A 
ATOM     22  C   LIG    1      -38.096  85.388  26.874  0.00  0.00    +0.028 A 
ENDBRANCH  10  17
ENDBRANCH   3   7
BRANCH   1  23
ATOM     23  N   LIG    1      -43.588  79.221  24.181  0.00  0.00    -0.358 N 
ATOM     24  H   LIG    1      -44.158  79.578  23.419  0.00  0.00    +0.142 HD
ATOM     25  H   LIG    1      -43.935  79.531  25.085  0.00  0.00    +0.142 HD
ENDBRANCH   1  23
BRANCH   5  26
ATOM     26  N   LIG    1      -39.082  77.480  23.453  0.00  0.00    -0.216 N 
ATOM     27  H   LIG    1      -39.344  76.791  22.748  0.00  0.00    +0.174 HD
BRANCH  26  28
ATOM     28  S   LIG    1      -38.520  76.674  24.841  0.00  0.00    +0.072 S 
ATOM     29  O   LIG    1      -39.203  77.219  26.000  0.00  0.00    -0.150 OA
ATOM     30  O   LIG    1      -37.079  76.668  24.747  0.00  0.00    -0.150 OA
BRANCH  28  31
ATOM     31  C   LIG    1      -39.090  75.006  24.600  0.00  0.00    +0.108 A 
ATOM     32  C   LIG    1      -38.254  73.932  24.924  0.00  0.00    +0.029 A 
ATOM     33  C   LIG    1      -38.682  72.633  24.651  0.00  0.00    +0.002 A 
ATOM     34  C   LIG    1      -39.932  72.417  24.065  0.00  0.00    +0.000 A 
ATOM     35  C   LIG    1      -40.762  73.494  23.750  0.00  0.00    +0.002 A 
ATOM     36  C   LIG    1      -40.346  74.793  24.024  0.00  0.00    +0.029 A 
ENDBRANCH  28  31
ENDBRANCH  26  28
ENDBRANCH   5  26
TORSDOF 6
ENDMDL
MODEL 5
REMARK VINA RESULT:      -5.9     12.582     17.054
REMARK  Name = pdb/CHEMBL2152285.pdb
REMARK                            x       y       z     vdW  Elec       q    Type
REMARK                         _______ _______ _______ _____ _____    ______ ____
ROOT
ATOM      1  C   LIG    1      -34.710  69.249  27.842  0.00  0.00    +0.027 A 
ATOM      2  C   LIG    1      -33.820  70.159  28.435  0.00  0.00    +0.031 A 
ATOM      3  C   LIG    1      -34.029  71.550  28.397  0.00  0.00    -0.013 A 
ATOM      4  C   LIG    1      -35.195  71.993  27.757  0.00  0.00    +0.033 A 
ATOM      5  C   LIG    1      -36.121  71.097  27.212  0.00  0.00    +0.050 A 
ATOM      6  C   LIG    1      -35.902  69.726  27.294  0.00  0.00    +0.047 A 
ENDROOT
BRANCH   3   7
ATOM      7  C   LIG    1      -33.079  72.509  29.010  0.00  0.00    +0.001 A 
ATOM      8  C   LIG    1      -33.118  73.885  28.708  0.00  0.00    +0.022 A 
ATOM      9  C   LIG    1      -32.195  74.767  29.308  0.00  0.00    +0.027 A 
ATOM     10  C   LIG    1      -31.905  76.174  29.257  0.00  0.00    +0.009 A 
ATOM     11  C   LIG    1      -30.827  76.382  30.104  0.00  0.00    +0.093 A 
ATOM     12  N   LIG    1      -30.457  75.178  30.644  0.00  0.00    -0.345 N 
ATOM     13  H   LIG    1      -29.700  75.015  31.291  0.00  0.00    +0.167 HD
ATOM     14  C   LIG    1      -31.272  74.192  30.173  0.00  0.00    +0.139 A 
ATOM     15  N   LIG    1      -31.159  72.899  30.516  0.00  0.00    -0.237 NA
ATOM     16  C   LIG    1      -32.085  72.111  29.912  0.00  0.00    +0.121 A 
BRANCH  10  17
ATOM     17  C   LIG    1      -32.540  77.257  28.507  0.00  0.00    -0.013 A 
ATOM     18  C   LIG    1      -31.880  77.885  27.448  0.00  0.00    +0.028 A 
ATOM     19  C   LIG    1      -32.521  78.916  26.779  0.00  0.00    +0.111 A 
ATOM     20  N   LIG    1      -33.762  79.350  27.076  0.00  0.00    -0.263 NA
ATOM     21  C   LIG    1      -34.391  78.724  28.091  0.00  0.00    +0.111 A 
ATOM     22  C   LIG    1      -33.830  77.694  28.827  0.00  0.00    +0.028 A 
ENDBRANCH  10  17
ENDBRANCH   3   7
BRANCH   1  23
ATOM     23  N   LIG    1      -34.504  67.872  28.010  0.00  0.00    -0.358 N 
ATOM     24  H   LIG    1      -34.754  67.316  27.197  0.00  0.00    +0.142 HD
ATOM     25  H   LIG    1      -34.915  67.498  28.861  0.00  0.00    +0.142 HD
ENDBRANCH   1  23
BRANCH   5  26
ATOM     26  N   LIG    1      -37.354  71.625  26.722  0.00  0.00    -0.216 N 
ATOM     27  H   LIG    1      -38.178  71.446  27.297  0.00  0.00    +0.174 HD
BRANCH  26  28
ATOM     28  S   LIG    1      -37.740  71.341  25.090  0.00  0.00    +0.072 S 
ATOM     29  O   LIG    1      -38.491  70.103  25.001  0.00  0.00    -0.150 OA
ATOM     30  O   LIG    1      -36.515  71.535  24.348  0.00  0.00    -0.150 OA
BRANCH  28  31
ATOM     31  C   LIG    1      -38.838  72.682  24.693  0.00  0.00    +0.108 A 
ATOM     32  C   LIG    1      -40.058  72.417  24.061  0.00  0.00    +0.029 A 
ATOM     33  C   LIG    1      -40.870  73.486  23.680  0.00  0.00    +0.002 A 
ATOM     34  C   LIG    1      -40.464  74.798  23.934  0.00  0.00    +0.000 A 
ATOM     35  C   LIG    1      -39.248  75.053  24.570  0.00  0.00    +0.002 A 
ATOM     36  C   LIG    1      -38.434  73.994  24.959  0.00  0.00    +0.029 A 
ENDBRANCH  28  31
ENDBRANCH  26  28
ENDBRANCH   5  26
TORSDOF 6
ENDMDL
MODEL 6
REMARK VINA RESULT:      -5.9     15.102     19.778
REMARK  Name = pdb/CHEMBL2152285.pdb
REMARK                            x       y       z     vdW  Elec       q    Type
REMARK                         _______ _______ _______ _____ _____    ______ ____
ROOT
ATOM      1  C   LIG    1      -39.837  76.939  24.249  0.00  0.00    +0.027 A 
ATOM      2  C   LIG    1      -40.277  75.613  24.109  0.00  0.00    +0.031 A 
ATOM      3  C   LIG    1      -39.450  74.511  24.396  0.00  0.00    -0.013 A 
ATOM      4  C   LIG    1      -38.159  74.799  24.860  0.00  0.00    +0.033 A 
ATOM      5  C   LIG    1      -37.724  76.114  25.060  0.00  0.00    +0.050 A 
ATOM      6  C   LIG    1      -38.577  77.181  24.798  0.00  0.00    +0.047 A 
ENDROOT
BRANCH   3   7
ATOM      7  C   LIG    1      -39.912  73.112  24.233  0.00  0.00    +0.001 A 
ATOM      8  C   LIG    1      -39.003  72.038  24.140  0.00  0.00    +0.022 A 
ATOM      9  C   LIG    1      -39.480  70.720  23.981  0.00  0.00    +0.027 A 
ATOM     10  C   LIG    1      -38.908  69.409  23.839  0.00  0.00    +0.009 A 
ATOM     11  C   LIG    1      -39.972  68.531  23.699  0.00  0.00    +0.093 A 
ATOM     12  N   LIG    1      -41.138  69.249  23.741  0.00  0.00    -0.345 N 
ATOM     13  H   LIG    1      -42.075  68.882  23.659  0.00  0.00    +0.167 HD
ATOM     14  C   LIG    1      -40.859  70.573  23.909  0.00  0.00    +0.139 A 
ATOM     15  N   LIG    1      -41.796  71.532  23.984  0.00  0.00    -0.237 NA
ATOM     16  C   LIG    1      -41.267  72.772  24.149  0.00  0.00    +0.121 A 
BRANCH  10  17
ATOM     17  C   LIG    1      -37.514  68.968  23.826  0.00  0.00    -0.013 A 
ATOM     18  C   LIG    1      -36.987  68.276  22.733  0.00  0.00    +0.028 A 
ATOM     19  C   LIG    1      -35.662  67.867  22.777  0.00  0.00    +0.111 A 
ATOM     20  N   LIG    1      -34.833  68.110  23.813  0.00  0.00    -0.263 NA
ATOM     21  C   LIG    1      -35.353  68.791  24.853  0.00  0.00    +0.111 A 
ATOM     22  C   LIG    1      -36.666  69.229  24.908  0.00  0.00    +0.028 A 
ENDBRANCH  10  17
ENDBRANCH   3   7
BRANCH   1  23
ATOM     23  N   LIG    1      -40.744  77.991  24.054  0.00  0.00    -0.358 N 
ATOM     24  H   LIG    1      -40.517  78.588  23.263  0.00  0.00    +0.142 HD
ATOM     25  H   LIG    1      -40.926  78.534  24.893  0.00  0.00    +0.142 HD
ENDBRANCH   1  23
BRANCH   5  26
ATOM     26  N   LIG    1      -36.456  76.312  25.684  0.00  0.00    -0.216 N 
ATOM     27  H   LIG    1      -35.782  75.552  25.582  0.00  0.00    +0.174 HD
BRANCH  26  28
ATOM     28  S   LIG    1      -36.446  76.852  27.297  0.00  0.00    +0.072 S 
ATOM     29  O   LIG    1      -37.311  75.988  28.079  0.00  0.00    -0.150 OA
ATOM     30  O   LIG    1      -36.656  78.281  27.243  0.00  0.00    -0.150 OA
BRANCH  28  31
ATOM     31  C   LIG    1      -34.769  76.565  27.812  0.00  0.00    +0.108 A 
ATOM     32  C   LIG    1      -34.384  75.292  28.248  0.00  0.00    +0.029 A 
ATOM     33  C   LIG    1      -33.088  75.104  28.729  0.00  0.00    +0.002 A 
ATOM     34  C   LIG    1      -32.192  76.175  28.765  0.00  0.00    +0.000 A 
ATOM     35  C   LIG    1      -32.583  77.440  28.323  0.00  0.00    +0.002 A 
ATOM     36  C   LIG    1      -33.871  77.637  27.837  0.00  0.00    +0.029 A 
ENDBRANCH  28  31
ENDBRANCH  26  28
ENDBRANCH   5  26
TORSDOF 6
ENDMDL
MODEL 7
REMARK VINA RESULT:      -5.9      2.465      3.361
REMARK  Name = pdb/CHEMBL2152285.pdb
REMARK                            x       y       z     vdW  Elec       q    Type
REMARK                         _______ _______ _______ _____ _____    ______ ____
ROOT
ATOM      1  C   LIG    1      -18.963  79.828  37.077  0.00  0.00    +0.027 A 
ATOM      2  C   LIG    1      -18.943  79.165  35.839  0.00  0.00    +0.031 A 
ATOM      3  C   LIG    1      -19.796  79.523  34.779  0.00  0.00    -0.013 A 
ATOM      4  C   LIG    1      -20.660  80.604  35.005  0.00  0.00    +0.033 A 
ATOM      5  C   LIG    1      -20.653  81.312  36.212  0.00  0.00    +0.050 A 
ATOM      6  C   LIG    1      -19.775  80.954  37.229  0.00  0.00    +0.047 A 
ENDROOT
BRANCH   3   7
ATOM      7  C   LIG    1      -19.783  78.811  33.479  0.00  0.00    +0.001 A 
ATOM      8  C   LIG    1      -20.964  78.302  32.902  0.00  0.00    +0.022 A 
ATOM      9  C   LIG    1      -20.912  77.626  31.665  0.00  0.00    +0.027 A 
ATOM     10  C   LIG    1      -21.845  76.974  30.787  0.00  0.00    +0.009 A 
ATOM     11  C   LIG    1      -21.105  76.489  29.720  0.00  0.00    +0.093 A 
ATOM     12  N   LIG    1      -19.787  76.808  29.921  0.00  0.00    -0.345 N 
ATOM     13  H   LIG    1      -19.012  76.582  29.316  0.00  0.00    +0.167 HD
ATOM     14  C   LIG    1      -19.653  77.494  31.093  0.00  0.00    +0.139 A 
ATOM     15  N   LIG    1      -18.480  77.941  31.568  0.00  0.00    -0.237 NA
ATOM     16  C   LIG    1      -18.606  78.591  32.753  0.00  0.00    +0.121 A 
BRANCH  10  17
ATOM     17  C   LIG    1      -23.293  76.793  30.891  0.00  0.00    -0.013 A 
ATOM     18  C   LIG    1      -23.845  75.538  31.155  0.00  0.00    +0.028 A 
ATOM     19  C   LIG    1      -25.225  75.417  31.229  0.00  0.00    +0.111 A 
ATOM     20  N   LIG    1      -26.080  76.449  31.075  0.00  0.00    -0.263 NA
ATOM     21  C   LIG    1      -25.530  77.656  30.835  0.00  0.00    +0.111 A 
ATOM     22  C   LIG    1      -24.166  77.874  30.731  0.00  0.00    +0.028 A 
ENDBRANCH  10  17
ENDBRANCH   3   7
BRANCH   1  23
ATOM     23  N   LIG    1      -18.013  79.497  38.053  0.00  0.00    -0.358 N 
ATOM     24  H   LIG    1      -17.212  78.988  37.692  0.00  0.00    +0.142 HD
ATOM     25  H   LIG    1      -18.410  79.040  38.870  0.00  0.00    +0.142 HD
ENDBRANCH   1  23
BRANCH   5  26
ATOM     26  N   LIG    1      -21.449  82.494  36.299  0.00  0.00    -0.216 N 
ATOM     27  H   LIG    1      -20.967  83.338  36.608  0.00  0.00    +0.174 HD
BRANCH  26  28
ATOM     28  S   LIG    1      -22.943  82.380  37.105  0.00  0.00    +0.072 S 
ATOM     29  O   LIG    1      -23.100  81.024  37.599  0.00  0.00    -0.150 OA
ATOM     30  O   LIG    1      -23.920  82.980  36.226  0.00  0.00    -0.150 OA
BRANCH  28  31
ATOM     31  C   LIG    1      -22.733  83.456  38.505  0.00  0.00    +0.108 A 
ATOM     32  C   LIG    1      -21.447  83.833  38.905  0.00  0.00    +0.029 A 
ATOM     33  C   LIG    1      -21.294  84.608  40.054  0.00  0.00    +0.002 A 
ATOM     34  C   LIG    1      -22.416  85.002  40.787  0.00  0.00    +0.000 A 
ATOM     35  C   LIG    1      -23.696  84.626  40.378  0.00  0.00    +0.002 A 
ATOM     36  C   LIG    1      -23.860  83.857  39.229  0.00  0.00    +0.029 A 
ENDBRANCH  28  31
ENDBRANCH  26  28
ENDBRANCH   5  26
TORSDOF 6
ENDMDL
MODEL 8
REMARK VINA RESULT:      -5.8     18.775     20.985
REMARK  Name = pdb/CHEMBL2152285.pdb
REMARK                            x       y       z     vdW  Elec       q    Type
REMARK                         _______ _______ _______ _____ _____    ______ ____
ROOT
ATOM      1  C   LIG    1      -18.266  86.973  11.737  0.00  0.00    +0.027 A 
ATOM      2  C   LIG    1      -18.094  85.628  12.105  0.00  0.00    +0.031 A 
ATOM      3  C   LIG    1      -18.632  85.098  13.293  0.00  0.00    -0.013 A 
ATOM      4  C   LIG    1      -19.379  85.976  14.090  0.00  0.00    +0.033 A 
ATOM      5  C   LIG    1      -19.608  87.303  13.710  0.00  0.00    +0.050 A 
ATOM      6  C   LIG    1      -19.091  87.788  12.513  0.00  0.00    +0.047 A 
ENDROOT
BRANCH   3   7
ATOM      7  C   LIG    1      -18.436  83.683  13.686  0.00  0.00    +0.001 A 
ATOM      8  C   LIG    1      -19.527  82.829  13.945  0.00  0.00    +0.022 A 
ATOM      9  C   LIG    1      -19.301  81.488  14.322  0.00  0.00    +0.027 A 
ATOM     10  C   LIG    1      -20.105  80.349  14.671  0.00  0.00    +0.009 A 
ATOM     11  C   LIG    1      -19.220  79.320  14.961  0.00  0.00    +0.093 A 
ATOM     12  N   LIG    1      -17.942  79.789  14.813  0.00  0.00    -0.345 N 
ATOM     13  H   LIG    1      -17.088  79.271  14.961  0.00  0.00    +0.167 HD
ATOM     14  C   LIG    1      -17.972  81.098  14.428  0.00  0.00    +0.139 A 
ATOM     15  N   LIG    1      -16.875  81.839  14.205  0.00  0.00    -0.237 NA
ATOM     16  C   LIG    1      -17.166  83.112  13.835  0.00  0.00    +0.121 A 
BRANCH  10  17
ATOM     17  C   LIG    1      -21.556  80.185  14.745  0.00  0.00    -0.013 A 
ATOM     18  C   LIG    1      -22.303  79.848  13.614  0.00  0.00    +0.028 A 
ATOM     19  C   LIG    1      -23.678  79.719  13.736  0.00  0.00    +0.111 A 
ATOM     20  N   LIG    1      -24.351  79.885  14.892  0.00  0.00    -0.263 NA
ATOM     21  C   LIG    1      -23.614  80.196  15.978  0.00  0.00    +0.111 A 
ATOM     22  C   LIG    1      -22.238  80.358  15.954  0.00  0.00    +0.028 A 
ENDBRANCH  10  17
ENDBRANCH   3   7
BRANCH   1  23
ATOM     23  N   LIG    1      -17.800  87.411  10.489  0.00  0.00    -0.358 N 
ATOM     24  H   LIG    1      -17.583  86.658   9.842  0.00  0.00    +0.142 HD
ATOM     25  H   LIG    1      -17.040  88.083  10.550  0.00  0.00    +0.142 HD
ENDBRANCH   1  23
BRANCH   5  26
ATOM     26  N   LIG    1      -20.510  88.079  14.499  0.00  0.00    -0.216 N 
ATOM     27  H   LIG    1      -20.406  87.997  15.510  0.00  0.00    +0.174 HD
BRANCH  26  28
ATOM     28  S   LIG    1      -22.163  88.012  14.101  0.00  0.00    +0.072 S 
ATOM     29  O   LIG    1      -22.336  88.527  12.756  0.00  0.00    -0.150 OA
ATOM     30  O   LIG    1      -22.870  88.583  15.224  0.00  0.00    -0.150 OA
BRANCH  28  31
ATOM     31  C   LIG    1      -22.504  86.267  14.071  0.00  0.00    +0.108 A 
ATOM     32  C   LIG    1      -22.500  85.537  15.265  0.00  0.00    +0.029 A 
ATOM     33  C   LIG    1      -22.685  84.156  15.216  0.00  0.00    +0.002 A 
ATOM     34  C   LIG    1      -22.875  83.518  13.988  0.00  0.00    +0.000 A 
ATOM     35  C   LIG    1      -22.883  84.254  12.802  0.00  0.00    +0.002 A 
ATOM     36  C   LIG    1      -22.705  85.634  12.841  0.00  0.00    +0.029 A 
ENDBRANCH  28  31
ENDBRANCH  26  28
ENDBRANCH   5  26
TORSDOF 6
ENDMDL
MODEL 9
REMARK VINA RESULT:      -5.7     15.401     19.661
REMARK  Name = pdb/CHEMBL2152285.pdb
REMARK                            x       y       z     vdW  Elec       q    Type
REMARK                         _______ _______ _______ _____ _____    ______ ____
ROOT
ATOM      1  C   LIG    1      -40.269  74.723  23.939  0.00  0.00    +0.027 A 
ATOM      2  C   LIG    1      -39.752  73.452  24.239  0.00  0.00    +0.031 A 
ATOM      3  C   LIG    1      -38.470  73.272  24.793  0.00  0.00    -0.013 A 
ATOM      4  C   LIG    1      -37.733  74.434  25.061  0.00  0.00    +0.033 A 
ATOM      5  C   LIG    1      -38.256  75.710  24.822  0.00  0.00    +0.050 A 
ATOM      6  C   LIG    1      -39.538  75.855  24.304  0.00  0.00    +0.047 A 
ENDROOT
BRANCH   3   7
ATOM      7  C   LIG    1      -37.921  71.929  25.095  0.00  0.00    +0.001 A 
ATOM      8  C   LIG    1      -37.638  70.999  24.075  0.00  0.00    +0.022 A 
ATOM      9  C   LIG    1      -37.120  69.728  24.401  0.00  0.00    +0.027 A 
ATOM     10  C   LIG    1      -36.729  68.542  23.689  0.00  0.00    +0.009 A 
ATOM     11  C   LIG    1      -36.314  67.630  24.648  0.00  0.00    +0.093 A 
ATOM     12  N   LIG    1      -36.447  68.204  25.884  0.00  0.00    -0.345 N 
ATOM     13  H   LIG    1      -36.229  67.780  26.774  0.00  0.00    +0.167 HD
ATOM     14  C   LIG    1      -36.934  69.471  25.754  0.00  0.00    +0.139 A 
ATOM     15  N   LIG    1      -37.177  70.291  26.789  0.00  0.00    -0.237 NA
ATOM     16  C   LIG    1      -37.662  71.498  26.402  0.00  0.00    +0.121 A 
BRANCH  10  17
ATOM     17  C   LIG    1      -36.726  68.239  22.258  0.00  0.00    -0.013 A 
ATOM     18  C   LIG    1      -35.903  67.241  21.734  0.00  0.00    +0.028 A 
ATOM     19  C   LIG    1      -35.928  67.003  20.368  0.00  0.00    +0.111 A 
ATOM     20  N   LIG    1      -36.716  67.671  19.502  0.00  0.00    -0.263 NA
ATOM     21  C   LIG    1      -37.515  68.622  20.026  0.00  0.00    +0.111 A 
ATOM     22  C   LIG    1      -37.552  68.941  21.374  0.00  0.00    +0.028 A 
ENDBRANCH  10  17
ENDBRANCH   3   7
BRANCH   1  23
ATOM     23  N   LIG    1      -41.592  74.841  23.493  0.00  0.00    -0.358 N 
ATOM     24  H   LIG    1      -42.215  75.282  24.164  0.00  0.00    +0.142 HD
ATOM     25  H   LIG    1      -41.982  73.974  23.134  0.00  0.00    +0.142 HD
ENDBRANCH   1  23
BRANCH   5  26
ATOM     26  N   LIG    1      -37.503  76.837  25.271  0.00  0.00    -0.216 N 
ATOM     27  H   LIG    1      -36.590  76.969  24.834  0.00  0.00    +0.174 HD
BRANCH  26  28
ATOM     28  S   LIG    1      -37.357  77.070  26.950  0.00  0.00    +0.072 S 
ATOM     29  O   LIG    1      -38.522  76.498  27.598  0.00  0.00    -0.150 OA
ATOM     30  O   LIG    1      -36.996  78.456  27.133  0.00  0.00    -0.150 OA
BRANCH  28  31
ATOM     31  C   LIG    1      -35.945  76.076  27.376  0.00  0.00    +0.108 A 
ATOM     32  C   LIG    1      -36.131  74.834  27.993  0.00  0.00    +0.029 A 
ATOM     33  C   LIG    1      -35.012  74.104  28.398  0.00  0.00    +0.002 A 
ATOM     34  C   LIG    1      -33.730  74.613  28.182  0.00  0.00    +0.000 A 
ATOM     35  C   LIG    1      -33.554  75.850  27.561  0.00  0.00    +0.002 A 
ATOM     36  C   LIG    1      -34.663  76.583  27.148  0.00  0.00    +0.029 A 
ENDBRANCH  28  31
ENDBRANCH  26  28
ENDBRANCH   5  26
TORSDOF 6
ENDMDL
