MODEL 1
REMARK VINA RESULT:      -6.4      0.000      0.000
REMARK  Name = pdb/CHEMBL3671461.pdb
REMARK                            x       y       z     vdW  Elec       q    Type
REMARK                         _______ _______ _______ _____ _____    ______ ____
ROOT
ATOM      1  C   LIG    1      -34.772  72.661  28.938  0.00  0.00    +0.197 C 
ATOM      2  O   LIG    1      -35.020  72.488  30.136  0.00  0.00    -0.287 OA
ENDROOT
BRANCH   1   8
ATOM      3  C   LIG    1      -37.275  76.447  26.206  0.00  0.00    +0.214 A 
ATOM      4  N   LIG    1      -36.041  76.827  26.528  0.00  0.00    -0.197 NA
ATOM      5  C   LIG    1      -35.370  75.910  27.241  0.00  0.00    +0.147 A 
ATOM      6  N   LIG    1      -34.097  76.042  27.719  0.00  0.00    -0.325 N 
ATOM      7  C   LIG    1      -33.698  74.886  28.328  0.00  0.00    +0.100 A 
ATOM      8  C   LIG    1      -34.773  74.001  28.343  0.00  0.00    +0.051 A 
ATOM      9  C   LIG    1      -35.833  74.659  27.629  0.00  0.00    +0.048 A 
ATOM     10  C   LIG    1      -37.143  74.372  27.253  0.00  0.00    +0.126 A 
ATOM     11  N   LIG    1      -37.851  75.279  26.529  0.00  0.00    -0.222 NA
BRANCH   6  12
ATOM     12  C   LIG    1      -33.311  77.191  27.619  0.00  0.00    +0.048 C 
ATOM     13  C   LIG    1      -33.555  78.596  28.275  0.00  0.00    +0.032 C 
ATOM     14  C   LIG    1      -32.046  78.579  27.700  0.00  0.00    -0.004 C 
ATOM     15  C   LIG    1      -32.390  77.639  26.436  0.00  0.00    +0.032 C 
ATOM     16  C   LIG    1      -31.983  77.205  28.461  0.00  0.00    +0.032 C 
ENDBRANCH   6  12
BRANCH   3  17
ATOM     17  N   LIG    1      -37.999  77.312  25.406  0.00  0.00    -0.327 N 
ATOM     18  H   LIG    1      -38.904  77.472  25.829  0.00  0.00    +0.145 HD
ATOM     19  H   LIG    1      -37.438  78.129  25.207  0.00  0.00    +0.145 HD
ENDBRANCH   3  17
ENDBRANCH   1   8
BRANCH   1  20
ATOM     20  C   LIG    1      -34.459  71.476  28.092  0.00  0.00    +0.042 A 
ATOM     21  C   LIG    1      -35.109  71.238  26.873  0.00  0.00    +0.038 A 
ATOM     22  C   LIG    1      -34.791  70.094  26.121  0.00  0.00    +0.052 A 
ATOM     23  C   LIG    1      -33.820  69.240  26.630  0.00  0.00    +0.134 A 
ATOM     24  N   LIG    1      -33.183  69.433  27.807  0.00  0.00    -0.261 NA
ATOM     25  C   LIG    1      -33.535  70.526  28.516  0.00  0.00    +0.122 A 
BRANCH  22  26
ATOM     26  N   LIG    1      -35.460  69.869  24.905  0.00  0.00    -0.284 N 
ATOM     27  H   LIG    1      -35.101  70.371  24.090  0.00  0.00    +0.155 HD
ATOM     28  C   LIG    1      -36.641  69.180  24.682  0.00  0.00    +0.223 C 
ATOM     29  O   LIG    1      -37.284  68.592  25.552  0.00  0.00    -0.275 OA
BRANCH  28  30
ATOM     30  C   LIG    1      -37.090  69.087  23.220  0.00  0.00    +0.151 C 
BRANCH  30  31
ATOM     31  C   LIG    1      -36.331  68.098  22.364  0.00  0.00    +0.050 A 
ATOM     32  N   LIG    1      -35.066  67.784  22.757  0.00  0.00    -0.257 NA
ATOM     33  C   LIG    1      -34.345  66.938  21.991  0.00  0.00    +0.149 A 
ATOM     34  C   LIG    1      -34.854  66.329  20.869  0.00  0.00    +0.141 A 
ATOM     35  F   LIG    1      -34.100  65.486  20.155  0.00  0.00    -0.204 F 
ATOM     36  C   LIG    1      -36.162  66.601  20.496  0.00  0.00    +0.041 A 
ATOM     37  C   LIG    1      -36.919  67.501  21.250  0.00  0.00    +0.026 A 
ENDBRANCH  30  31
ENDBRANCH  28  30
ENDBRANCH  22  26
ENDBRANCH   1  20
TORSDOF 7
ENDMDL
MODEL 2
REMARK VINA RESULT:      -6.2     12.555     17.427
REMARK  Name = pdb/CHEMBL3671461.pdb
REMARK                            x       y       z     vdW  Elec       q    Type
REMARK                         _______ _______ _______ _____ _____    ______ ____
ROOT
ATOM      1  C   LIG    1      -21.453  76.462  29.960  0.00  0.00    +0.197 C 
ATOM      2  O   LIG    1      -21.426  76.532  28.726  0.00  0.00    -0.287 OA
ENDROOT
BRANCH   1   8
ATOM      3  C   LIG    1      -26.512  76.783  31.498  0.00  0.00    +0.214 A 
ATOM      4  N   LIG    1      -25.945  75.666  31.949  0.00  0.00    -0.197 NA
ATOM      5  C   LIG    1      -24.666  75.526  31.569  0.00  0.00    +0.147 A 
ATOM      6  N   LIG    1      -23.851  74.472  31.872  0.00  0.00    -0.325 N 
ATOM      7  C   LIG    1      -22.591  74.696  31.395  0.00  0.00    +0.100 A 
ATOM      8  C   LIG    1      -22.599  75.883  30.667  0.00  0.00    +0.051 A 
ATOM      9  C   LIG    1      -23.928  76.416  30.800  0.00  0.00    +0.048 A 
ATOM     10  C   LIG    1      -24.625  77.542  30.367  0.00  0.00    +0.126 A 
ATOM     11  N   LIG    1      -25.921  77.715  30.735  0.00  0.00    -0.222 NA
BRANCH   6  12
ATOM     12  C   LIG    1      -24.241  73.321  32.558  0.00  0.00    +0.048 C 
ATOM     13  C   LIG    1      -25.129  72.135  32.041  0.00  0.00    +0.032 C 
ATOM     14  C   LIG    1      -24.447  71.668  33.428  0.00  0.00    -0.004 C 
ATOM     15  C   LIG    1      -24.469  73.135  34.095  0.00  0.00    +0.032 C 
ATOM     16  C   LIG    1      -23.142  72.210  32.739  0.00  0.00    +0.032 C 
ENDBRANCH   6  12
BRANCH   3  17
ATOM     17  N   LIG    1      -27.807  77.029  31.914  0.00  0.00    -0.327 N 
ATOM     18  H   LIG    1      -28.178  77.811  31.389  0.00  0.00    +0.145 HD
ATOM     19  H   LIG    1      -28.335  76.169  31.885  0.00  0.00    +0.145 HD
ENDBRANCH   3  17
ENDBRANCH   1   8
BRANCH   1  20
ATOM     20  C   LIG    1      -20.287  76.974  30.732  0.00  0.00    +0.042 A 
ATOM     21  C   LIG    1      -20.443  77.768  31.878  0.00  0.00    +0.038 A 
ATOM     22  C   LIG    1      -19.310  78.242  32.561  0.00  0.00    +0.052 A 
ATOM     23  C   LIG    1      -18.063  77.885  32.062  0.00  0.00    +0.134 A 
ATOM     24  N   LIG    1      -17.877  77.132  30.953  0.00  0.00    -0.261 NA
ATOM     25  C   LIG    1      -18.987  76.720  30.306  0.00  0.00    +0.122 A 
BRANCH  22  26
ATOM     26  N   LIG    1      -19.486  79.043  33.703  0.00  0.00    -0.284 N 
ATOM     27  H   LIG    1      -19.572  80.049  33.542  0.00  0.00    +0.155 HD
ATOM     28  C   LIG    1      -19.401  78.679  35.036  0.00  0.00    +0.223 C 
ATOM     29  O   LIG    1      -19.200  77.533  35.438  0.00  0.00    -0.275 OA
BRANCH  28  30
ATOM     30  C   LIG    1      -19.681  79.795  36.049  0.00  0.00    +0.151 C 
BRANCH  30  31
ATOM     31  C   LIG    1      -21.102  80.311  36.078  0.00  0.00    +0.050 A 
ATOM     32  N   LIG    1      -22.060  79.456  36.531  0.00  0.00    -0.257 NA
ATOM     33  C   LIG    1      -23.346  79.870  36.528  0.00  0.00    +0.149 A 
ATOM     34  C   LIG    1      -23.721  81.137  36.151  0.00  0.00    +0.141 A 
ATOM     35  F   LIG    1      -25.008  81.498  36.183  0.00  0.00    -0.204 F 
ATOM     36  C   LIG    1      -22.742  82.030  35.744  0.00  0.00    +0.041 A 
ATOM     37  C   LIG    1      -21.409  81.616  35.701  0.00  0.00    +0.026 A 
ENDBRANCH  30  31
ENDBRANCH  28  30
ENDBRANCH  22  26
ENDBRANCH   1  20
TORSDOF 7
ENDMDL
MODEL 3
REMARK VINA RESULT:      -6.2      3.062      8.706
REMARK  Name = pdb/CHEMBL3671461.pdb
REMARK                            x       y       z     vdW  Elec       q    Type
REMARK                         _______ _______ _______ _____ _____    ______ ____
ROOT
ATOM      1  C   LIG    1      -39.340  71.312  24.185  0.00  0.00    +0.197 C 
ATOM      2  O   LIG    1      -40.435  70.818  23.893  0.00  0.00    -0.287 OA
ENDROOT
BRANCH   1   8
ATOM      3  C   LIG    1      -35.894  67.780  22.259  0.00  0.00    +0.214 A 
ATOM      4  N   LIG    1      -35.604  68.091  23.521  0.00  0.00    -0.197 NA
ATOM      5  C   LIG    1      -36.436  69.000  24.050  0.00  0.00    +0.147 A 
ATOM      6  N   LIG    1      -36.363  69.514  25.314  0.00  0.00    -0.325 N 
ATOM      7  C   LIG    1      -37.417  70.351  25.546  0.00  0.00    +0.100 A 
ATOM      8  C   LIG    1      -38.150  70.475  24.369  0.00  0.00    +0.051 A 
ATOM      9  C   LIG    1      -37.525  69.592  23.422  0.00  0.00    +0.048 A 
ATOM     10  C   LIG    1      -37.726  69.206  22.099  0.00  0.00    +0.126 A 
ATOM     11  N   LIG    1      -36.901  68.286  21.533  0.00  0.00    -0.222 NA
BRANCH   6  12
ATOM     12  C   LIG    1      -35.354  69.240  26.239  0.00  0.00    +0.048 C 
ATOM     13  C   LIG    1      -33.812  69.491  26.098  0.00  0.00    +0.032 C 
ATOM     14  C   LIG    1      -34.113  69.147  27.647  0.00  0.00    -0.004 C 
ATOM     15  C   LIG    1      -35.313  68.120  27.330  0.00  0.00    +0.032 C 
ATOM     16  C   LIG    1      -35.242  70.224  27.461  0.00  0.00    +0.032 C 
ENDBRANCH   6  12
BRANCH   3  17
ATOM     17  N   LIG    1      -35.122  66.792  21.674  0.00  0.00    -0.327 N 
ATOM     18  H   LIG    1      -35.133  66.918  20.670  0.00  0.00    +0.145 HD
ATOM     19  H   LIG    1      -34.216  66.769  22.121  0.00  0.00    +0.145 HD
ENDBRANCH   3  17
ENDBRANCH   1   8
BRANCH   1  20
ATOM     20  C   LIG    1      -39.240  72.789  24.344  0.00  0.00    +0.042 A 
ATOM     21  C   LIG    1      -38.122  73.400  24.933  0.00  0.00    +0.038 A 
ATOM     22  C   LIG    1      -38.084  74.797  25.077  0.00  0.00    +0.052 A 
ATOM     23  C   LIG    1      -39.175  75.522  24.611  0.00  0.00    +0.134 A 
ATOM     24  N   LIG    1      -40.272  74.963  24.049  0.00  0.00    -0.261 NA
ATOM     25  C   LIG    1      -40.287  73.617  23.955  0.00  0.00    +0.122 A 
BRANCH  22  26
ATOM     26  N   LIG    1      -36.960  75.391  25.677  0.00  0.00    -0.284 N 
ATOM     27  H   LIG    1      -36.160  75.568  25.066  0.00  0.00    +0.155 HD
ATOM     28  C   LIG    1      -36.722  75.628  27.021  0.00  0.00    +0.223 C 
ATOM     29  O   LIG    1      -37.520  75.390  27.928  0.00  0.00    -0.275 OA
BRANCH  28  30
ATOM     30  C   LIG    1      -35.398  76.329  27.347  0.00  0.00    +0.151 C 
BRANCH  30  31
ATOM     31  C   LIG    1      -34.342  75.464  27.998  0.00  0.00    +0.050 A 
ATOM     32  N   LIG    1      -33.357  76.104  28.686  0.00  0.00    -0.257 NA
ATOM     33  C   LIG    1      -32.374  75.364  29.242  0.00  0.00    +0.149 A 
ATOM     34  C   LIG    1      -32.360  73.990  29.200  0.00  0.00    +0.141 A 
ATOM     35  F   LIG    1      -31.369  73.306  29.782  0.00  0.00    -0.204 F 
ATOM     36  C   LIG    1      -33.392  73.331  28.550  0.00  0.00    +0.041 A 
ATOM     37  C   LIG    1      -34.402  74.074  27.934  0.00  0.00    +0.026 A 
ENDBRANCH  30  31
ENDBRANCH  28  30
ENDBRANCH  22  26
ENDBRANCH   1  20
TORSDOF 7
ENDMDL
MODEL 4
REMARK VINA RESULT:      -6.2      1.819      3.682
REMARK  Name = pdb/CHEMBL3671461.pdb
REMARK                            x       y       z     vdW  Elec       q    Type
REMARK                         _______ _______ _______ _____ _____    ______ ____
ROOT
ATOM      1  C   LIG    1      -34.718  73.378  29.783  0.00  0.00    +0.197 C 
ATOM      2  O   LIG    1      -35.109  73.443  30.953  0.00  0.00    -0.287 OA
ENDROOT
BRANCH   1   8
ATOM      3  C   LIG    1      -33.088  77.590  27.013  0.00  0.00    +0.214 A 
ATOM      4  N   LIG    1      -34.373  77.332  26.780  0.00  0.00    -0.197 NA
ATOM      5  C   LIG    1      -34.831  76.260  27.442  0.00  0.00    +0.147 A 
ATOM      6  N   LIG    1      -36.100  75.759  27.376  0.00  0.00    -0.325 N 
ATOM      7  C   LIG    1      -36.242  74.713  28.243  0.00  0.00    +0.100 A 
ATOM      8  C   LIG    1      -35.004  74.448  28.822  0.00  0.00    +0.051 A 
ATOM      9  C   LIG    1      -34.111  75.456  28.317  0.00  0.00    +0.048 A 
ATOM     10  C   LIG    1      -32.772  75.806  28.474  0.00  0.00    +0.126 A 
ATOM     11  N   LIG    1      -32.276  76.888  27.818  0.00  0.00    -0.222 NA
BRANCH   6  12
ATOM     12  C   LIG    1      -37.112  76.232  26.539  0.00  0.00    +0.048 C 
ATOM     13  C   LIG    1      -37.292  75.988  24.999  0.00  0.00    +0.032 C 
ATOM     14  C   LIG    1      -38.665  76.628  25.558  0.00  0.00    -0.004 C 
ATOM     15  C   LIG    1      -37.947  77.548  26.669  0.00  0.00    +0.032 C 
ATOM     16  C   LIG    1      -38.506  75.513  26.655  0.00  0.00    +0.032 C 
ENDBRANCH   6  12
BRANCH   3  17
ATOM     17  N   LIG    1      -32.568  78.726  26.422  0.00  0.00    -0.327 N 
ATOM     18  H   LIG    1      -31.869  79.126  27.034  0.00  0.00    +0.145 HD
ATOM     19  H   LIG    1      -32.277  78.507  25.479  0.00  0.00    +0.145 HD
ENDBRANCH   3  17
ENDBRANCH   1   8
BRANCH   1  20
ATOM     20  C   LIG    1      -33.936  72.186  29.353  0.00  0.00    +0.042 A 
ATOM     21  C   LIG    1      -34.467  71.219  28.487  0.00  0.00    +0.038 A 
ATOM     22  C   LIG    1      -33.694  70.102  28.127  0.00  0.00    +0.052 A 
ATOM     23  C   LIG    1      -32.410  70.013  28.651  0.00  0.00    +0.134 A 
ATOM     24  N   LIG    1      -31.872  70.921  29.497  0.00  0.00    -0.261 NA
ATOM     25  C   LIG    1      -32.654  71.965  29.845  0.00  0.00    +0.122 A 
BRANCH  22  26
ATOM     26  N   LIG    1      -34.246  69.139  27.264  0.00  0.00    -0.284 N 
ATOM     27  H   LIG    1      -34.629  68.300  27.707  0.00  0.00    +0.155 HD
ATOM     28  C   LIG    1      -34.203  69.091  25.881  0.00  0.00    +0.223 C 
ATOM     29  O   LIG    1      -33.696  69.954  25.165  0.00  0.00    -0.275 OA
BRANCH  28  30
ATOM     30  C   LIG    1      -34.939  67.912  25.234  0.00  0.00    +0.151 C 
BRANCH  30  31
ATOM     31  C   LIG    1      -35.777  68.250  24.021  0.00  0.00    +0.050 A 
ATOM     32  N   LIG    1      -36.659  69.279  24.147  0.00  0.00    -0.257 NA
ATOM     33  C   LIG    1      -37.455  69.578  23.098  0.00  0.00    +0.149 A 
ATOM     34  C   LIG    1      -37.367  68.933  21.887  0.00  0.00    +0.141 A 
ATOM     35  F   LIG    1      -38.170  69.281  20.876  0.00  0.00    -0.204 F 
ATOM     36  C   LIG    1      -36.430  67.922  21.735  0.00  0.00    +0.041 A 
ATOM     37  C   LIG    1      -35.620  67.567  22.817  0.00  0.00    +0.026 A 
ENDBRANCH  30  31
ENDBRANCH  28  30
ENDBRANCH  22  26
ENDBRANCH   1  20
TORSDOF 7
ENDMDL
MODEL 5
REMARK VINA RESULT:      -6.1      3.190      9.279
REMARK  Name = pdb/CHEMBL3671461.pdb
REMARK                            x       y       z     vdW  Elec       q    Type
REMARK                         _______ _______ _______ _____ _____    ______ ____
ROOT
ATOM      1  C   LIG    1      -39.580  72.836  25.242  0.00  0.00    +0.197 C 
ATOM      2  O   LIG    1      -40.637  72.675  25.862  0.00  0.00    -0.287 OA
ENDROOT
BRANCH   1   8
ATOM      3  C   LIG    1      -35.449  69.524  25.408  0.00  0.00    +0.214 A 
ATOM      4  N   LIG    1      -36.231  69.260  24.364  0.00  0.00    -0.197 NA
ATOM      5  C   LIG    1      -37.306  70.059  24.288  0.00  0.00    +0.147 A 
ATOM      6  N   LIG    1      -38.282  70.000  23.334  0.00  0.00    -0.325 N 
ATOM      7  C   LIG    1      -39.180  71.015  23.511  0.00  0.00    +0.100 A 
ATOM      8  C   LIG    1      -38.846  71.700  24.676  0.00  0.00    +0.051 A 
ATOM      9  C   LIG    1      -37.634  71.093  25.156  0.00  0.00    +0.048 A 
ATOM     10  C   LIG    1      -36.755  71.270  26.222  0.00  0.00    +0.126 A 
ATOM     11  N   LIG    1      -35.656  70.478  26.328  0.00  0.00    -0.222 NA
BRANCH   6  12
ATOM     12  C   LIG    1      -38.368  69.039  22.325  0.00  0.00    +0.048 C 
ATOM     13  C   LIG    1      -38.754  67.524  22.456  0.00  0.00    +0.032 C 
ATOM     14  C   LIG    1      -38.775  67.901  20.886  0.00  0.00    -0.004 C 
ATOM     15  C   LIG    1      -37.569  68.964  20.982  0.00  0.00    +0.032 C 
ATOM     16  C   LIG    1      -39.633  69.117  21.393  0.00  0.00    +0.032 C 
ENDBRANCH   6  12
BRANCH   3  17
ATOM     17  N   LIG    1      -34.282  68.789  25.507  0.00  0.00    -0.327 N 
ATOM     18  H   LIG    1      -34.251  68.342  26.414  0.00  0.00    +0.145 HD
ATOM     19  H   LIG    1      -34.199  68.188  24.699  0.00  0.00    +0.145 HD
ENDBRANCH   3  17
ENDBRANCH   1   8
BRANCH   1  20
ATOM     20  C   LIG    1      -39.056  74.219  25.067  0.00  0.00    +0.042 A 
ATOM     21  C   LIG    1      -37.847  74.636  25.644  0.00  0.00    +0.038 A 
ATOM     22  C   LIG    1      -37.405  75.957  25.465  0.00  0.00    +0.052 A 
ATOM     23  C   LIG    1      -38.200  76.803  24.700  0.00  0.00    +0.134 A 
ATOM     24  N   LIG    1      -39.376  76.437  24.140  0.00  0.00    -0.261 NA
ATOM     25  C   LIG    1      -39.783  75.169  24.358  0.00  0.00    +0.122 A 
BRANCH  22  26
ATOM     26  N   LIG    1      -36.195  76.359  26.058  0.00  0.00    -0.284 N 
ATOM     27  H   LIG    1      -35.342  76.154  25.532  0.00  0.00    +0.155 HD
ATOM     28  C   LIG    1      -35.980  76.855  27.333  0.00  0.00    +0.223 C 
ATOM     29  O   LIG    1      -36.866  77.077  28.158  0.00  0.00    -0.275 OA
BRANCH  28  30
ATOM     30  C   LIG    1      -34.532  77.234  27.663  0.00  0.00    +0.151 C 
BRANCH  30  31
ATOM     31  C   LIG    1      -33.680  76.124  28.238  0.00  0.00    +0.050 A 
ATOM     32  N   LIG    1      -34.085  74.847  27.997  0.00  0.00    -0.257 NA
ATOM     33  C   LIG    1      -33.372  73.833  28.534  0.00  0.00    +0.149 A 
ATOM     34  C   LIG    1      -32.219  74.031  29.255  0.00  0.00    +0.141 A 
ATOM     35  F   LIG    1      -31.544  72.989  29.750  0.00  0.00    -0.204 F 
ATOM     36  C   LIG    1      -31.770  75.328  29.453  0.00  0.00    +0.041 A 
ATOM     37  C   LIG    1      -32.509  76.398  28.942  0.00  0.00    +0.026 A 
ENDBRANCH  30  31
ENDBRANCH  28  30
ENDBRANCH  22  26
ENDBRANCH   1  20
TORSDOF 7
ENDMDL
MODEL 6
REMARK VINA RESULT:      -6.0      4.009      7.730
REMARK  Name = pdb/CHEMBL3671461.pdb
REMARK                            x       y       z     vdW  Elec       q    Type
REMARK                         _______ _______ _______ _____ _____    ______ ____
ROOT
ATOM      1  C   LIG    1      -33.714  74.329  30.161  0.00  0.00    +0.197 C 
ATOM      2  O   LIG    1      -34.070  74.619  31.309  0.00  0.00    -0.287 OA
ENDROOT
BRANCH   1   8
ATOM      3  C   LIG    1      -29.800  70.760  30.064  0.00  0.00    +0.214 A 
ATOM      4  N   LIG    1      -30.914  70.263  29.529  0.00  0.00    -0.197 NA
ATOM      5  C   LIG    1      -31.944  71.122  29.549  0.00  0.00    +0.147 A 
ATOM      6  N   LIG    1      -33.204  70.872  29.085  0.00  0.00    -0.325 N 
ATOM      7  C   LIG    1      -33.976  71.995  29.184  0.00  0.00    +0.100 A 
ATOM      8  C   LIG    1      -33.237  72.984  29.827  0.00  0.00    +0.051 A 
ATOM      9  C   LIG    1      -31.931  72.421  30.040  0.00  0.00    +0.048 A 
ATOM     10  C   LIG    1      -30.719  72.832  30.591  0.00  0.00    +0.126 A 
ATOM     11  N   LIG    1      -29.655  71.987  30.587  0.00  0.00    -0.222 NA
BRANCH   6  12
ATOM     12  C   LIG    1      -33.654  69.647  28.590  0.00  0.00    +0.048 C 
ATOM     13  C   LIG    1      -33.870  68.303  29.371  0.00  0.00    +0.032 C 
ATOM     14  C   LIG    1      -34.567  68.145  27.924  0.00  0.00    -0.004 C 
ATOM     15  C   LIG    1      -33.488  69.059  27.150  0.00  0.00    +0.032 C 
ATOM     16  C   LIG    1      -35.195  69.538  28.294  0.00  0.00    +0.032 C 
ENDBRANCH   6  12
BRANCH   3  17
ATOM     17  N   LIG    1      -28.677  69.956  30.009  0.00  0.00    -0.327 N 
ATOM     18  H   LIG    1      -27.862  70.538  29.864  0.00  0.00    +0.145 HD
ATOM     19  H   LIG    1      -28.664  69.347  30.816  0.00  0.00    +0.145 HD
ENDBRANCH   3  17
ENDBRANCH   1   8
BRANCH   1  20
ATOM     20  C   LIG    1      -33.781  75.376  29.104  0.00  0.00    +0.042 A 
ATOM     21  C   LIG    1      -34.848  75.450  28.197  0.00  0.00    +0.038 A 
ATOM     22  C   LIG    1      -34.855  76.445  27.205  0.00  0.00    +0.052 A 
ATOM     23  C   LIG    1      -33.785  77.333  27.176  0.00  0.00    +0.134 A 
ATOM     24  N   LIG    1      -32.736  77.281  28.028  0.00  0.00    -0.261 NA
ATOM     25  C   LIG    1      -32.748  76.294  28.948  0.00  0.00    +0.122 A 
BRANCH  22  26
ATOM     26  N   LIG    1      -35.929  76.499  26.299  0.00  0.00    -0.284 N 
ATOM     27  H   LIG    1      -35.695  76.390  25.310  0.00  0.00    +0.155 HD
ATOM     28  C   LIG    1      -37.250  76.841  26.543  0.00  0.00    +0.223 C 
ATOM     29  O   LIG    1      -37.711  77.109  27.652  0.00  0.00    -0.275 OA
BRANCH  28  30
ATOM     30  C   LIG    1      -38.188  76.769  25.333  0.00  0.00    +0.151 C 
BRANCH  30  31
ATOM     31  C   LIG    1      -38.659  75.384  24.951  0.00  0.00    +0.050 A 
ATOM     32  N   LIG    1      -37.894  74.336  25.362  0.00  0.00    -0.257 NA
ATOM     33  C   LIG    1      -38.262  73.089  25.000  0.00  0.00    +0.149 A 
ATOM     34  C   LIG    1      -39.410  72.825  24.292  0.00  0.00    +0.141 A 
ATOM     35  F   LIG    1      -39.735  71.568  23.974  0.00  0.00    -0.204 F 
ATOM     36  C   LIG    1      -40.224  73.885  23.920  0.00  0.00    +0.041 A 
ATOM     37  C   LIG    1      -39.847  75.189  24.249  0.00  0.00    +0.026 A 
ENDBRANCH  30  31
ENDBRANCH  28  30
ENDBRANCH  22  26
ENDBRANCH   1  20
TORSDOF 7
ENDMDL
MODEL 7
REMARK VINA RESULT:      -6.0      4.094      7.151
REMARK  Name = pdb/CHEMBL3671461.pdb
REMARK                            x       y       z     vdW  Elec       q    Type
REMARK                         _______ _______ _______ _____ _____    ______ ____
ROOT
ATOM      1  C   LIG    1      -33.490  76.477  27.511  0.00  0.00    +0.197 C 
ATOM      2  O   LIG    1      -32.682  77.057  26.777  0.00  0.00    -0.287 OA
ENDROOT
BRANCH   1   8
ATOM      3  C   LIG    1      -30.362  74.329  31.209  0.00  0.00    +0.214 A 
ATOM      4  N   LIG    1      -31.217  73.430  30.724  0.00  0.00    -0.197 NA
ATOM      5  C   LIG    1      -32.048  73.930  29.798  0.00  0.00    +0.147 A 
ATOM      6  N   LIG    1      -33.033  73.240  29.149  0.00  0.00    -0.325 N 
ATOM      7  C   LIG    1      -33.629  74.035  28.212  0.00  0.00    +0.100 A 
ATOM      8  C   LIG    1      -33.094  75.316  28.315  0.00  0.00    +0.051 A 
ATOM      9  C   LIG    1      -32.070  75.234  29.320  0.00  0.00    +0.048 A 
ATOM     10  C   LIG    1      -31.144  76.093  29.908  0.00  0.00    +0.126 A 
ATOM     11  N   LIG    1      -30.287  75.619  30.849  0.00  0.00    -0.222 NA
BRANCH   6  12
ATOM     12  C   LIG    1      -33.396  71.917  29.407  0.00  0.00    +0.048 C 
ATOM     13  C   LIG    1      -34.359  71.373  30.520  0.00  0.00    +0.032 C 
ATOM     14  C   LIG    1      -34.083  70.169  29.480  0.00  0.00    -0.004 C 
ATOM     15  C   LIG    1      -32.569  70.614  29.152  0.00  0.00    +0.032 C 
ATOM     16  C   LIG    1      -34.434  71.272  28.416  0.00  0.00    +0.032 C 
ENDBRANCH   6  12
BRANCH   3  17
ATOM     17  N   LIG    1      -29.426  73.865  32.114  0.00  0.00    -0.327 N 
ATOM     18  H   LIG    1      -28.686  73.394  31.609  0.00  0.00    +0.145 HD
ATOM     19  H   LIG    1      -29.152  74.621  32.725  0.00  0.00    +0.145 HD
ENDBRANCH   3  17
ENDBRANCH   1   8
BRANCH   1  20
ATOM     20  C   LIG    1      -34.889  76.983  27.578  0.00  0.00    +0.042 A 
ATOM     21  C   LIG    1      -35.926  76.404  26.832  0.00  0.00    +0.038 A 
ATOM     22  C   LIG    1      -37.226  76.931  26.915  0.00  0.00    +0.052 A 
ATOM     23  C   LIG    1      -37.427  78.017  27.760  0.00  0.00    +0.134 A 
ATOM     24  N   LIG    1      -36.447  78.605  28.483  0.00  0.00    -0.261 NA
ATOM     25  C   LIG    1      -35.206  78.092  28.355  0.00  0.00    +0.122 A 
BRANCH  22  26
ATOM     26  N   LIG    1      -38.251  76.343  26.153  0.00  0.00    -0.284 N 
ATOM     27  H   LIG    1      -38.839  75.659  26.634  0.00  0.00    +0.155 HD
ATOM     28  C   LIG    1      -38.481  76.442  24.791  0.00  0.00    +0.223 C 
ATOM     29  O   LIG    1      -37.821  77.135  24.017  0.00  0.00    -0.275 OA
BRANCH  28  30
ATOM     30  C   LIG    1      -39.716  75.698  24.270  0.00  0.00    +0.151 C 
BRANCH  30  31
ATOM     31  C   LIG    1      -39.610  74.190  24.246  0.00  0.00    +0.050 A 
ATOM     32  N   LIG    1      -38.476  73.643  24.764  0.00  0.00    -0.257 NA
ATOM     33  C   LIG    1      -38.329  72.301  24.718  0.00  0.00    +0.149 A 
ATOM     34  C   LIG    1      -39.302  71.460  24.233  0.00  0.00    +0.141 A 
ATOM     35  F   LIG    1      -39.111  70.137  24.227  0.00  0.00    -0.204 F 
ATOM     36  C   LIG    1      -40.484  72.009  23.758  0.00  0.00    +0.041 A 
ATOM     37  C   LIG    1      -40.646  73.397  23.759  0.00  0.00    +0.026 A 
ENDBRANCH  30  31
ENDBRANCH  28  30
ENDBRANCH  22  26
ENDBRANCH   1  20
TORSDOF 7
ENDMDL
MODEL 8
REMARK VINA RESULT:      -5.9      3.519      5.520
REMARK  Name = pdb/CHEMBL3671461.pdb
REMARK                            x       y       z     vdW  Elec       q    Type
REMARK                         _______ _______ _______ _____ _____    ______ ____
ROOT
ATOM      1  C   LIG    1      -33.748  71.459  29.182  0.00  0.00    +0.197 C 
ATOM      2  O   LIG    1      -33.615  70.789  30.212  0.00  0.00    -0.287 OA
ENDROOT
BRANCH   1   8
ATOM      3  C   LIG    1      -30.764  75.678  30.348  0.00  0.00    +0.214 A 
ATOM      4  N   LIG    1      -31.924  76.047  29.809  0.00  0.00    -0.197 NA
ATOM      5  C   LIG    1      -32.710  75.013  29.475  0.00  0.00    +0.147 A 
ATOM      6  N   LIG    1      -33.942  75.099  28.890  0.00  0.00    -0.325 N 
ATOM      7  C   LIG    1      -34.495  73.856  28.768  0.00  0.00    +0.100 A 
ATOM      8  C   LIG    1      -33.561  72.913  29.189  0.00  0.00    +0.051 A 
ATOM      9  C   LIG    1      -32.428  73.665  29.657  0.00  0.00    +0.048 A 
ATOM     10  C   LIG    1      -31.180  73.392  30.213  0.00  0.00    +0.126 A 
ATOM     11  N   LIG    1      -30.360  74.417  30.564  0.00  0.00    -0.222 NA
BRANCH   6  12
ATOM     12  C   LIG    1      -34.552  76.279  28.463  0.00  0.00    +0.048 C 
ATOM     13  C   LIG    1      -34.054  77.291  27.373  0.00  0.00    +0.032 C 
ATOM     14  C   LIG    1      -35.587  77.661  27.722  0.00  0.00    -0.004 C 
ATOM     15  C   LIG    1      -35.481  77.243  29.274  0.00  0.00    +0.032 C 
ATOM     16  C   LIG    1      -35.799  76.117  27.518  0.00  0.00    +0.032 C 
ENDBRANCH   6  12
BRANCH   3  17
ATOM     17  N   LIG    1      -29.935  76.694  30.786  0.00  0.00    -0.327 N 
ATOM     18  H   LIG    1      -29.029  76.592  30.348  0.00  0.00    +0.145 HD
ATOM     19  H   LIG    1      -30.403  77.582  30.663  0.00  0.00    +0.145 HD
ENDBRANCH   3  17
ENDBRANCH   1   8
BRANCH   1  20
ATOM     20  C   LIG    1      -34.099  70.762  27.914  0.00  0.00    +0.042 A 
ATOM     21  C   LIG    1      -35.163  71.183  27.103  0.00  0.00    +0.038 A 
ATOM     22  C   LIG    1      -35.465  70.479  25.925  0.00  0.00    +0.052 A 
ATOM     23  C   LIG    1      -34.671  69.382  25.609  0.00  0.00    +0.134 A 
ATOM     24  N   LIG    1      -33.646  68.944  26.374  0.00  0.00    -0.261 NA
ATOM     25  C   LIG    1      -33.404  69.626  27.514  0.00  0.00    +0.122 A 
BRANCH  22  26
ATOM     26  N   LIG    1      -36.541  70.910  25.129  0.00  0.00    -0.284 N 
ATOM     27  H   LIG    1      -36.321  71.591  24.399  0.00  0.00    +0.155 HD
ATOM     28  C   LIG    1      -37.894  70.663  25.296  0.00  0.00    +0.223 C 
ATOM     29  O   LIG    1      -38.372  69.951  26.178  0.00  0.00    -0.275 OA
BRANCH  28  30
ATOM     30  C   LIG    1      -38.815  71.256  24.224  0.00  0.00    +0.151 C 
BRANCH  30  31
ATOM     31  C   LIG    1      -39.070  72.743  24.331  0.00  0.00    +0.050 A 
ATOM     32  N   LIG    1      -38.068  73.506  24.847  0.00  0.00    -0.257 NA
ATOM     33  C   LIG    1      -38.279  74.831  24.997  0.00  0.00    +0.149 A 
ATOM     34  C   LIG    1      -39.436  75.454  24.591  0.00  0.00    +0.141 A 
ATOM     35  F   LIG    1      -39.585  76.773  24.750  0.00  0.00    -0.204 F 
ATOM     36  C   LIG    1      -40.437  74.690  24.011  0.00  0.00    +0.041 A 
ATOM     37  C   LIG    1      -40.259  73.310  23.878  0.00  0.00    +0.026 A 
ENDBRANCH  30  31
ENDBRANCH  28  30
ENDBRANCH  22  26
ENDBRANCH   1  20
TORSDOF 7
ENDMDL
MODEL 9
REMARK VINA RESULT:      -5.9      8.042     11.158
REMARK  Name = pdb/CHEMBL3671461.pdb
REMARK                            x       y       z     vdW  Elec       q    Type
REMARK                         _______ _______ _______ _____ _____    ______ ____
ROOT
ATOM      1  C   LIG    1      -39.785  83.010  22.692  0.00  0.00    +0.197 C 
ATOM      2  O   LIG    1      -40.129  82.907  21.509  0.00  0.00    -0.287 OA
ENDROOT
BRANCH   1   8
ATOM      3  C   LIG    1      -35.814  85.066  25.533  0.00  0.00    +0.214 A 
ATOM      4  N   LIG    1      -36.542  86.025  24.966  0.00  0.00    -0.197 NA
ATOM      5  C   LIG    1      -37.551  85.556  24.216  0.00  0.00    +0.147 A 
ATOM      6  N   LIG    1      -38.442  86.312  23.508  0.00  0.00    -0.325 N 
ATOM      7  C   LIG    1      -39.385  85.512  22.928  0.00  0.00    +0.100 A 
ATOM      8  C   LIG    1      -39.049  84.183  23.173  0.00  0.00    +0.051 A 
ATOM      9  C   LIG    1      -37.883  84.222  24.014  0.00  0.00    +0.048 A 
ATOM     10  C   LIG    1      -37.044  83.303  24.640  0.00  0.00    +0.126 A 
ATOM     11  N   LIG    1      -36.014  83.745  25.408  0.00  0.00    -0.222 NA
BRANCH   6  12
ATOM     12  C   LIG    1      -38.398  87.701  23.378  0.00  0.00    +0.048 C 
ATOM     13  C   LIG    1      -37.275  88.581  22.725  0.00  0.00    +0.032 C 
ATOM     14  C   LIG    1      -38.566  89.524  22.954  0.00  0.00    -0.004 C 
ATOM     15  C   LIG    1      -39.038  88.785  24.306  0.00  0.00    +0.032 C 
ATOM     16  C   LIG    1      -39.317  88.327  22.265  0.00  0.00    +0.032 C 
ENDBRANCH   6  12
BRANCH   3  17
ATOM     17  N   LIG    1      -34.803  85.478  26.381  0.00  0.00    -0.327 N 
ATOM     18  H   LIG    1      -34.076  84.774  26.394  0.00  0.00    +0.145 HD
ATOM     19  H   LIG    1      -34.525  86.417  26.135  0.00  0.00    +0.145 HD
ENDBRANCH   3  17
ENDBRANCH   1   8
BRANCH   1  20
ATOM     20  C   LIG    1      -40.138  81.917  23.639  0.00  0.00    +0.042 A 
ATOM     21  C   LIG    1      -39.493  80.671  23.612  0.00  0.00    +0.038 A 
ATOM     22  C   LIG    1      -39.877  79.665  24.515  0.00  0.00    +0.052 A 
ATOM     23  C   LIG    1      -40.892  79.964  25.417  0.00  0.00    +0.134 A 
ATOM     24  N   LIG    1      -41.541  81.150  25.462  0.00  0.00    -0.261 NA
ATOM     25  C   LIG    1      -41.167  82.081  24.560  0.00  0.00    +0.122 A 
BRANCH  22  26
ATOM     26  N   LIG    1      -39.226  78.420  24.468  0.00  0.00    -0.284 N 
ATOM     27  H   LIG    1      -39.278  77.914  23.581  0.00  0.00    +0.155 HD
ATOM     28  C   LIG    1      -38.654  77.703  25.506  0.00  0.00    +0.223 C 
ATOM     29  O   LIG    1      -38.582  78.094  26.671  0.00  0.00    -0.275 OA
BRANCH  28  30
ATOM     30  C   LIG    1      -37.988  76.380  25.112  0.00  0.00    +0.151 C 
BRANCH  30  31
ATOM     31  C   LIG    1      -38.926  75.289  24.646  0.00  0.00    +0.050 A 
ATOM     32  N   LIG    1      -40.090  75.684  24.061  0.00  0.00    -0.257 NA
ATOM     33  C   LIG    1      -40.970  74.735  23.673  0.00  0.00    +0.149 A 
ATOM     34  C   LIG    1      -40.713  73.390  23.783  0.00  0.00    +0.141 A 
ATOM     35  F   LIG    1      -41.615  72.493  23.368  0.00  0.00    -0.204 F 
ATOM     36  C   LIG    1      -39.504  72.982  24.325  0.00  0.00    +0.041 A 
ATOM     37  C   LIG    1      -38.591  73.942  24.769  0.00  0.00    +0.026 A 
ENDBRANCH  30  31
ENDBRANCH  28  30
ENDBRANCH  22  26
ENDBRANCH   1  20
TORSDOF 7
ENDMDL
