MODEL 1
REMARK VINA RESULT:      -6.2      0.000      0.000
REMARK  Name = pdb/CHEMBL3675970.pdb
REMARK                            x       y       z     vdW  Elec       q    Type
REMARK                         _______ _______ _______ _____ _____    ______ ____
ROOT
ATOM      1  C   LIG    1      -24.738  77.685  32.273  0.00  0.00    +0.101 A 
ATOM      2  C   LIG    1      -23.481  77.480  31.730  0.00  0.00    +0.170 A 
ATOM      3  N   LIG    1      -22.215  77.526  32.270  0.00  0.00    -0.212 NA
ATOM      4  C   LIG    1      -21.194  77.249  31.479  0.00  0.00    +0.126 A 
ATOM      5  C   LIG    1      -21.387  76.953  30.007  0.00  0.00    +0.063 A 
ATOM      6  C   LIG    1      -22.636  76.934  29.536  0.00  0.00    +0.118 A 
ATOM      7  N   LIG    1      -23.700  77.172  30.384  0.00  0.00    -0.221 N 
ATOM      8  N   LIG    1      -25.012  77.142  30.065  0.00  0.00    -0.173 NA
ATOM      9  C   LIG    1      -25.630  77.434  31.208  0.00  0.00    +0.150 A 
ENDROOT
BRANCH   4  10
ATOM     10  N   LIG    1      -19.908  77.231  32.002  0.00  0.00    -0.308 N 
ATOM     11  C   LIG    1      -19.142  78.447  32.313  0.00  0.00    +0.107 C 
ATOM     12  C   LIG    1      -17.687  77.991  32.120  0.00  0.00    +0.029 C 
ATOM     13  C   LIG    1      -17.706  76.542  32.578  0.00  0.00    +0.021 C 
ATOM     14  C   LIG    1      -19.052  76.044  32.068  0.00  0.00    +0.107 C 
BRANCH  11  15
ATOM     15  C   LIG    1      -19.411  78.953  33.716  0.00  0.00    -0.006 A 
ATOM     16  C   LIG    1      -20.458  79.830  34.025  0.00  0.00    +0.046 A 
ATOM     17  C   LIG    1      -20.641  80.264  35.329  0.00  0.00    +0.142 A 
ATOM     18  F   LIG    1      -21.647  81.095  35.622  0.00  0.00    -0.204 F 
ATOM     19  C   LIG    1      -19.775  79.822  36.309  0.00  0.00    +0.149 A 
ATOM     20  N   LIG    1      -18.762  78.957  36.069  0.00  0.00    -0.260 NA
ATOM     21  C   LIG    1      -18.620  78.534  34.787  0.00  0.00    +0.116 A 
ENDBRANCH  11  15
ENDBRANCH   4  10
BRANCH   1  24
ATOM     22  N   LIG    1      -24.144  78.750  34.310  0.00  0.00    -0.266 N 
ATOM     23  H   LIG    1      -23.254  78.854  33.844  0.00  0.00    +0.157 HD
ATOM     24  C   LIG    1      -25.130  78.075  33.617  0.00  0.00    +0.254 C 
ATOM     25  O   LIG    1      -26.249  77.808  34.016  0.00  0.00    -0.270 OA
BRANCH  22  30
ATOM     26  F   LIG    1      -24.703  80.839  39.348  0.00  0.00    -0.204 F 
ATOM     27  C   LIG    1      -24.560  80.314  38.126  0.00  0.00    +0.142 A 
ATOM     28  C   LIG    1      -25.091  80.941  37.017  0.00  0.00    +0.151 A 
ATOM     29  N   LIG    1      -24.976  80.457  35.758  0.00  0.00    -0.237 NA
ATOM     30  C   LIG    1      -24.310  79.305  35.582  0.00  0.00    +0.125 A 
ATOM     31  C   LIG    1      -23.739  78.623  36.654  0.00  0.00    +0.046 A 
ATOM     32  C   LIG    1      -23.869  79.131  37.946  0.00  0.00    +0.043 A 
ENDBRANCH  22  30
ENDBRANCH   1  24
TORSDOF 4
ENDMDL
MODEL 2
REMARK VINA RESULT:      -6.1      2.820      5.055
REMARK  Name = pdb/CHEMBL3675970.pdb
REMARK                            x       y       z     vdW  Elec       q    Type
REMARK                         _______ _______ _______ _____ _____    ______ ____
ROOT
ATOM      1  C   LIG    1      -22.943  76.971  30.580  0.00  0.00    +0.101 A 
ATOM      2  C   LIG    1      -22.006  77.524  31.436  0.00  0.00    +0.170 A 
ATOM      3  N   LIG    1      -22.103  78.068  32.698  0.00  0.00    -0.212 NA
ATOM      4  C   LIG    1      -20.995  78.497  33.274  0.00  0.00    +0.126 A 
ATOM      5  C   LIG    1      -19.662  78.461  32.558  0.00  0.00    +0.063 A 
ATOM      6  C   LIG    1      -19.630  77.935  31.332  0.00  0.00    +0.118 A 
ATOM      7  N   LIG    1      -20.785  77.440  30.759  0.00  0.00    -0.221 N 
ATOM      8  N   LIG    1      -20.900  76.841  29.554  0.00  0.00    -0.173 NA
ATOM      9  C   LIG    1      -22.196  76.547  29.461  0.00  0.00    +0.150 A 
ENDROOT
BRANCH   4  10
ATOM     10  N   LIG    1      -21.047  78.999  34.567  0.00  0.00    -0.308 N 
ATOM     11  C   LIG    1      -21.902  80.127  34.966  0.00  0.00    +0.107 C 
ATOM     12  C   LIG    1      -21.116  80.755  36.128  0.00  0.00    +0.029 C 
ATOM     13  C   LIG    1      -20.468  79.560  36.805  0.00  0.00    +0.021 C 
ATOM     14  C   LIG    1      -20.093  78.667  35.629  0.00  0.00    +0.107 C 
BRANCH  11  15
ATOM     15  C   LIG    1      -23.290  79.679  35.378  0.00  0.00    -0.006 A 
ATOM     16  C   LIG    1      -23.689  78.338  35.385  0.00  0.00    +0.046 A 
ATOM     17  C   LIG    1      -24.980  77.998  35.762  0.00  0.00    +0.142 A 
ATOM     18  F   LIG    1      -25.356  76.714  35.776  0.00  0.00    -0.204 F 
ATOM     19  C   LIG    1      -25.858  79.000  36.122  0.00  0.00    +0.149 A 
ATOM     20  N   LIG    1      -25.516  80.310  36.154  0.00  0.00    -0.260 NA
ATOM     21  C   LIG    1      -24.241  80.610  35.800  0.00  0.00    +0.116 A 
ENDBRANCH  11  15
ENDBRANCH   4  10
BRANCH   1  24
ATOM     22  N   LIG    1      -24.770  76.345  31.962  0.00  0.00    -0.266 N 
ATOM     23  H   LIG    1      -24.030  76.094  32.601  0.00  0.00    +0.157 HD
ATOM     24  C   LIG    1      -24.383  76.828  30.727  0.00  0.00    +0.254 C 
ATOM     25  O   LIG    1      -25.113  77.143  29.805  0.00  0.00    -0.270 OA
BRANCH  22  30
ATOM     26  F   LIG    1      -29.966  75.665  33.574  0.00  0.00    -0.204 F 
ATOM     27  C   LIG    1      -28.698  75.815  33.174  0.00  0.00    +0.142 A 
ATOM     28  C   LIG    1      -28.063  77.036  33.267  0.00  0.00    +0.151 A 
ATOM     29  N   LIG    1      -26.783  77.245  32.879  0.00  0.00    -0.237 NA
ATOM     30  C   LIG    1      -26.098  76.207  32.375  0.00  0.00    +0.125 A 
ATOM     31  C   LIG    1      -26.672  74.943  32.260  0.00  0.00    +0.046 A 
ATOM     32  C   LIG    1      -27.993  74.743  32.660  0.00  0.00    +0.043 A 
ENDBRANCH  22  30
ENDBRANCH   1  24
TORSDOF 4
ENDMDL
MODEL 3
REMARK VINA RESULT:      -6.0     18.623     20.928
REMARK  Name = pdb/CHEMBL3675970.pdb
REMARK                            x       y       z     vdW  Elec       q    Type
REMARK                         _______ _______ _______ _____ _____    ______ ____
ROOT
ATOM      1  C   LIG    1      -36.085  67.099  19.141  0.00  0.00    +0.101 A 
ATOM      2  C   LIG    1      -34.896  67.079  18.432  0.00  0.00    +0.170 A 
ATOM      3  N   LIG    1      -33.576  67.066  18.828  0.00  0.00    -0.212 NA
ATOM      4  C   LIG    1      -32.649  67.019  17.889  0.00  0.00    +0.126 A 
ATOM      5  C   LIG    1      -33.005  67.047  16.418  0.00  0.00    +0.063 A 
ATOM      6  C   LIG    1      -34.300  67.072  16.094  0.00  0.00    +0.118 A 
ATOM      7  N   LIG    1      -35.263  67.066  17.083  0.00  0.00    -0.221 N 
ATOM      8  N   LIG    1      -36.602  67.044  16.911  0.00  0.00    -0.173 NA
ATOM      9  C   LIG    1      -37.089  67.047  18.150  0.00  0.00    +0.150 A 
ENDROOT
BRANCH   4  10
ATOM     10  N   LIG    1      -31.311  66.948  18.252  0.00  0.00    -0.308 N 
ATOM     11  C   LIG    1      -30.217  67.480  17.426  0.00  0.00    +0.107 C 
ATOM     12  C   LIG    1      -29.036  66.567  17.796  0.00  0.00    +0.029 C 
ATOM     13  C   LIG    1      -29.271  66.262  19.266  0.00  0.00    +0.021 C 
ATOM     14  C   LIG    1      -30.786  66.125  19.345  0.00  0.00    +0.107 C 
BRANCH  11  15
ATOM     15  C   LIG    1      -29.935  68.941  17.715  0.00  0.00    -0.006 A 
ATOM     16  C   LIG    1      -30.938  69.913  17.784  0.00  0.00    +0.046 A 
ATOM     17  C   LIG    1      -30.609  71.236  18.041  0.00  0.00    +0.142 A 
ATOM     18  F   LIG    1      -31.572  72.162  18.115  0.00  0.00    -0.204 F 
ATOM     19  C   LIG    1      -29.283  71.572  18.222  0.00  0.00    +0.149 A 
ATOM     20  N   LIG    1      -28.277  70.668  18.189  0.00  0.00    -0.260 NA
ATOM     21  C   LIG    1      -28.631  69.379  17.955  0.00  0.00    +0.116 A 
ENDBRANCH  11  15
ENDBRANCH   4  10
BRANCH   1  24
ATOM     22  N   LIG    1      -35.200  66.926  21.337  0.00  0.00    -0.266 N 
ATOM     23  H   LIG    1      -34.358  66.683  20.838  0.00  0.00    +0.157 HD
ATOM     24  C   LIG    1      -36.326  67.163  20.573  0.00  0.00    +0.254 C 
ATOM     25  O   LIG    1      -37.444  67.424  20.981  0.00  0.00    -0.270 OA
BRANCH  22  30
ATOM     26  F   LIG    1      -35.029  67.161  26.812  0.00  0.00    -0.204 F 
ATOM     27  C   LIG    1      -35.077  67.087  25.477  0.00  0.00    +0.142 A 
ATOM     28  C   LIG    1      -34.879  68.207  24.696  0.00  0.00    +0.151 A 
ATOM     29  N   LIG    1      -34.915  68.191  23.343  0.00  0.00    -0.237 NA
ATOM     30  C   LIG    1      -35.157  67.021  22.731  0.00  0.00    +0.125 A 
ATOM     31  C   LIG    1      -35.357  65.848  23.456  0.00  0.00    +0.046 A 
ATOM     32  C   LIG    1      -35.321  65.880  24.849  0.00  0.00    +0.043 A 
ENDBRANCH  22  30
ENDBRANCH   1  24
TORSDOF 4
ENDMDL
MODEL 4
REMARK VINA RESULT:      -6.0     14.177     16.968
REMARK  Name = pdb/CHEMBL3675970.pdb
REMARK                            x       y       z     vdW  Elec       q    Type
REMARK                         _______ _______ _______ _____ _____    ______ ____
ROOT
ATOM      1  C   LIG    1      -38.407  74.704  24.807  0.00  0.00    +0.101 A 
ATOM      2  C   LIG    1      -38.230  73.332  24.836  0.00  0.00    +0.170 A 
ATOM      3  N   LIG    1      -37.203  72.534  25.295  0.00  0.00    -0.212 NA
ATOM      4  C   LIG    1      -37.348  71.225  25.203  0.00  0.00    +0.126 A 
ATOM      5  C   LIG    1      -38.568  70.604  24.555  0.00  0.00    +0.063 A 
ATOM      6  C   LIG    1      -39.524  71.426  24.117  0.00  0.00    +0.118 A 
ATOM      7  N   LIG    1      -39.387  72.792  24.267  0.00  0.00    -0.221 N 
ATOM      8  N   LIG    1      -40.284  73.740  23.918  0.00  0.00    -0.173 NA
ATOM      9  C   LIG    1      -39.695  74.884  24.261  0.00  0.00    +0.150 A 
ENDROOT
BRANCH   4  10
ATOM     10  N   LIG    1      -36.360  70.390  25.705  0.00  0.00    -0.308 N 
ATOM     11  C   LIG    1      -35.011  70.854  26.062  0.00  0.00    +0.107 C 
ATOM     12  C   LIG    1      -34.148  69.603  25.827  0.00  0.00    +0.029 C 
ATOM     13  C   LIG    1      -35.069  68.459  26.216  0.00  0.00    +0.021 C 
ATOM     14  C   LIG    1      -36.425  68.927  25.704  0.00  0.00    +0.107 C 
BRANCH  11  15
ATOM     15  C   LIG    1      -34.933  71.353  27.491  0.00  0.00    -0.006 A 
ATOM     16  C   LIG    1      -34.008  72.314  27.916  0.00  0.00    +0.046 A 
ATOM     17  C   LIG    1      -33.984  72.717  29.242  0.00  0.00    +0.142 A 
ATOM     18  F   LIG    1      -33.104  73.642  29.644  0.00  0.00    -0.204 F 
ATOM     19  C   LIG    1      -34.878  72.155  30.130  0.00  0.00    +0.149 A 
ATOM     20  N   LIG    1      -35.808  71.240  29.767  0.00  0.00    -0.260 NA
ATOM     21  C   LIG    1      -35.821  70.879  28.459  0.00  0.00    +0.116 A 
ENDBRANCH  11  15
ENDBRANCH   4  10
BRANCH   1  24
ATOM     22  N   LIG    1      -36.951  75.580  26.466  0.00  0.00    -0.266 N 
ATOM     23  H   LIG    1      -37.247  74.759  26.972  0.00  0.00    +0.157 HD
ATOM     24  C   LIG    1      -37.517  75.777  25.221  0.00  0.00    +0.254 C 
ATOM     25  O   LIG    1      -37.329  76.720  24.475  0.00  0.00    -0.270 OA
BRANCH  22  30
ATOM     26  F   LIG    1      -33.107  78.794  28.693  0.00  0.00    -0.204 F 
ATOM     27  C   LIG    1      -34.035  77.995  28.151  0.00  0.00    +0.142 A 
ATOM     28  C   LIG    1      -35.310  78.457  27.898  0.00  0.00    +0.151 A 
ATOM     29  N   LIG    1      -36.286  77.696  27.352  0.00  0.00    -0.237 NA
ATOM     30  C   LIG    1      -35.996  76.423  27.041  0.00  0.00    +0.125 A 
ATOM     31  C   LIG    1      -34.727  75.891  27.260  0.00  0.00    +0.046 A 
ATOM     32  C   LIG    1      -33.732  76.686  27.827  0.00  0.00    +0.043 A 
ENDBRANCH  22  30
ENDBRANCH   1  24
TORSDOF 4
ENDMDL
MODEL 5
REMARK VINA RESULT:      -6.0      2.263      5.077
REMARK  Name = pdb/CHEMBL3675970.pdb
REMARK                            x       y       z     vdW  Elec       q    Type
REMARK                         _______ _______ _______ _____ _____    ______ ____
ROOT
ATOM      1  C   LIG    1      -18.553  78.497  33.441  0.00  0.00    +0.101 A 
ATOM      2  C   LIG    1      -19.375  77.963  32.464  0.00  0.00    +0.170 A 
ATOM      3  N   LIG    1      -20.745  77.858  32.354  0.00  0.00    -0.212 NA
ATOM      4  C   LIG    1      -21.237  77.307  31.260  0.00  0.00    +0.126 A 
ATOM      5  C   LIG    1      -20.338  76.743  30.180  0.00  0.00    +0.063 A 
ATOM      6  C   LIG    1      -19.019  76.862  30.346  0.00  0.00    +0.118 A 
ATOM      7  N   LIG    1      -18.515  77.488  31.469  0.00  0.00    -0.221 N 
ATOM      8  N   LIG    1      -17.216  77.722  31.751  0.00  0.00    -0.173 NA
ATOM      9  C   LIG    1      -17.247  78.344  32.929  0.00  0.00    +0.150 A 
ENDROOT
BRANCH   4  10
ATOM     10  N   LIG    1      -22.614  77.235  31.090  0.00  0.00    -0.308 N 
ATOM     11  C   LIG    1      -23.505  76.497  31.997  0.00  0.00    +0.107 C 
ATOM     12  C   LIG    1      -24.662  76.082  31.074  0.00  0.00    +0.029 C 
ATOM     13  C   LIG    1      -24.779  77.247  30.106  0.00  0.00    +0.021 C 
ATOM     14  C   LIG    1      -23.326  77.643  29.877  0.00  0.00    +0.107 C 
BRANCH  11  15
ATOM     15  C   LIG    1      -23.969  77.346  33.164  0.00  0.00    -0.006 A 
ATOM     16  C   LIG    1      -23.572  78.676  33.347  0.00  0.00    +0.046 A 
ATOM     17  C   LIG    1      -24.025  79.392  34.444  0.00  0.00    +0.142 A 
ATOM     18  F   LIG    1      -23.651  80.666  34.612  0.00  0.00    -0.204 F 
ATOM     19  C   LIG    1      -24.864  78.773  35.348  0.00  0.00    +0.149 A 
ATOM     20  N   LIG    1      -25.296  77.498  35.207  0.00  0.00    -0.260 NA
ATOM     21  C   LIG    1      -24.852  76.829  34.113  0.00  0.00    +0.116 A 
ENDBRANCH  11  15
ENDBRANCH   4  10
BRANCH   1  24
ATOM     22  N   LIG    1      -20.143  79.657  34.770  0.00  0.00    -0.266 N 
ATOM     23  H   LIG    1      -20.672  79.648  33.911  0.00  0.00    +0.157 HD
ATOM     24  C   LIG    1      -18.883  79.093  34.726  0.00  0.00    +0.254 C 
ATOM     25  O   LIG    1      -18.073  79.042  35.634  0.00  0.00    -0.270 OA
BRANCH  22  30
ATOM     26  F   LIG    1      -22.412  81.943  39.207  0.00  0.00    -0.204 F 
ATOM     27  C   LIG    1      -21.852  81.401  38.119  0.00  0.00    +0.142 A 
ATOM     28  C   LIG    1      -21.792  80.032  37.958  0.00  0.00    +0.151 A 
ATOM     29  N   LIG    1      -21.239  79.430  36.880  0.00  0.00    -0.237 NA
ATOM     30  C   LIG    1      -20.721  80.208  35.917  0.00  0.00    +0.125 A 
ATOM     31  C   LIG    1      -20.756  81.598  36.007  0.00  0.00    +0.046 A 
ATOM     32  C   LIG    1      -21.325  82.205  37.126  0.00  0.00    +0.043 A 
ENDBRANCH  22  30
ENDBRANCH   1  24
TORSDOF 4
ENDMDL
MODEL 6
REMARK VINA RESULT:      -6.0     14.760     18.628
REMARK  Name = pdb/CHEMBL3675970.pdb
REMARK                            x       y       z     vdW  Elec       q    Type
REMARK                         _______ _______ _______ _____ _____    ______ ____
ROOT
ATOM      1  C   LIG    1      -38.528  75.019  24.754  0.00  0.00    +0.101 A 
ATOM      2  C   LIG    1      -38.441  73.637  24.773  0.00  0.00    +0.170 A 
ATOM      3  N   LIG    1      -37.454  72.772  25.193  0.00  0.00    -0.212 NA
ATOM      4  C   LIG    1      -37.689  71.476  25.103  0.00  0.00    +0.126 A 
ATOM      5  C   LIG    1      -38.969  70.940  24.497  0.00  0.00    +0.063 A 
ATOM      6  C   LIG    1      -39.883  71.825  24.095  0.00  0.00    +0.118 A 
ATOM      7  N   LIG    1      -39.651  73.178  24.244  0.00  0.00    -0.221 N 
ATOM      8  N   LIG    1      -40.495  74.185  23.929  0.00  0.00    -0.173 NA
ATOM      9  C   LIG    1      -39.821  75.286  24.254  0.00  0.00    +0.150 A 
ENDROOT
BRANCH   4  10
ATOM     10  N   LIG    1      -36.740  70.575  25.568  0.00  0.00    -0.308 N 
ATOM     11  C   LIG    1      -36.898  69.115  25.483  0.00  0.00    +0.107 C 
ATOM     12  C   LIG    1      -36.090  68.615  26.692  0.00  0.00    +0.029 C 
ATOM     13  C   LIG    1      -34.941  69.605  26.784  0.00  0.00    +0.021 C 
ATOM     14  C   LIG    1      -35.605  70.928  26.423  0.00  0.00    +0.107 C 
BRANCH  11  15
ATOM     15  C   LIG    1      -36.385  68.557  24.170  0.00  0.00    -0.006 A 
ATOM     16  C   LIG    1      -37.073  68.697  22.960  0.00  0.00    +0.046 A 
ATOM     17  C   LIG    1      -36.553  68.150  21.796  0.00  0.00    +0.142 A 
ATOM     18  F   LIG    1      -37.209  68.293  20.639  0.00  0.00    -0.204 F 
ATOM     19  C   LIG    1      -35.355  67.467  21.855  0.00  0.00    +0.149 A 
ATOM     20  N   LIG    1      -34.639  67.322  22.995  0.00  0.00    -0.260 NA
ATOM     21  C   LIG    1      -35.163  67.885  24.112  0.00  0.00    +0.116 A 
ENDBRANCH  11  15
ENDBRANCH   4  10
BRANCH   1  24
ATOM     22  N   LIG    1      -37.152  75.936  26.457  0.00  0.00    -0.266 N 
ATOM     23  H   LIG    1      -37.603  75.231  27.020  0.00  0.00    +0.157 HD
ATOM     24  C   LIG    1      -37.556  76.028  25.139  0.00  0.00    +0.254 C 
ATOM     25  O   LIG    1      -37.171  76.835  24.312  0.00  0.00    -0.270 OA
BRANCH  22  30
ATOM     26  F   LIG    1      -33.172  78.970  28.699  0.00  0.00    -0.204 F 
ATOM     27  C   LIG    1      -34.133  78.215  28.153  0.00  0.00    +0.142 A 
ATOM     28  C   LIG    1      -35.393  78.728  27.919  0.00  0.00    +0.151 A 
ATOM     29  N   LIG    1      -36.401  78.012  27.370  0.00  0.00    -0.237 NA
ATOM     30  C   LIG    1      -36.161  76.734  27.037  0.00  0.00    +0.125 A 
ATOM     31  C   LIG    1      -34.911  76.153  27.235  0.00  0.00    +0.046 A 
ATOM     32  C   LIG    1      -33.882  76.902  27.806  0.00  0.00    +0.043 A 
ENDBRANCH  22  30
ENDBRANCH   1  24
TORSDOF 4
ENDMDL
MODEL 7
REMARK VINA RESULT:      -5.9     12.804     16.565
REMARK  Name = pdb/CHEMBL3675970.pdb
REMARK                            x       y       z     vdW  Elec       q    Type
REMARK                         _______ _______ _______ _____ _____    ______ ____
ROOT
ATOM      1  C   LIG    1      -35.534  70.415  25.752  0.00  0.00    +0.101 A 
ATOM      2  C   LIG    1      -34.857  70.733  26.917  0.00  0.00    +0.170 A 
ATOM      3  N   LIG    1      -34.918  71.819  27.763  0.00  0.00    -0.212 NA
ATOM      4  C   LIG    1      -34.145  71.813  28.833  0.00  0.00    +0.126 A 
ATOM      5  C   LIG    1      -33.167  70.689  29.102  0.00  0.00    +0.063 A 
ATOM      6  C   LIG    1      -33.143  69.670  28.241  0.00  0.00    +0.118 A 
ATOM      7  N   LIG    1      -33.994  69.659  27.154  0.00  0.00    -0.221 N 
ATOM      8  N   LIG    1      -34.116  68.682  26.229  0.00  0.00    -0.173 NA
ATOM      9  C   LIG    1      -35.054  69.136  25.400  0.00  0.00    +0.150 A 
ENDROOT
BRANCH   4  10
ATOM     10  N   LIG    1      -34.220  72.865  29.737  0.00  0.00    -0.308 N 
ATOM     11  C   LIG    1      -33.152  73.859  29.916  0.00  0.00    +0.107 C 
ATOM     12  C   LIG    1      -33.317  74.274  31.387  0.00  0.00    +0.029 C 
ATOM     13  C   LIG    1      -34.818  74.205  31.609  0.00  0.00    +0.021 C 
ATOM     14  C   LIG    1      -35.224  72.981  30.798  0.00  0.00    +0.107 C 
BRANCH  11  15
ATOM     15  C   LIG    1      -33.289  75.029  28.963  0.00  0.00    -0.006 A 
ATOM     16  C   LIG    1      -34.397  75.208  28.127  0.00  0.00    +0.046 A 
ATOM     17  C   LIG    1      -34.453  76.295  27.269  0.00  0.00    +0.142 A 
ATOM     18  F   LIG    1      -35.517  76.468  26.477  0.00  0.00    -0.204 F 
ATOM     19  C   LIG    1      -33.401  77.189  27.252  0.00  0.00    +0.149 A 
ATOM     20  N   LIG    1      -32.318  77.076  28.056  0.00  0.00    -0.260 NA
ATOM     21  C   LIG    1      -32.300  76.013  28.898  0.00  0.00    +0.116 A 
ENDBRANCH  11  15
ENDBRANCH   4  10
BRANCH   1  24
ATOM     22  N   LIG    1      -37.120  72.182  25.731  0.00  0.00    -0.266 N 
ATOM     23  H   LIG    1      -36.859  72.253  26.702  0.00  0.00    +0.157 HD
ATOM     24  C   LIG    1      -36.521  71.173  25.001  0.00  0.00    +0.254 C 
ATOM     25  O   LIG    1      -36.731  70.893  23.834  0.00  0.00    -0.270 OA
BRANCH  22  30
ATOM     26  F   LIG    1      -40.786  75.689  23.650  0.00  0.00    -0.204 F 
ATOM     27  C   LIG    1      -39.899  74.820  24.150  0.00  0.00    +0.142 A 
ATOM     28  C   LIG    1      -38.770  75.257  24.811  0.00  0.00    +0.151 A 
ATOM     29  N   LIG    1      -37.842  74.424  25.337  0.00  0.00    -0.237 NA
ATOM     30  C   LIG    1      -38.032  73.102  25.205  0.00  0.00    +0.125 A 
ATOM     31  C   LIG    1      -39.154  72.589  24.559  0.00  0.00    +0.046 A 
ATOM     32  C   LIG    1      -40.100  73.459  24.018  0.00  0.00    +0.043 A 
ENDBRANCH  22  30
ENDBRANCH   1  24
TORSDOF 4
ENDMDL
MODEL 8
REMARK VINA RESULT:      -5.9     13.148     17.115
REMARK  Name = pdb/CHEMBL3675970.pdb
REMARK                            x       y       z     vdW  Elec       q    Type
REMARK                         _______ _______ _______ _____ _____    ______ ____
ROOT
ATOM      1  C   LIG    1      -38.037  76.298  25.696  0.00  0.00    +0.101 A 
ATOM      2  C   LIG    1      -38.377  75.008  25.328  0.00  0.00    +0.170 A 
ATOM      3  N   LIG    1      -37.825  73.780  25.621  0.00  0.00    -0.212 NA
ATOM      4  C   LIG    1      -38.411  72.704  25.127  0.00  0.00    +0.126 A 
ATOM      5  C   LIG    1      -39.612  72.804  24.211  0.00  0.00    +0.063 A 
ATOM      6  C   LIG    1      -40.096  74.020  23.952  0.00  0.00    +0.118 A 
ATOM      7  N   LIG    1      -39.509  75.135  24.517  0.00  0.00    -0.221 N 
ATOM      8  N   LIG    1      -39.911  76.418  24.386  0.00  0.00    -0.173 NA
ATOM      9  C   LIG    1      -39.033  77.108  25.110  0.00  0.00    +0.150 A 
ENDROOT
BRANCH   4  10
ATOM     10  N   LIG    1      -37.915  71.447  25.447  0.00  0.00    -0.308 N 
ATOM     11  C   LIG    1      -36.481  71.151  25.581  0.00  0.00    +0.107 C 
ATOM     12  C   LIG    1      -36.404  69.666  25.188  0.00  0.00    +0.029 C 
ATOM     13  C   LIG    1      -37.710  69.092  25.710  0.00  0.00    +0.021 C 
ATOM     14  C   LIG    1      -38.705  70.214  25.437  0.00  0.00    +0.107 C 
BRANCH  11  15
ATOM     15  C   LIG    1      -35.968  71.409  26.984  0.00  0.00    -0.006 A 
ATOM     16  C   LIG    1      -34.608  71.525  27.290  0.00  0.00    +0.046 A 
ATOM     17  C   LIG    1      -34.207  71.750  28.598  0.00  0.00    +0.142 A 
ATOM     18  F   LIG    1      -32.905  71.870  28.887  0.00  0.00    -0.204 F 
ATOM     19  C   LIG    1      -35.166  71.851  29.585  0.00  0.00    +0.149 A 
ATOM     20  N   LIG    1      -36.495  71.769  29.339  0.00  0.00    -0.260 NA
ATOM     21  C   LIG    1      -36.858  71.569  28.047  0.00  0.00    +0.116 A 
ENDBRANCH  11  15
ENDBRANCH   4  10
BRANCH   1  24
ATOM     22  N   LIG    1      -35.898  75.874  26.635  0.00  0.00    -0.266 N 
ATOM     23  H   LIG    1      -36.044  74.964  26.225  0.00  0.00    +0.157 HD
ATOM     24  C   LIG    1      -36.925  76.787  26.495  0.00  0.00    +0.254 C 
ATOM     25  O   LIG    1      -36.966  77.916  26.951  0.00  0.00    -0.270 OA
BRANCH  22  30
ATOM     26  F   LIG    1      -31.155  76.798  29.225  0.00  0.00    -0.204 F 
ATOM     27  C   LIG    1      -32.317  76.561  28.605  0.00  0.00    +0.142 A 
ATOM     28  C   LIG    1      -32.737  77.352  27.556  0.00  0.00    +0.151 A 
ATOM     29  N   LIG    1      -33.900  77.158  26.893  0.00  0.00    -0.237 NA
ATOM     30  C   LIG    1      -34.686  76.141  27.279  0.00  0.00    +0.125 A 
ATOM     31  C   LIG    1      -34.321  75.295  28.324  0.00  0.00    +0.046 A 
ATOM     32  C   LIG    1      -33.121  75.509  29.001  0.00  0.00    +0.043 A 
ENDBRANCH  22  30
ENDBRANCH   1  24
TORSDOF 4
ENDMDL
MODEL 9
REMARK VINA RESULT:      -5.8     13.309     16.968
REMARK  Name = pdb/CHEMBL3675970.pdb
REMARK                            x       y       z     vdW  Elec       q    Type
REMARK                         _______ _______ _______ _____ _____    ______ ____
ROOT
ATOM      1  C   LIG    1      -36.302  83.011  27.356  0.00  0.00    +0.101 A 
ATOM      2  C   LIG    1      -35.628  81.948  27.932  0.00  0.00    +0.170 A 
ATOM      3  N   LIG    1      -34.965  80.866  27.396  0.00  0.00    -0.212 NA
ATOM      4  C   LIG    1      -34.388  80.019  28.229  0.00  0.00    +0.126 A 
ATOM      5  C   LIG    1      -34.499  80.181  29.730  0.00  0.00    +0.063 A 
ATOM      6  C   LIG    1      -35.165  81.241  30.192  0.00  0.00    +0.118 A 
ATOM      7  N   LIG    1      -35.719  82.150  29.312  0.00  0.00    -0.221 N 
ATOM      8  N   LIG    1      -36.376  83.287  29.628  0.00  0.00    -0.173 NA
ATOM      9  C   LIG    1      -36.709  83.807  28.449  0.00  0.00    +0.150 A 
ENDROOT
BRANCH   4  10
ATOM     10  N   LIG    1      -33.663  78.948  27.723  0.00  0.00    -0.308 N 
ATOM     11  C   LIG    1      -33.580  77.639  28.387  0.00  0.00    +0.107 C 
ATOM     12  C   LIG    1      -32.203  77.119  27.943  0.00  0.00    +0.029 C 
ATOM     13  C   LIG    1      -32.059  77.659  26.530  0.00  0.00    +0.021 C 
ATOM     14  C   LIG    1      -32.692  79.042  26.631  0.00  0.00    +0.107 C 
BRANCH  11  15
ATOM     15  C   LIG    1      -34.710  76.714  27.979  0.00  0.00    -0.006 A 
ATOM     16  C   LIG    1      -35.849  77.155  27.297  0.00  0.00    +0.046 A 
ATOM     17  C   LIG    1      -36.852  76.256  26.964  0.00  0.00    +0.142 A 
ATOM     18  F   LIG    1      -37.936  76.679  26.304  0.00  0.00    -0.204 F 
ATOM     19  C   LIG    1      -36.707  74.931  27.320  0.00  0.00    +0.149 A 
ATOM     20  N   LIG    1      -35.616  74.449  27.959  0.00  0.00    -0.260 NA
ATOM     21  C   LIG    1      -34.643  75.347  28.254  0.00  0.00    +0.116 A 
ENDBRANCH  11  15
ENDBRANCH   4  10
BRANCH   1  24
ATOM     22  N   LIG    1      -37.910  83.207  25.620  0.00  0.00    -0.266 N 
ATOM     23  H   LIG    1      -38.538  82.892  26.344  0.00  0.00    +0.157 HD
ATOM     24  C   LIG    1      -36.575  83.308  25.959  0.00  0.00    +0.254 C 
ATOM     25  O   LIG    1      -35.656  83.624  25.224  0.00  0.00    -0.270 OA
BRANCH  22  30
ATOM     26  F   LIG    1      -39.879  84.585  20.692  0.00  0.00    -0.204 F 
ATOM     27  C   LIG    1      -39.394  84.266  21.897  0.00  0.00    +0.142 A 
ATOM     28  C   LIG    1      -39.611  83.017  22.443  0.00  0.00    +0.151 A 
ATOM     29  N   LIG    1      -39.144  82.639  23.655  0.00  0.00    -0.237 NA
ATOM     30  C   LIG    1      -38.432  83.529  24.364  0.00  0.00    +0.125 A 
ATOM     31  C   LIG    1      -38.165  84.805  23.872  0.00  0.00    +0.046 A 
ATOM     32  C   LIG    1      -38.656  85.182  22.623  0.00  0.00    +0.043 A 
ENDBRANCH  22  30
ENDBRANCH   1  24
TORSDOF 4
ENDMDL
