MODEL 1
REMARK VINA RESULT:      -6.8      0.000      0.000
REMARK  Name = pdb/CHEMBL388978.pdb
REMARK                            x       y       z     vdW  Elec       q    Type
REMARK                         _______ _______ _______ _____ _____    ______ ____
ROOT
ATOM      1  C   LIG    1      -38.187  68.562  20.813  0.00  0.00    +0.091 C 
ATOM      2  C   LIG    1      -39.597  67.940  21.011  0.00  0.00    +0.187 C 
ATOM      3  C   LIG    1      -40.067  68.287  22.463  0.00  0.00    +0.174 C 
ATOM      4  N   LIG    1      -40.175  69.727  22.720  0.00  0.00    -0.307 N 
ATOM      5  C   LIG    1      -39.491  70.537  23.579  0.00  0.00    +0.077 A 
ATOM      6  C   LIG    1      -38.266  70.274  24.178  0.00  0.00    +0.077 A 
ATOM      7  N   LIG    1      -37.514  69.170  23.980  0.00  0.00    -0.311 N 
ATOM      8  C   LIG    1      -36.375  69.469  24.748  0.00  0.00    +0.052 A 
ATOM      9  C   LIG    1      -35.211  68.695  24.929  0.00  0.00    +0.026 A 
ATOM     10  C   LIG    1      -34.185  69.179  25.741  0.00  0.00    +0.002 A 
ATOM     11  C   LIG    1      -34.297  70.409  26.371  0.00  0.00    +0.001 A 
ATOM     12  C   LIG    1      -35.443  71.195  26.205  0.00  0.00    +0.010 A 
ATOM     13  C   LIG    1      -36.516  70.755  25.394  0.00  0.00    +0.008 A 
ATOM     14  C   LIG    1      -37.805  67.954  23.262  0.00  0.00    +0.224 C 
ATOM     15  C   LIG    1      -37.772  71.289  25.012  0.00  0.00    +0.022 A 
ATOM     16  C   LIG    1      -38.306  72.546  25.364  0.00  0.00    +0.052 A 
ATOM     17  C   LIG    1      -37.951  73.652  26.197  0.00  0.00    +0.245 C 
ATOM     18  O   LIG    1      -37.022  73.895  26.953  0.00  0.00    -0.270 OA
ATOM     19  N   LIG    1      -38.991  74.561  25.995  0.00  0.00    -0.307 N 
ATOM     20  H   LIG    1      -38.982  75.438  26.496  0.00  0.00    +0.149 HD
ATOM     21  C   LIG    1      -40.038  74.150  25.075  0.00  0.00    +0.141 C 
ATOM     22  C   LIG    1      -39.526  72.830  24.713  0.00  0.00    -0.008 A 
ATOM     23  C   LIG    1      -39.996  71.809  23.868  0.00  0.00    +0.015 A 
ATOM     24  C   LIG    1      -41.111  71.881  23.006  0.00  0.00    +0.008 A 
ATOM     25  C   LIG    1      -42.078  72.874  22.720  0.00  0.00    +0.010 A 
ATOM     26  C   LIG    1      -43.052  72.666  21.742  0.00  0.00    +0.001 A 
ATOM     27  C   LIG    1      -43.084  71.479  21.027  0.00  0.00    +0.002 A 
ATOM     28  C   LIG    1      -42.160  70.461  21.278  0.00  0.00    +0.026 A 
ATOM     29  C   LIG    1      -41.175  70.632  22.273  0.00  0.00    +0.053 A 
ATOM     30  C   LIG    1      -41.416  67.597  22.773  0.00  0.00    +0.069 C 
ATOM     31  O   LIG    1      -39.185  67.675  23.419  0.00  0.00    -0.328 OA
ATOM     32  C   LIG    1      -37.244  67.923  21.836  0.00  0.00    +0.076 C 
ENDROOT
BRANCH   1  34
ATOM     33  C   LIG    1      -36.541  67.415  19.395  0.00  0.00    +0.101 C 
ATOM     34  N   LIG    1      -37.588  68.430  19.464  0.00  0.00    -0.314 NA
ATOM     35  H   LIG    1      -38.323  68.178  18.801  0.00  0.00    +0.122 HD
ENDBRANCH   1  34
BRANCH   2  36
ATOM     36  O   LIG    1      -39.602  66.495  20.916  0.00  0.00    -0.373 OA
ATOM     37  C   LIG    1      -40.126  65.946  19.720  0.00  0.00    +0.194 C 
ENDBRANCH   2  36
TORSDOF 2
ENDMDL
MODEL 2
REMARK VINA RESULT:      -6.8     17.211     22.191
REMARK  Name = pdb/CHEMBL388978.pdb
REMARK                            x       y       z     vdW  Elec       q    Type
REMARK                         _______ _______ _______ _____ _____    ______ ____
ROOT
ATOM      1  C   LIG    1      -19.536  77.485  35.772  0.00  0.00    +0.091 C 
ATOM      2  C   LIG    1      -19.705  78.865  36.464  0.00  0.00    +0.187 C 
ATOM      3  C   LIG    1      -20.783  79.668  35.662  0.00  0.00    +0.174 C 
ATOM      4  N   LIG    1      -22.099  79.020  35.631  0.00  0.00    -0.307 N 
ATOM      5  C   LIG    1      -22.823  78.511  34.592  0.00  0.00    +0.077 A 
ATOM      6  C   LIG    1      -22.347  78.152  33.339  0.00  0.00    +0.077 A 
ATOM      7  N   LIG    1      -21.057  78.210  32.942  0.00  0.00    -0.311 N 
ATOM      8  C   LIG    1      -21.141  77.659  31.651  0.00  0.00    +0.052 A 
ATOM      9  C   LIG    1      -20.103  77.437  30.723  0.00  0.00    +0.026 A 
ATOM     10  C   LIG    1      -20.401  76.873  29.482  0.00  0.00    +0.002 A 
ATOM     11  C   LIG    1      -21.702  76.530  29.152  0.00  0.00    +0.001 A 
ATOM     12  C   LIG    1      -22.748  76.740  30.057  0.00  0.00    +0.010 A 
ATOM     13  C   LIG    1      -22.507  77.309  31.329  0.00  0.00    +0.008 A 
ATOM     14  C   LIG    1      -19.899  78.766  33.595  0.00  0.00    +0.224 C 
ATOM     15  C   LIG    1      -23.306  77.636  32.454  0.00  0.00    +0.022 A 
ATOM     16  C   LIG    1      -24.690  77.419  32.606  0.00  0.00    +0.052 A 
ATOM     17  C   LIG    1      -25.781  76.941  31.816  0.00  0.00    +0.245 C 
ATOM     18  O   LIG    1      -25.902  76.554  30.662  0.00  0.00    -0.270 OA
ATOM     19  N   LIG    1      -26.867  76.993  32.691  0.00  0.00    -0.307 N 
ATOM     20  H   LIG    1      -27.780  76.715  32.359  0.00  0.00    +0.149 HD
ATOM     21  C   LIG    1      -26.592  77.476  34.033  0.00  0.00    +0.141 C 
ATOM     22  C   LIG    1      -25.161  77.738  33.898  0.00  0.00    -0.008 A 
ATOM     23  C   LIG    1      -24.183  78.237  34.777  0.00  0.00    +0.015 A 
ATOM     24  C   LIG    1      -24.351  78.510  36.151  0.00  0.00    +0.008 A 
ATOM     25  C   LIG    1      -25.440  78.425  37.051  0.00  0.00    +0.010 A 
ATOM     26  C   LIG    1      -25.274  78.714  38.406  0.00  0.00    +0.001 A 
ATOM     27  C   LIG    1      -24.032  79.085  38.896  0.00  0.00    +0.002 A 
ATOM     28  C   LIG    1      -22.926  79.197  38.049  0.00  0.00    +0.026 A 
ATOM     29  C   LIG    1      -23.064  78.931  36.671  0.00  0.00    +0.053 A 
ATOM     30  C   LIG    1      -20.918  81.102  36.223  0.00  0.00    +0.069 C 
ATOM     31  O   LIG    1      -20.316  79.907  34.324  0.00  0.00    -0.328 OA
ATOM     32  C   LIG    1      -19.049  77.733  34.342  0.00  0.00    +0.076 C 
ENDROOT
BRANCH   1  34
ATOM     33  C   LIG    1      -17.326  76.411  35.762  0.00  0.00    +0.101 C 
ATOM     34  N   LIG    1      -18.620  76.523  36.428  0.00  0.00    -0.314 NA
ATOM     35  H   LIG    1      -18.460  76.825  37.391  0.00  0.00    +0.122 HD
ENDBRANCH   1  34
BRANCH   2  36
ATOM     36  O   LIG    1      -18.499  79.668  36.440  0.00  0.00    -0.373 OA
ATOM     37  C   LIG    1      -17.722  79.669  37.623  0.00  0.00    +0.194 C 
ENDBRANCH   2  36
TORSDOF 2
ENDMDL
MODEL 3
REMARK VINA RESULT:      -6.7      3.916      6.996
REMARK  Name = pdb/CHEMBL388978.pdb
REMARK                            x       y       z     vdW  Elec       q    Type
REMARK                         _______ _______ _______ _____ _____    ______ ____
ROOT
ATOM      1  C   LIG    1      -44.280  74.410  20.457  0.00  0.00    +0.091 C 
ATOM      2  C   LIG    1      -45.222  75.147  21.449  0.00  0.00    +0.187 C 
ATOM      3  C   LIG    1      -44.715  74.840  22.898  0.00  0.00    +0.174 C 
ATOM      4  N   LIG    1      -43.347  75.302  23.155  0.00  0.00    -0.307 N 
ATOM      5  C   LIG    1      -42.207  74.609  23.442  0.00  0.00    +0.077 A 
ATOM      6  C   LIG    1      -41.969  73.261  23.214  0.00  0.00    +0.077 A 
ATOM      7  N   LIG    1      -42.826  72.400  22.624  0.00  0.00    -0.311 N 
ATOM      8  C   LIG    1      -42.051  71.227  22.577  0.00  0.00    +0.052 A 
ATOM      9  C   LIG    1      -42.399  69.967  22.050  0.00  0.00    +0.026 A 
ATOM     10  C   LIG    1      -41.475  68.922  22.103  0.00  0.00    +0.002 A 
ATOM     11  C   LIG    1      -40.223  69.110  22.666  0.00  0.00    +0.001 A 
ATOM     12  C   LIG    1      -39.855  70.352  23.193  0.00  0.00    +0.010 A 
ATOM     13  C   LIG    1      -40.751  71.447  23.169  0.00  0.00    +0.008 A 
ATOM     14  C   LIG    1      -44.201  72.571  22.225  0.00  0.00    +0.224 C 
ATOM     15  C   LIG    1      -40.697  72.800  23.590  0.00  0.00    +0.022 A 
ATOM     16  C   LIG    1      -39.602  73.468  24.174  0.00  0.00    +0.052 A 
ATOM     17  C   LIG    1      -38.285  73.146  24.630  0.00  0.00    +0.245 C 
ATOM     18  O   LIG    1      -37.627  72.118  24.697  0.00  0.00    -0.270 OA
ATOM     19  N   LIG    1      -37.781  74.372  25.066  0.00  0.00    -0.307 N 
ATOM     20  H   LIG    1      -36.850  74.410  25.458  0.00  0.00    +0.149 HD
ATOM     21  C   LIG    1      -38.666  75.517  24.937  0.00  0.00    +0.141 C 
ATOM     22  C   LIG    1      -39.829  74.849  24.357  0.00  0.00    -0.008 A 
ATOM     23  C   LIG    1      -41.102  75.295  23.959  0.00  0.00    +0.015 A 
ATOM     24  C   LIG    1      -41.543  76.635  23.912  0.00  0.00    +0.008 A 
ATOM     25  C   LIG    1      -40.958  77.881  24.236  0.00  0.00    +0.010 A 
ATOM     26  C   LIG    1      -41.646  79.075  24.016  0.00  0.00    +0.001 A 
ATOM     27  C   LIG    1      -42.919  79.060  23.467  0.00  0.00    +0.002 A 
ATOM     28  C   LIG    1      -43.548  77.855  23.140  0.00  0.00    +0.026 A 
ATOM     29  C   LIG    1      -42.888  76.630  23.369  0.00  0.00    +0.053 A 
ATOM     30  C   LIG    1      -45.677  75.445  23.947  0.00  0.00    +0.069 C 
ATOM     31  O   LIG    1      -44.822  73.431  23.163  0.00  0.00    -0.328 OA
ATOM     32  C   LIG    1      -44.381  72.909  20.741  0.00  0.00    +0.076 C 
ENDROOT
BRANCH   1  34
ATOM     33  C   LIG    1      -44.512  76.051  18.644  0.00  0.00    +0.101 C 
ATOM     34  N   LIG    1      -44.528  74.640  19.015  0.00  0.00    -0.314 NA
ATOM     35  H   LIG    1      -43.805  74.159  18.476  0.00  0.00    +0.122 HD
ENDBRANCH   1  34
BRANCH   2  36
ATOM     36  O   LIG    1      -46.592  74.680  21.390  0.00  0.00    -0.373 OA
ATOM     37  C   LIG    1      -47.530  75.560  20.798  0.00  0.00    +0.194 C 
ENDBRANCH   2  36
TORSDOF 2
ENDMDL
MODEL 4
REMARK VINA RESULT:      -6.7      3.567      5.762
REMARK  Name = pdb/CHEMBL388978.pdb
REMARK                            x       y       z     vdW  Elec       q    Type
REMARK                         _______ _______ _______ _____ _____    ______ ____
ROOT
ATOM      1  C   LIG    1      -43.475  72.687  21.053  0.00  0.00    +0.091 C 
ATOM      2  C   LIG    1      -44.781  73.045  21.815  0.00  0.00    +0.187 C 
ATOM      3  C   LIG    1      -44.375  73.555  23.238  0.00  0.00    +0.174 C 
ATOM      4  N   LIG    1      -43.529  74.753  23.216  0.00  0.00    -0.307 N 
ATOM      5  C   LIG    1      -42.242  74.948  23.626  0.00  0.00    +0.077 A 
ATOM      6  C   LIG    1      -41.277  73.975  23.842  0.00  0.00    +0.077 A 
ATOM      7  N   LIG    1      -41.440  72.648  23.644  0.00  0.00    -0.311 N 
ATOM      8  C   LIG    1      -40.150  72.166  23.928  0.00  0.00    +0.052 A 
ATOM      9  C   LIG    1      -39.680  70.838  23.882  0.00  0.00    +0.026 A 
ATOM     10  C   LIG    1      -38.350  70.569  24.206  0.00  0.00    +0.002 A 
ATOM     11  C   LIG    1      -37.488  71.590  24.572  0.00  0.00    +0.001 A 
ATOM     12  C   LIG    1      -37.932  72.916  24.625  0.00  0.00    +0.010 A 
ATOM     13  C   LIG    1      -39.270  73.248  24.308  0.00  0.00    +0.008 A 
ATOM     14  C   LIG    1      -42.621  71.886  23.321  0.00  0.00    +0.224 C 
ATOM     15  C   LIG    1      -40.020  74.450  24.248  0.00  0.00    +0.022 A 
ATOM     16  C   LIG    1      -39.554  75.758  24.487  0.00  0.00    +0.052 A 
ATOM     17  C   LIG    1      -38.346  76.390  24.918  0.00  0.00    +0.245 C 
ATOM     18  O   LIG    1      -37.246  75.990  25.271  0.00  0.00    -0.270 OA
ATOM     19  N   LIG    1      -38.656  77.750  24.879  0.00  0.00    -0.307 N 
ATOM     20  H   LIG    1      -37.957  78.423  25.160  0.00  0.00    +0.149 HD
ATOM     21  C   LIG    1      -40.000  78.094  24.446  0.00  0.00    +0.141 C 
ATOM     22  C   LIG    1      -40.523  76.749  24.217  0.00  0.00    -0.008 A 
ATOM     23  C   LIG    1      -41.770  76.255  23.795  0.00  0.00    +0.015 A 
ATOM     24  C   LIG    1      -42.864  77.021  23.339  0.00  0.00    +0.008 A 
ATOM     25  C   LIG    1      -43.105  78.406  23.182  0.00  0.00    +0.010 A 
ATOM     26  C   LIG    1      -44.301  78.868  22.632  0.00  0.00    +0.001 A 
ATOM     27  C   LIG    1      -45.276  77.972  22.222  0.00  0.00    +0.002 A 
ATOM     28  C   LIG    1      -45.095  76.593  22.367  0.00  0.00    +0.026 A 
ATOM     29  C   LIG    1      -43.905  76.095  22.938  0.00  0.00    +0.053 A 
ATOM     30  C   LIG    1      -45.633  73.817  24.098  0.00  0.00    +0.069 C 
ATOM     31  O   LIG    1      -43.724  72.499  23.965  0.00  0.00    -0.328 OA
ATOM     32  C   LIG    1      -42.770  71.571  21.829  0.00  0.00    +0.076 C 
ENDROOT
BRANCH   1  34
ATOM     33  C   LIG    1      -43.426  70.834  19.442  0.00  0.00    +0.101 C 
ATOM     34  N   LIG    1      -43.626  72.265  19.641  0.00  0.00    -0.314 NA
ATOM     35  H   LIG    1      -44.567  72.505  19.325  0.00  0.00    +0.122 HD
ENDBRANCH   1  34
BRANCH   2  36
ATOM     36  O   LIG    1      -45.650  71.905  22.024  0.00  0.00    -0.373 OA
ATOM     37  C   LIG    1      -46.798  71.831  21.198  0.00  0.00    +0.194 C 
ENDBRANCH   2  36
TORSDOF 2
ENDMDL
MODEL 5
REMARK VINA RESULT:      -6.6      1.593      7.629
REMARK  Name = pdb/CHEMBL388978.pdb
REMARK                            x       y       z     vdW  Elec       q    Type
REMARK                         _______ _______ _______ _____ _____    ______ ____
ROOT
ATOM      1  C   LIG    1      -37.966  74.452  25.027  0.00  0.00    +0.091 C 
ATOM      2  C   LIG    1      -37.709  73.915  26.462  0.00  0.00    +0.187 C 
ATOM      3  C   LIG    1      -38.442  72.538  26.591  0.00  0.00    +0.174 C 
ATOM      4  N   LIG    1      -37.965  71.525  25.643  0.00  0.00    -0.307 N 
ATOM      5  C   LIG    1      -38.599  70.891  24.615  0.00  0.00    +0.077 A 
ATOM      6  C   LIG    1      -39.758  71.300  23.969  0.00  0.00    +0.077 A 
ATOM      7  N   LIG    1      -40.444  72.434  24.228  0.00  0.00    -0.311 N 
ATOM      8  C   LIG    1      -41.448  72.381  23.245  0.00  0.00    +0.052 A 
ATOM      9  C   LIG    1      -42.479  73.308  22.993  0.00  0.00    +0.026 A 
ATOM     10  C   LIG    1      -43.383  73.065  21.958  0.00  0.00    +0.002 A 
ATOM     11  C   LIG    1      -43.279  71.925  21.177  0.00  0.00    +0.001 A 
ATOM     12  C   LIG    1      -42.262  70.991  21.408  0.00  0.00    +0.010 A 
ATOM     13  C   LIG    1      -41.318  71.183  22.444  0.00  0.00    +0.008 A 
ATOM     14  C   LIG    1      -40.282  73.409  25.278  0.00  0.00    +0.224 C 
ATOM     15  C   LIG    1      -40.193  70.468  22.925  0.00  0.00    +0.022 A 
ATOM     16  C   LIG    1      -39.663  69.268  22.410  0.00  0.00    +0.052 A 
ATOM     17  C   LIG    1      -39.991  68.312  21.398  0.00  0.00    +0.245 C 
ATOM     18  O   LIG    1      -40.910  68.186  20.602  0.00  0.00    -0.270 OA
ATOM     19  N   LIG    1      -38.946  67.391  21.467  0.00  0.00    -0.307 N 
ATOM     20  H   LIG    1      -38.953  66.591  20.849  0.00  0.00    +0.149 HD
ATOM     21  C   LIG    1      -37.918  67.653  22.460  0.00  0.00    +0.141 C 
ATOM     22  C   LIG    1      -38.457  68.883  23.035  0.00  0.00    -0.008 A 
ATOM     23  C   LIG    1      -38.028  69.738  24.066  0.00  0.00    +0.015 A 
ATOM     24  C   LIG    1      -36.803  69.660  24.763  0.00  0.00    +0.008 A 
ATOM     25  C   LIG    1      -35.692  68.785  24.718  0.00  0.00    +0.010 A 
ATOM     26  C   LIG    1      -34.568  69.012  25.514  0.00  0.00    +0.001 A 
ATOM     27  C   LIG    1      -34.519  70.107  26.361  0.00  0.00    +0.002 A 
ATOM     28  C   LIG    1      -35.594  70.996  26.455  0.00  0.00    +0.026 A 
ATOM     29  C   LIG    1      -36.753  70.784  25.679  0.00  0.00    +0.053 A 
ATOM     30  C   LIG    1      -38.330  71.999  28.035  0.00  0.00    +0.069 C 
ATOM     31  O   LIG    1      -39.860  72.727  26.445  0.00  0.00    -0.328 OA
ATOM     32  C   LIG    1      -39.475  74.644  24.860  0.00  0.00    +0.076 C 
ENDROOT
BRANCH   1  34
ATOM     33  C   LIG    1      -38.191  76.845  24.523  0.00  0.00    +0.101 C 
ATOM     34  N   LIG    1      -37.281  75.712  24.659  0.00  0.00    -0.314 NA
ATOM     35  H   LIG    1      -36.594  75.937  25.381  0.00  0.00    +0.122 HD
ENDBRANCH   1  34
BRANCH   2  36
ATOM     36  O   LIG    1      -38.258  74.767  27.497  0.00  0.00    -0.373 OA
ATOM     37  C   LIG    1      -37.331  75.561  28.214  0.00  0.00    +0.194 C 
ENDBRANCH   2  36
TORSDOF 2
ENDMDL
MODEL 6
REMARK VINA RESULT:      -6.6      4.275      8.763
REMARK  Name = pdb/CHEMBL388978.pdb
REMARK                            x       y       z     vdW  Elec       q    Type
REMARK                         _______ _______ _______ _____ _____    ______ ____
ROOT
ATOM      1  C   LIG    1      -40.068  77.870  26.861  0.00  0.00    +0.091 C 
ATOM      2  C   LIG    1      -39.893  79.107  25.936  0.00  0.00    +0.187 C 
ATOM      3  C   LIG    1      -39.923  78.598  24.456  0.00  0.00    +0.174 C 
ATOM      4  N   LIG    1      -41.179  77.938  24.085  0.00  0.00    -0.307 N 
ATOM      5  C   LIG    1      -41.440  76.650  23.718  0.00  0.00    +0.077 A 
ATOM      6  C   LIG    1      -40.640  75.538  23.945  0.00  0.00    +0.077 A 
ATOM      7  N   LIG    1      -39.466  75.538  24.614  0.00  0.00    -0.311 N 
ATOM      8  C   LIG    1      -39.150  74.168  24.617  0.00  0.00    +0.052 A 
ATOM      9  C   LIG    1      -38.032  73.526  25.187  0.00  0.00    +0.026 A 
ATOM     10  C   LIG    1      -37.905  72.141  25.077  0.00  0.00    +0.002 A 
ATOM     11  C   LIG    1      -38.863  71.391  24.413  0.00  0.00    +0.001 A 
ATOM     12  C   LIG    1      -39.981  72.005  23.840  0.00  0.00    +0.010 A 
ATOM     13  C   LIG    1      -40.163  73.406  23.919  0.00  0.00    +0.008 A 
ATOM     14  C   LIG    1      -38.674  76.631  25.119  0.00  0.00    +0.224 C 
ATOM     15  C   LIG    1      -41.153  74.319  23.476  0.00  0.00    +0.022 A 
ATOM     16  C   LIG    1      -42.350  74.014  22.797  0.00  0.00    +0.052 A 
ATOM     17  C   LIG    1      -42.989  72.861  22.242  0.00  0.00    +0.245 C 
ATOM     18  O   LIG    1      -42.691  71.680  22.139  0.00  0.00    -0.270 OA
ATOM     19  N   LIG    1      -44.196  73.361  21.750  0.00  0.00    -0.307 N 
ATOM     20  H   LIG    1      -44.836  72.733  21.285  0.00  0.00    +0.149 HD
ATOM     21  C   LIG    1      -44.427  74.784  21.933  0.00  0.00    +0.141 C 
ATOM     22  C   LIG    1      -43.184  75.138  22.613  0.00  0.00    -0.008 A 
ATOM     23  C   LIG    1      -42.661  76.347  23.105  0.00  0.00    +0.015 A 
ATOM     24  C   LIG    1      -43.333  77.587  23.168  0.00  0.00    +0.008 A 
ATOM     25  C   LIG    1      -44.617  78.037  22.780  0.00  0.00    +0.010 A 
ATOM     26  C   LIG    1      -45.025  79.346  23.037  0.00  0.00    +0.001 A 
ATOM     27  C   LIG    1      -44.177  80.230  23.685  0.00  0.00    +0.002 A 
ATOM     28  C   LIG    1      -42.894  79.841  24.079  0.00  0.00    +0.026 A 
ATOM     29  C   LIG    1      -42.443  78.531  23.815  0.00  0.00    +0.053 A 
ATOM     30  C   LIG    1      -39.633  79.761  23.479  0.00  0.00    +0.069 C 
ATOM     31  O   LIG    1      -38.811  77.719  24.221  0.00  0.00    -0.328 OA
ATOM     32  C   LIG    1      -38.892  76.923  26.607  0.00  0.00    +0.076 C 
ENDROOT
BRANCH   1  34
ATOM     33  C   LIG    1      -38.992  77.682  29.061  0.00  0.00    +0.101 C 
ATOM     34  N   LIG    1      -40.160  78.139  28.315  0.00  0.00    -0.314 NA
ATOM     35  H   LIG    1      -40.258  79.146  28.458  0.00  0.00    +0.122 HD
ENDBRANCH   1  34
BRANCH   2  36
ATOM     36  O   LIG    1      -38.619  79.774  26.111  0.00  0.00    -0.373 OA
ATOM     37  C   LIG    1      -38.643  80.995  26.827  0.00  0.00    +0.194 C 
ENDBRANCH   2  36
TORSDOF 2
ENDMDL
MODEL 7
REMARK VINA RESULT:      -6.6      2.881      7.320
REMARK  Name = pdb/CHEMBL388978.pdb
REMARK                            x       y       z     vdW  Elec       q    Type
REMARK                         _______ _______ _______ _____ _____    ______ ____
ROOT
ATOM      1  C   LIG    1      -39.126  75.877  27.196  0.00  0.00    +0.091 C 
ATOM      2  C   LIG    1      -38.882  77.095  26.263  0.00  0.00    +0.187 C 
ATOM      3  C   LIG    1      -38.849  76.564  24.791  0.00  0.00    +0.174 C 
ATOM      4  N   LIG    1      -40.096  75.920  24.368  0.00  0.00    -0.307 N 
ATOM      5  C   LIG    1      -40.362  74.631  24.007  0.00  0.00    +0.077 A 
ATOM      6  C   LIG    1      -39.595  73.510  24.291  0.00  0.00    +0.077 A 
ATOM      7  N   LIG    1      -38.456  73.499  25.017  0.00  0.00    -0.311 N 
ATOM      8  C   LIG    1      -38.166  72.124  25.055  0.00  0.00    +0.052 A 
ATOM      9  C   LIG    1      -37.090  71.472  25.690  0.00  0.00    +0.026 A 
ATOM     10  C   LIG    1      -36.982  70.083  25.606  0.00  0.00    +0.002 A 
ATOM     11  C   LIG    1      -37.920  69.339  24.907  0.00  0.00    +0.001 A 
ATOM     12  C   LIG    1      -38.997  69.965  24.270  0.00  0.00    +0.010 A 
ATOM     13  C   LIG    1      -39.157  71.369  24.319  0.00  0.00    +0.008 A 
ATOM     14  C   LIG    1      -37.670  74.586  25.544  0.00  0.00    +0.224 C 
ATOM     15  C   LIG    1      -40.107  72.292  23.814  0.00  0.00    +0.022 A 
ATOM     16  C   LIG    1      -41.274  71.998  23.081  0.00  0.00    +0.052 A 
ATOM     17  C   LIG    1      -41.906  70.848  22.512  0.00  0.00    +0.245 C 
ATOM     18  O   LIG    1      -41.625  69.660  22.441  0.00  0.00    -0.270 OA
ATOM     19  N   LIG    1      -43.077  71.362  21.953  0.00  0.00    -0.307 N 
ATOM     20  H   LIG    1      -43.705  70.737  21.466  0.00  0.00    +0.149 HD
ATOM     21  C   LIG    1      -43.291  72.791  22.103  0.00  0.00    +0.141 C 
ATOM     22  C   LIG    1      -42.076  73.133  22.839  0.00  0.00    -0.008 A 
ATOM     23  C   LIG    1      -41.557  74.341  23.339  0.00  0.00    +0.015 A 
ATOM     24  C   LIG    1      -42.208  75.593  23.349  0.00  0.00    +0.008 A 
ATOM     25  C   LIG    1      -43.463  76.059  22.891  0.00  0.00    +0.010 A 
ATOM     26  C   LIG    1      -43.859  77.380  23.108  0.00  0.00    +0.001 A 
ATOM     27  C   LIG    1      -43.028  78.258  23.785  0.00  0.00    +0.002 A 
ATOM     28  C   LIG    1      -41.773  77.853  24.248  0.00  0.00    +0.026 A 
ATOM     29  C   LIG    1      -41.334  76.531  24.027  0.00  0.00    +0.053 A 
ATOM     30  C   LIG    1      -38.489  77.706  23.813  0.00  0.00    +0.069 C 
ATOM     31  O   LIG    1      -37.742  75.661  24.625  0.00  0.00    -0.328 OA
ATOM     32  C   LIG    1      -37.957  74.905  27.015  0.00  0.00    +0.076 C 
ENDROOT
BRANCH   1  34
ATOM     33  C   LIG    1      -38.129  75.774  29.439  0.00  0.00    +0.101 C 
ATOM     34  N   LIG    1      -39.284  76.169  28.640  0.00  0.00    -0.314 NA
ATOM     35  H   LIG    1      -39.428  77.174  28.758  0.00  0.00    +0.122 HD
ENDBRANCH   1  34
BRANCH   2  36
ATOM     36  O   LIG    1      -37.607  77.742  26.491  0.00  0.00    -0.373 OA
ATOM     37  C   LIG    1      -37.632  78.921  27.277  0.00  0.00    +0.194 C 
ENDBRANCH   2  36
TORSDOF 2
ENDMDL
MODEL 8
REMARK VINA RESULT:      -6.5      3.837      7.409
REMARK  Name = pdb/CHEMBL388978.pdb
REMARK                            x       y       z     vdW  Elec       q    Type
REMARK                         _______ _______ _______ _____ _____    ______ ____
ROOT
ATOM      1  C   LIG    1      -44.990  73.303  23.823  0.00  0.00    +0.091 C 
ATOM      2  C   LIG    1      -44.716  72.328  22.645  0.00  0.00    +0.187 C 
ATOM      3  C   LIG    1      -43.378  72.772  21.965  0.00  0.00    +0.174 C 
ATOM      4  N   LIG    1      -42.217  72.727  22.861  0.00  0.00    -0.307 N 
ATOM      5  C   LIG    1      -41.408  73.720  23.329  0.00  0.00    +0.077 A 
ATOM      6  C   LIG    1      -41.688  75.079  23.365  0.00  0.00    +0.077 A 
ATOM      7  N   LIG    1      -42.845  75.654  22.971  0.00  0.00    -0.311 N 
ATOM      8  C   LIG    1      -42.612  77.000  23.303  0.00  0.00    +0.052 A 
ATOM      9  C   LIG    1      -43.473  78.105  23.143  0.00  0.00    +0.026 A 
ATOM     10  C   LIG    1      -43.045  79.372  23.541  0.00  0.00    +0.002 A 
ATOM     11  C   LIG    1      -41.786  79.556  24.090  0.00  0.00    +0.001 A 
ATOM     12  C   LIG    1      -40.915  78.474  24.260  0.00  0.00    +0.010 A 
ATOM     13  C   LIG    1      -41.294  77.167  23.874  0.00  0.00    +0.008 A 
ATOM     14  C   LIG    1      -43.991  75.091  22.300  0.00  0.00    +0.224 C 
ATOM     15  C   LIG    1      -40.683  75.889  23.916  0.00  0.00    +0.022 A 
ATOM     16  C   LIG    1      -39.415  75.568  24.442  0.00  0.00    +0.052 A 
ATOM     17  C   LIG    1      -38.294  76.258  25.000  0.00  0.00    +0.245 C 
ATOM     18  O   LIG    1      -38.023  77.433  25.205  0.00  0.00    -0.270 OA
ATOM     19  N   LIG    1      -37.406  75.232  25.325  0.00  0.00    -0.307 N 
ATOM     20  H   LIG    1      -36.511  75.465  25.730  0.00  0.00    +0.149 HD
ATOM     21  C   LIG    1      -37.846  73.879  25.027  0.00  0.00    +0.141 C 
ATOM     22  C   LIG    1      -39.154  74.181  24.451  0.00  0.00    -0.008 A 
ATOM     23  C   LIG    1      -40.180  73.384  23.911  0.00  0.00    +0.015 A 
ATOM     24  C   LIG    1      -40.236  71.974  23.914  0.00  0.00    +0.008 A 
ATOM     25  C   LIG    1      -39.374  70.951  24.376  0.00  0.00    +0.010 A 
ATOM     26  C   LIG    1      -39.746  69.609  24.289  0.00  0.00    +0.001 A 
ATOM     27  C   LIG    1      -40.973  69.254  23.752  0.00  0.00    +0.002 A 
ATOM     28  C   LIG    1      -41.857  70.224  23.270  0.00  0.00    +0.026 A 
ATOM     29  C   LIG    1      -41.503  71.588  23.324  0.00  0.00    +0.053 A 
ATOM     30  C   LIG    1      -43.102  71.918  20.706  0.00  0.00    +0.069 C 
ATOM     31  O   LIG    1      -43.527  74.090  21.411  0.00  0.00    -0.328 OA
ATOM     32  C   LIG    1      -45.139  74.712  23.242  0.00  0.00    +0.076 C 
ENDROOT
BRANCH   1  34
ATOM     33  C   LIG    1      -47.290  73.914  24.430  0.00  0.00    +0.101 C 
ATOM     34  N   LIG    1      -46.172  73.008  24.666  0.00  0.00    -0.314 NA
ATOM     35  H   LIG    1      -46.485  72.055  24.471  0.00  0.00    +0.122 HD
ENDBRANCH   1  34
BRANCH   2  36
ATOM     36  O   LIG    1      -45.732  72.378  21.614  0.00  0.00    -0.373 OA
ATOM     37  C   LIG    1      -46.625  71.281  21.558  0.00  0.00    +0.194 C 
ENDBRANCH   2  36
TORSDOF 2
ENDMDL
MODEL 9
REMARK VINA RESULT:      -6.5      3.986      6.838
REMARK  Name = pdb/CHEMBL388978.pdb
REMARK                            x       y       z     vdW  Elec       q    Type
REMARK                         _______ _______ _______ _____ _____    ______ ____
ROOT
ATOM      1  C   LIG    1      -36.300  71.114  25.927  0.00  0.00    +0.091 C 
ATOM      2  C   LIG    1      -37.683  71.438  26.556  0.00  0.00    +0.187 C 
ATOM      3  C   LIG    1      -37.429  72.283  27.849  0.00  0.00    +0.174 C 
ATOM      4  N   LIG    1      -36.744  73.555  27.597  0.00  0.00    -0.307 N 
ATOM      5  C   LIG    1      -35.519  74.007  27.994  0.00  0.00    +0.077 A 
ATOM      6  C   LIG    1      -34.451  73.241  28.442  0.00  0.00    +0.077 A 
ATOM      7  N   LIG    1      -34.430  71.893  28.525  0.00  0.00    -0.311 N 
ATOM      8  C   LIG    1      -33.108  71.662  28.944  0.00  0.00    +0.052 A 
ATOM      9  C   LIG    1      -32.470  70.431  29.195  0.00  0.00    +0.026 A 
ATOM     10  C   LIG    1      -31.137  70.420  29.608  0.00  0.00    +0.002 A 
ATOM     11  C   LIG    1      -30.436  71.604  29.775  0.00  0.00    +0.001 A 
ATOM     12  C   LIG    1      -31.048  72.838  29.530  0.00  0.00    +0.010 A 
ATOM     13  C   LIG    1      -32.397  72.911  29.111  0.00  0.00    +0.008 A 
ATOM     14  C   LIG    1      -35.483  70.926  28.337  0.00  0.00    +0.224 C 
ATOM     15  C   LIG    1      -33.291  73.958  28.774  0.00  0.00    +0.022 A 
ATOM     16  C   LIG    1      -33.011  75.340  28.743  0.00  0.00    +0.052 A 
ATOM     17  C   LIG    1      -31.921  76.208  29.065  0.00  0.00    +0.245 C 
ATOM     18  O   LIG    1      -30.801  76.045  29.527  0.00  0.00    -0.270 OA
ATOM     19  N   LIG    1      -32.401  77.474  28.727  0.00  0.00    -0.307 N 
ATOM     20  H   LIG    1      -31.811  78.280  28.879  0.00  0.00    +0.149 HD
ATOM     21  C   LIG    1      -33.750  77.532  28.192  0.00  0.00    +0.141 C 
ATOM     22  C   LIG    1      -34.082  76.110  28.239  0.00  0.00    -0.008 A 
ATOM     23  C   LIG    1      -35.229  75.372  27.895  0.00  0.00    +0.015 A 
ATOM     24  C   LIG    1      -36.384  75.869  27.254  0.00  0.00    +0.008 A 
ATOM     25  C   LIG    1      -36.791  77.145  26.799  0.00  0.00    +0.010 A 
ATOM     26  C   LIG    1      -38.003  77.314  26.128  0.00  0.00    +0.001 A 
ATOM     27  C   LIG    1      -38.829  76.227  25.890  0.00  0.00    +0.002 A 
ATOM     28  C   LIG    1      -38.481  74.946  26.330  0.00  0.00    +0.026 A 
ATOM     29  C   LIG    1      -37.273  74.746  27.029  0.00  0.00    +0.053 A 
ATOM     30  C   LIG    1      -38.758  72.541  28.596  0.00  0.00    +0.069 C 
ATOM     31  O   LIG    1      -36.691  71.501  28.803  0.00  0.00    -0.328 OA
ATOM     32  C   LIG    1      -35.503  70.291  26.943  0.00  0.00    +0.076 C 
ENDROOT
BRANCH   1  34
ATOM     33  C   LIG    1      -36.053  68.963  24.767  0.00  0.00    +0.101 C 
ATOM     34  N   LIG    1      -36.313  70.393  24.633  0.00  0.00    -0.314 NA
ATOM     35  H   LIG    1      -37.230  70.512  24.199  0.00  0.00    +0.122 HD
ENDBRANCH   1  34
BRANCH   2  36
ATOM     36  O   LIG    1      -38.409  70.258  26.977  0.00  0.00    -0.373 OA
ATOM     37  C   LIG    1      -39.491  69.859  26.154  0.00  0.00    +0.194 C 
ENDBRANCH   2  36
TORSDOF 2
ENDMDL
