MODEL 1
REMARK VINA RESULT:      -5.9      0.000      0.000
REMARK  Name = pdb/CHEMBL3955007.pdb
REMARK                            x       y       z     vdW  Elec       q    Type
REMARK                         _______ _______ _______ _____ _____    ______ ____
ROOT
ATOM      1  C   LIG    1      -23.631  79.143  34.422  0.00  0.00    +0.126 A 
ATOM      2  N   LIG    1      -23.268  78.776  33.202  0.00  0.00    -0.212 NA
ATOM      3  C   LIG    1      -24.123  77.994  32.468  0.00  0.00    +0.170 A 
ATOM      4  C   LIG    1      -24.039  77.484  31.176  0.00  0.00    +0.100 A 
ATOM      5  C   LIG    1      -25.311  76.906  30.976  0.00  0.00    +0.150 A 
ATOM      6  N   LIG    1      -26.093  76.937  32.054  0.00  0.00    -0.173 NA
ATOM      7  N   LIG    1      -25.363  77.606  32.971  0.00  0.00    -0.221 N 
ATOM      8  C   LIG    1      -25.740  77.945  34.259  0.00  0.00    +0.118 A 
ATOM      9  C   LIG    1      -24.929  78.676  35.034  0.00  0.00    +0.063 A 
ENDROOT
BRANCH   1  11
ATOM     10  C   LIG    1      -21.998  79.699  36.326  0.00  0.00    +0.107 C 
ATOM     11  N   LIG    1      -22.792  80.009  35.114  0.00  0.00    -0.308 N 
ATOM     12  C   LIG    1      -23.003  81.458  35.008  0.00  0.00    +0.107 C 
ATOM     13  C   LIG    1      -22.709  81.983  36.403  0.00  0.00    +0.021 C 
ATOM     14  C   LIG    1      -21.577  81.083  36.859  0.00  0.00    +0.029 C 
BRANCH  10  17
ATOM     15  C   LIG    1      -21.990  76.654  36.667  0.00  0.00    +0.066 C 
ATOM     16  C   LIG    1      -20.787  77.430  36.209  0.00  0.00    +0.043 A 
ATOM     17  C   LIG    1      -20.782  78.831  36.054  0.00  0.00    -0.003 A 
ATOM     18  C   LIG    1      -19.564  79.423  35.669  0.00  0.00    +0.047 A 
ATOM     19  C   LIG    1      -18.447  78.637  35.430  0.00  0.00    +0.142 A 
ATOM     20  F   LIG    1      -17.294  79.198  35.048  0.00  0.00    -0.204 F 
ATOM     21  C   LIG    1      -18.548  77.274  35.594  0.00  0.00    +0.149 A 
ATOM     22  N   LIG    1      -19.687  76.659  35.984  0.00  0.00    -0.257 NA
ENDBRANCH  10  17
ENDBRANCH   1  11
BRANCH   4  23
ATOM     23  C   LIG    1      -22.934  77.639  30.243  0.00  0.00    +0.221 C 
ATOM     24  N   LIG    1      -21.738  77.220  30.338  0.00  0.00    -0.247 NA
BRANCH  24  25
ATOM     25  C   LIG    1      -21.129  76.541  31.479  0.00  0.00    +0.109 C 
ATOM     26  C   LIG    1      -20.463  77.587  32.382  0.00  0.00    +0.029 C 
ATOM     27  C   LIG    1      -19.238  78.237  31.740  0.00  0.00    +0.033 C 
ATOM     28  C   LIG    1      -18.221  77.196  31.277  0.00  0.00    +0.115 C 
ATOM     29  C   LIG    1      -18.857  76.156  30.357  0.00  0.00    +0.033 C 
ATOM     30  C   LIG    1      -20.107  75.516  30.970  0.00  0.00    +0.029 C 
BRANCH  28  31
ATOM     31  O   LIG    1      -17.669  76.527  32.412  0.00  0.00    -0.392 OA
ATOM     32  H   LIG    1      -18.095  75.653  32.467  0.00  0.00    +0.210 HD
ENDBRANCH  28  31
ENDBRANCH  24  25
BRANCH  23  33
ATOM     33  O   LIG    1      -23.250  78.320  29.111  0.00  0.00    -0.492 OA
ATOM     34  H   LIG    1      -23.997  78.930  29.261  0.00  0.00    +0.294 HD
ENDBRANCH  23  33
ENDBRANCH   4  23
TORSDOF 6
ENDMDL
MODEL 2
REMARK VINA RESULT:      -5.8      4.890      7.566
REMARK  Name = pdb/CHEMBL3955007.pdb
REMARK                            x       y       z     vdW  Elec       q    Type
REMARK                         _______ _______ _______ _____ _____    ______ ____
ROOT
ATOM      1  C   LIG    1      -24.563  73.421  31.568  0.00  0.00    +0.126 A 
ATOM      2  N   LIG    1      -23.985  74.501  31.066  0.00  0.00    -0.212 NA
ATOM      3  C   LIG    1      -24.694  75.675  31.036  0.00  0.00    +0.170 A 
ATOM      4  C   LIG    1      -24.358  76.955  30.607  0.00  0.00    +0.100 A 
ATOM      5  C   LIG    1      -25.472  77.728  30.999  0.00  0.00    +0.150 A 
ATOM      6  N   LIG    1      -26.467  77.013  31.521  0.00  0.00    -0.173 NA
ATOM      7  N   LIG    1      -25.989  75.751  31.544  0.00  0.00    -0.221 N 
ATOM      8  C   LIG    1      -26.624  74.623  32.034  0.00  0.00    +0.118 A 
ATOM      9  C   LIG    1      -25.991  73.443  32.053  0.00  0.00    +0.063 A 
ENDROOT
BRANCH   1  11
ATOM     10  C   LIG    1      -24.271  70.868  31.545  0.00  0.00    +0.107 C 
ATOM     11  N   LIG    1      -23.795  72.265  31.672  0.00  0.00    -0.308 N 
ATOM     12  C   LIG    1      -22.533  72.301  32.420  0.00  0.00    +0.107 C 
ATOM     13  C   LIG    1      -22.479  70.958  33.128  0.00  0.00    +0.021 C 
ATOM     14  C   LIG    1      -23.111  70.027  32.112  0.00  0.00    +0.029 C 
BRANCH  10  17
ATOM     15  C   LIG    1      -26.913  69.555  30.719  0.00  0.00    +0.066 C 
ATOM     16  C   LIG    1      -25.810  69.858  29.745  0.00  0.00    +0.043 A 
ATOM     17  C   LIG    1      -24.591  70.458  30.118  0.00  0.00    -0.003 A 
ATOM     18  C   LIG    1      -23.632  70.632  29.102  0.00  0.00    +0.047 A 
ATOM     19  C   LIG    1      -23.913  70.250  27.800  0.00  0.00    +0.142 A 
ATOM     20  F   LIG    1      -23.007  70.430  26.831  0.00  0.00    -0.204 F 
ATOM     21  C   LIG    1      -25.136  69.683  27.525  0.00  0.00    +0.149 A 
ATOM     22  N   LIG    1      -26.083  69.474  28.467  0.00  0.00    -0.257 NA
ENDBRANCH  10  17
ENDBRANCH   1  11
BRANCH   4  23
ATOM     23  C   LIG    1      -23.099  77.377  30.014  0.00  0.00    +0.221 C 
ATOM     24  N   LIG    1      -21.919  77.268  30.472  0.00  0.00    -0.247 NA
BRANCH  24  25
ATOM     25  C   LIG    1      -21.525  76.762  31.785  0.00  0.00    +0.109 C 
ATOM     26  C   LIG    1      -21.108  77.944  32.668  0.00  0.00    +0.029 C 
ATOM     27  C   LIG    1      -19.808  78.604  32.208  0.00  0.00    +0.033 C 
ATOM     28  C   LIG    1      -18.672  77.592  32.085  0.00  0.00    +0.115 C 
ATOM     29  C   LIG    1      -19.056  76.416  31.190  0.00  0.00    +0.033 C 
ATOM     30  C   LIG    1      -20.374  75.761  31.616  0.00  0.00    +0.029 C 
BRANCH  28  31
ATOM     31  O   LIG    1      -18.333  77.091  33.379  0.00  0.00    -0.392 OA
ATOM     32  H   LIG    1      -19.014  76.440  33.624  0.00  0.00    +0.210 HD
ENDBRANCH  28  31
ENDBRANCH  24  25
BRANCH  23  33
ATOM     33  O   LIG    1      -23.224  77.959  28.793  0.00  0.00    -0.492 OA
ATOM     34  H   LIG    1      -24.157  77.994  28.510  0.00  0.00    +0.294 HD
ENDBRANCH  23  33
ENDBRANCH   4  23
TORSDOF 6
ENDMDL
MODEL 3
REMARK VINA RESULT:      -5.8     19.816     22.145
REMARK  Name = pdb/CHEMBL3955007.pdb
REMARK                            x       y       z     vdW  Elec       q    Type
REMARK                         _______ _______ _______ _____ _____    ______ ____
ROOT
ATOM      1  C   LIG    1      -32.637  67.921  16.852  0.00  0.00    +0.126 A 
ATOM      2  N   LIG    1      -33.743  67.887  17.578  0.00  0.00    -0.212 NA
ATOM      3  C   LIG    1      -34.747  67.027  17.211  0.00  0.00    +0.170 A 
ATOM      4  C   LIG    1      -35.987  66.748  17.777  0.00  0.00    +0.100 A 
ATOM      5  C   LIG    1      -36.452  65.660  17.009  0.00  0.00    +0.150 A 
ATOM      6  N   LIG    1      -35.658  65.340  15.988  0.00  0.00    -0.173 NA
ATOM      7  N   LIG    1      -34.610  66.181  16.113  0.00  0.00    -0.221 N 
ATOM      8  C   LIG    1      -33.477  66.233  15.318  0.00  0.00    +0.118 A 
ATOM      9  C   LIG    1      -32.483  67.081  15.608  0.00  0.00    +0.063 A 
ENDROOT
BRANCH   1  11
ATOM     10  C   LIG    1      -30.871  68.625  18.580  0.00  0.00    +0.107 C 
ATOM     11  N   LIG    1      -31.597  68.733  17.293  0.00  0.00    -0.308 N 
ATOM     12  C   LIG    1      -31.457  70.088  16.747  0.00  0.00    +0.107 C 
ATOM     13  C   LIG    1      -31.011  70.926  17.934  0.00  0.00    +0.021 C 
ATOM     14  C   LIG    1      -30.117  69.965  18.694  0.00  0.00    +0.029 C 
BRANCH  10  17
ATOM     15  C   LIG    1      -31.658  65.843  19.592  0.00  0.00    +0.066 C 
ATOM     16  C   LIG    1      -30.277  66.176  19.104  0.00  0.00    +0.043 A 
ATOM     17  C   LIG    1      -29.906  67.454  18.641  0.00  0.00    -0.003 A 
ATOM     18  C   LIG    1      -28.560  67.628  18.266  0.00  0.00    +0.047 A 
ATOM     19  C   LIG    1      -27.672  66.566  18.330  0.00  0.00    +0.142 A 
ATOM     20  F   LIG    1      -26.397  66.727  17.958  0.00  0.00    -0.204 F 
ATOM     21  C   LIG    1      -28.126  65.349  18.783  0.00  0.00    +0.149 A 
ATOM     22  N   LIG    1      -29.402  65.135  19.176  0.00  0.00    -0.257 NA
ENDBRANCH  10  17
ENDBRANCH   1  11
BRANCH   4  23
ATOM     23  C   LIG    1      -36.571  67.368  18.955  0.00  0.00    +0.221 C 
ATOM     24  N   LIG    1      -36.302  67.175  20.182  0.00  0.00    -0.247 NA
BRANCH  24  25
ATOM     25  C   LIG    1      -35.379  66.189  20.738  0.00  0.00    +0.109 C 
ATOM     26  C   LIG    1      -36.188  65.111  21.472  0.00  0.00    +0.029 C 
ATOM     27  C   LIG    1      -36.861  65.630  22.742  0.00  0.00    +0.033 C 
ATOM     28  C   LIG    1      -35.857  66.291  23.685  0.00  0.00    +0.115 C 
ATOM     29  C   LIG    1      -35.057  67.385  22.982  0.00  0.00    +0.033 C 
ATOM     30  C   LIG    1      -34.400  66.891  21.688  0.00  0.00    +0.029 C 
BRANCH  28  31
ATOM     31  O   LIG    1      -34.950  65.308  24.185  0.00  0.00    -0.392 OA
ATOM     32  H   LIG    1      -34.049  65.638  24.022  0.00  0.00    +0.210 HD
ENDBRANCH  28  31
ENDBRANCH  24  25
BRANCH  23  33
ATOM     33  O   LIG    1      -37.531  68.290  18.683  0.00  0.00    -0.492 OA
ATOM     34  H   LIG    1      -38.418  67.962  18.925  0.00  0.00    +0.294 HD
ENDBRANCH  23  33
ENDBRANCH   4  23
TORSDOF 6
ENDMDL
MODEL 4
REMARK VINA RESULT:      -5.7      7.055     10.977
REMARK  Name = pdb/CHEMBL3955007.pdb
REMARK                            x       y       z     vdW  Elec       q    Type
REMARK                         _______ _______ _______ _____ _____    ______ ____
ROOT
ATOM      1  C   LIG    1      -32.046  74.971  31.071  0.00  0.00    +0.126 A 
ATOM      2  N   LIG    1      -30.934  75.690  31.112  0.00  0.00    -0.212 NA
ATOM      3  C   LIG    1      -30.359  75.943  32.331  0.00  0.00    +0.170 A 
ATOM      4  C   LIG    1      -29.201  76.626  32.690  0.00  0.00    +0.100 A 
ATOM      5  C   LIG    1      -29.098  76.379  34.075  0.00  0.00    +0.150 A 
ATOM      6  N   LIG    1      -30.131  75.707  34.581  0.00  0.00    -0.173 NA
ATOM      7  N   LIG    1      -30.906  75.439  33.509  0.00  0.00    -0.221 N 
ATOM      8  C   LIG    1      -32.090  74.722  33.488  0.00  0.00    +0.118 A 
ATOM      9  C   LIG    1      -32.715  74.477  32.330  0.00  0.00    +0.063 A 
ENDROOT
BRANCH   1  11
ATOM     10  C   LIG    1      -33.767  75.228  29.180  0.00  0.00    +0.107 C 
ATOM     11  N   LIG    1      -32.563  74.650  29.819  0.00  0.00    -0.308 N 
ATOM     12  C   LIG    1      -32.255  73.344  29.225  0.00  0.00    +0.107 C 
ATOM     13  C   LIG    1      -33.543  72.936  28.528  0.00  0.00    +0.021 C 
ATOM     14  C   LIG    1      -34.071  74.263  28.018  0.00  0.00    +0.029 C 
BRANCH  10  17
ATOM     15  C   LIG    1      -34.845  77.707  30.622  0.00  0.00    +0.066 C 
ATOM     16  C   LIG    1      -34.064  77.781  29.341  0.00  0.00    +0.043 A 
ATOM     17  C   LIG    1      -33.568  76.645  28.670  0.00  0.00    -0.003 A 
ATOM     18  C   LIG    1      -32.900  76.868  27.451  0.00  0.00    +0.047 A 
ATOM     19  C   LIG    1      -32.723  78.158  26.974  0.00  0.00    +0.142 A 
ATOM     20  F   LIG    1      -32.074  78.371  25.825  0.00  0.00    -0.204 F 
ATOM     21  C   LIG    1      -33.230  79.209  27.704  0.00  0.00    +0.149 A 
ATOM     22  N   LIG    1      -33.899  79.047  28.868  0.00  0.00    -0.257 NA
ENDBRANCH  10  17
ENDBRANCH   1  11
BRANCH   4  23
ATOM     23  C   LIG    1      -28.278  77.312  31.800  0.00  0.00    +0.221 C 
ATOM     24  N   LIG    1      -27.024  77.151  31.663  0.00  0.00    -0.247 NA
BRANCH  24  25
ATOM     25  C   LIG    1      -26.155  76.281  32.451  0.00  0.00    +0.109 C 
ATOM     26  C   LIG    1      -25.368  77.139  33.450  0.00  0.00    +0.029 C 
ATOM     27  C   LIG    1      -24.339  78.046  32.776  0.00  0.00    +0.033 C 
ATOM     28  C   LIG    1      -23.392  77.258  31.875  0.00  0.00    +0.115 C 
ATOM     29  C   LIG    1      -24.154  76.414  30.856  0.00  0.00    +0.033 C 
ATOM     30  C   LIG    1      -25.213  75.520  31.510  0.00  0.00    +0.029 C 
BRANCH  28  31
ATOM     31  O   LIG    1      -22.580  76.393  32.671  0.00  0.00    -0.392 OA
ATOM     32  H   LIG    1      -22.986  75.509  32.642  0.00  0.00    +0.210 HD
ENDBRANCH  28  31
ENDBRANCH  24  25
BRANCH  23  33
ATOM     33  O   LIG    1      -28.860  78.244  31.001  0.00  0.00    -0.492 OA
ATOM     34  H   LIG    1      -29.529  77.842  30.416  0.00  0.00    +0.294 HD
ENDBRANCH  23  33
ENDBRANCH   4  23
TORSDOF 6
ENDMDL
MODEL 5
REMARK VINA RESULT:      -5.7     17.397     19.842
REMARK  Name = pdb/CHEMBL3955007.pdb
REMARK                            x       y       z     vdW  Elec       q    Type
REMARK                         _______ _______ _______ _____ _____    ______ ____
ROOT
ATOM      1  C   LIG    1      -25.964  74.893  13.531  0.00  0.00    +0.126 A 
ATOM      2  N   LIG    1      -25.813  76.062  14.133  0.00  0.00    -0.212 NA
ATOM      3  C   LIG    1      -25.914  77.207  13.385  0.00  0.00    +0.170 A 
ATOM      4  C   LIG    1      -25.835  78.553  13.728  0.00  0.00    +0.100 A 
ATOM      5  C   LIG    1      -26.185  79.211  12.530  0.00  0.00    +0.150 A 
ATOM      6  N   LIG    1      -26.362  78.390  11.496  0.00  0.00    -0.173 NA
ATOM      7  N   LIG    1      -26.196  77.159  12.022  0.00  0.00    -0.221 N 
ATOM      8  C   LIG    1      -26.315  75.944  11.367  0.00  0.00    +0.118 A 
ATOM      9  C   LIG    1      -26.189  74.795  12.042  0.00  0.00    +0.063 A 
ENDROOT
BRANCH   1  11
ATOM     10  C   LIG    1      -24.847  72.765  14.441  0.00  0.00    +0.107 C 
ATOM     11  N   LIG    1      -25.948  73.749  14.322  0.00  0.00    -0.308 N 
ATOM     12  C   LIG    1      -27.218  73.136  14.730  0.00  0.00    +0.107 C 
ATOM     13  C   LIG    1      -26.948  71.642  14.674  0.00  0.00    +0.021 C 
ATOM     14  C   LIG    1      -25.504  71.553  15.130  0.00  0.00    +0.029 C 
BRANCH  10  17
ATOM     15  C   LIG    1      -22.324  73.946  13.166  0.00  0.00    +0.066 C 
ATOM     16  C   LIG    1      -22.506  73.814  14.651  0.00  0.00    +0.043 A 
ATOM     17  C   LIG    1      -23.662  73.268  15.245  0.00  0.00    -0.003 A 
ATOM     18  C   LIG    1      -23.664  73.162  16.649  0.00  0.00    +0.047 A 
ATOM     19  C   LIG    1      -22.581  73.609  17.389  0.00  0.00    +0.142 A 
ATOM     20  F   LIG    1      -22.591  73.523  18.724  0.00  0.00    -0.204 F 
ATOM     21  C   LIG    1      -21.499  74.140  16.724  0.00  0.00    +0.149 A 
ATOM     22  N   LIG    1      -21.437  74.245  15.377  0.00  0.00    -0.257 NA
ENDBRANCH  10  17
ENDBRANCH   1  11
BRANCH   4  23
ATOM     23  C   LIG    1      -25.573  79.106  15.047  0.00  0.00    +0.221 C 
ATOM     24  N   LIG    1      -24.623  79.860  15.428  0.00  0.00    -0.247 NA
BRANCH  24  25
ATOM     25  C   LIG    1      -23.472  80.295  14.641  0.00  0.00    +0.109 C 
ATOM     26  C   LIG    1      -22.188  79.823  15.335  0.00  0.00    +0.029 C 
ATOM     27  C   LIG    1      -21.925  80.541  16.658  0.00  0.00    +0.033 C 
ATOM     28  C   LIG    1      -21.922  82.058  16.488  0.00  0.00    +0.115 C 
ATOM     29  C   LIG    1      -23.203  82.555  15.820  0.00  0.00    +0.033 C 
ATOM     30  C   LIG    1      -23.500  81.823  14.507  0.00  0.00    +0.029 C 
BRANCH  28  31
ATOM     31  O   LIG    1      -20.806  82.449  15.687  0.00  0.00    -0.392 OA
ATOM     32  H   LIG    1      -20.297  83.102  16.199  0.00  0.00    +0.210 HD
ENDBRANCH  28  31
ENDBRANCH  24  25
BRANCH  23  33
ATOM     33  O   LIG    1      -26.493  78.768  15.988  0.00  0.00    -0.492 OA
ATOM     34  H   LIG    1      -27.133  78.118  15.641  0.00  0.00    +0.294 HD
ENDBRANCH  23  33
ENDBRANCH   4  23
TORSDOF 6
ENDMDL
MODEL 6
REMARK VINA RESULT:      -5.6     18.220     21.247
REMARK  Name = pdb/CHEMBL3955007.pdb
REMARK                            x       y       z     vdW  Elec       q    Type
REMARK                         _______ _______ _______ _____ _____    ______ ____
ROOT
ATOM      1  C   LIG    1      -23.640  82.167  13.490  0.00  0.00    +0.126 A 
ATOM      2  N   LIG    1      -23.111  83.155  12.785  0.00  0.00    -0.212 NA
ATOM      3  C   LIG    1      -23.768  83.589  11.662  0.00  0.00    +0.170 A 
ATOM      4  C   LIG    1      -23.486  84.603  10.752  0.00  0.00    +0.100 A 
ATOM      5  C   LIG    1      -24.635  84.628   9.934  0.00  0.00    +0.150 A 
ATOM      6  N   LIG    1      -25.515  83.666  10.208  0.00  0.00    -0.173 NA
ATOM      7  N   LIG    1      -24.982  83.027  11.271  0.00  0.00    -0.221 N 
ATOM      8  C   LIG    1      -25.528  81.966  11.971  0.00  0.00    +0.118 A 
ATOM      9  C   LIG    1      -24.910  81.478  13.054  0.00  0.00    +0.063 A 
ENDROOT
BRANCH   1  11
ATOM     10  C   LIG    1      -23.493  80.833  15.681  0.00  0.00    +0.107 C 
ATOM     11  N   LIG    1      -23.006  81.804  14.674  0.00  0.00    -0.308 N 
ATOM     12  C   LIG    1      -22.041  82.724  15.287  0.00  0.00    +0.107 C 
ATOM     13  C   LIG    1      -22.281  82.580  16.780  0.00  0.00    +0.021 C 
ATOM     14  C   LIG    1      -22.614  81.107  16.916  0.00  0.00    +0.029 C 
BRANCH  10  17
ATOM     15  C   LIG    1      -25.882  78.924  15.491  0.00  0.00    +0.066 C 
ATOM     16  C   LIG    1      -24.477  78.513  15.152  0.00  0.00    +0.043 A 
ATOM     17  C   LIG    1      -23.372  79.384  15.241  0.00  0.00    -0.003 A 
ATOM     18  C   LIG    1      -22.109  78.840  14.940  0.00  0.00    +0.047 A 
ATOM     19  C   LIG    1      -21.990  77.516  14.548  0.00  0.00    +0.142 A 
ATOM     20  F   LIG    1      -20.792  77.004  14.247  0.00  0.00    -0.204 F 
ATOM     21  C   LIG    1      -23.126  76.742  14.477  0.00  0.00    +0.149 A 
ATOM     22  N   LIG    1      -24.360  77.209  14.776  0.00  0.00    -0.257 NA
ENDBRANCH  10  17
ENDBRANCH   1  11
BRANCH   4  23
ATOM     23  C   LIG    1      -22.331  85.485  10.754  0.00  0.00    +0.221 C 
ATOM     24  N   LIG    1      -22.128  86.542  11.430  0.00  0.00    -0.247 NA
BRANCH  24  25
ATOM     25  C   LIG    1      -23.068  87.209  12.328  0.00  0.00    +0.109 C 
ATOM     26  C   LIG    1      -22.636  88.670  12.503  0.00  0.00    +0.029 C 
ATOM     27  C   LIG    1      -21.331  88.819  13.284  0.00  0.00    +0.033 C 
ATOM     28  C   LIG    1      -21.394  88.107  14.633  0.00  0.00    +0.115 C 
ATOM     29  C   LIG    1      -21.799  86.643  14.482  0.00  0.00    +0.033 C 
ATOM     30  C   LIG    1      -23.090  86.472  13.673  0.00  0.00    +0.029 C 
BRANCH  28  31
ATOM     31  O   LIG    1      -22.345  88.761  15.475  0.00  0.00    -0.392 OA
ATOM     32  H   LIG    1      -22.209  89.719  15.374  0.00  0.00    +0.210 HD
ENDBRANCH  28  31
ENDBRANCH  24  25
BRANCH  23  33
ATOM     33  O   LIG    1      -21.331  85.100   9.918  0.00  0.00    -0.492 OA
ATOM     34  H   LIG    1      -21.405  84.154   9.689  0.00  0.00    +0.294 HD
ENDBRANCH  23  33
ENDBRANCH   4  23
TORSDOF 6
ENDMDL
MODEL 7
REMARK VINA RESULT:      -5.6     18.999     22.538
REMARK  Name = pdb/CHEMBL3955007.pdb
REMARK                            x       y       z     vdW  Elec       q    Type
REMARK                         _______ _______ _______ _____ _____    ______ ____
ROOT
ATOM      1  C   LIG    1      -30.056  67.484  18.016  0.00  0.00    +0.126 A 
ATOM      2  N   LIG    1      -30.648  68.585  17.580  0.00  0.00    -0.212 NA
ATOM      3  C   LIG    1      -30.086  69.799  17.883  0.00  0.00    +0.170 A 
ATOM      4  C   LIG    1      -30.449  71.101  17.552  0.00  0.00    +0.100 A 
ATOM      5  C   LIG    1      -29.369  71.868  18.037  0.00  0.00    +0.150 A 
ATOM      6  N   LIG    1      -28.462  71.160  18.707  0.00  0.00    -0.173 NA
ATOM      7  N   LIG    1      -28.903  69.888  18.612  0.00  0.00    -0.221 N 
ATOM      8  C   LIG    1      -28.293  68.749  19.112  0.00  0.00    +0.118 A 
ATOM      9  C   LIG    1      -28.818  67.540  18.877  0.00  0.00    +0.063 A 
ENDROOT
BRANCH   1  11
ATOM     10  C   LIG    1      -31.650  65.490  18.311  0.00  0.00    +0.107 C 
ATOM     11  N   LIG    1      -30.590  66.261  17.621  0.00  0.00    -0.308 N 
ATOM     12  C   LIG    1      -29.801  65.374  16.759  0.00  0.00    +0.107 C 
ATOM     13  C   LIG    1      -30.111  63.978  17.274  0.00  0.00    +0.021 C 
ATOM     14  C   LIG    1      -31.572  64.092  17.667  0.00  0.00    +0.029 C 
BRANCH  10  17
ATOM     15  C   LIG    1      -33.605  65.851  20.642  0.00  0.00    +0.066 C 
ATOM     16  C   LIG    1      -33.931  66.250  19.231  0.00  0.00    +0.043 A 
ATOM     17  C   LIG    1      -33.039  66.083  18.153  0.00  0.00    -0.003 A 
ATOM     18  C   LIG    1      -33.506  66.455  16.878  0.00  0.00    +0.047 A 
ATOM     19  C   LIG    1      -34.777  66.987  16.725  0.00  0.00    +0.142 A 
ATOM     20  F   LIG    1      -35.215  67.355  15.516  0.00  0.00    -0.204 F 
ATOM     21  C   LIG    1      -35.576  67.125  17.837  0.00  0.00    +0.149 A 
ATOM     22  N   LIG    1      -35.183  66.763  19.079  0.00  0.00    -0.257 NA
ENDBRANCH  10  17
ENDBRANCH   1  11
BRANCH   4  23
ATOM     23  C   LIG    1      -31.609  71.517  16.780  0.00  0.00    +0.221 C 
ATOM     24  N   LIG    1      -31.850  71.357  15.543  0.00  0.00    -0.247 NA
BRANCH  24  25
ATOM     25  C   LIG    1      -30.960  70.783  14.537  0.00  0.00    +0.109 C 
ATOM     26  C   LIG    1      -31.014  71.651  13.273  0.00  0.00    +0.029 C 
ATOM     27  C   LIG    1      -32.359  71.571  12.551  0.00  0.00    +0.033 C 
ATOM     28  C   LIG    1      -32.748  70.129  12.236  0.00  0.00    +0.115 C 
ATOM     29  C   LIG    1      -32.724  69.251  13.485  0.00  0.00    +0.033 C 
ATOM     30  C   LIG    1      -31.394  69.342  14.240  0.00  0.00    +0.029 C 
BRANCH  28  31
ATOM     31  O   LIG    1      -31.839  69.586  11.276  0.00  0.00    -0.392 OA
ATOM     32  H   LIG    1      -32.020  68.632  11.216  0.00  0.00    +0.210 HD
ENDBRANCH  28  31
ENDBRANCH  24  25
BRANCH  23  33
ATOM     33  O   LIG    1      -32.564  72.155  17.506  0.00  0.00    -0.492 OA
ATOM     34  H   LIG    1      -33.326  72.404  16.950  0.00  0.00    +0.294 HD
ENDBRANCH  23  33
ENDBRANCH   4  23
TORSDOF 6
ENDMDL
MODEL 8
REMARK VINA RESULT:      -5.5      1.743      2.017
REMARK  Name = pdb/CHEMBL3955007.pdb
REMARK                            x       y       z     vdW  Elec       q    Type
REMARK                         _______ _______ _______ _____ _____    ______ ____
ROOT
ATOM      1  C   LIG    1      -25.199  78.460  35.272  0.00  0.00    +0.126 A 
ATOM      2  N   LIG    1      -25.037  78.368  33.961  0.00  0.00    -0.212 NA
ATOM      3  C   LIG    1      -25.844  77.512  33.256  0.00  0.00    +0.170 A 
ATOM      4  C   LIG    1      -25.933  77.224  31.897  0.00  0.00    +0.100 A 
ATOM      5  C   LIG    1      -27.067  76.388  31.820  0.00  0.00    +0.150 A 
ATOM      6  N   LIG    1      -27.588  76.075  33.005  0.00  0.00    -0.173 NA
ATOM      7  N   LIG    1      -26.837  76.766  33.887  0.00  0.00    -0.221 N 
ATOM      8  C   LIG    1      -26.992  76.818  35.262  0.00  0.00    +0.118 A 
ATOM      9  C   LIG    1      -26.207  77.609  36.004  0.00  0.00    +0.063 A 
ENDROOT
BRANCH   1  11
ATOM     10  C   LIG    1      -23.301  79.127  36.870  0.00  0.00    +0.107 C 
ATOM     11  N   LIG    1      -24.434  79.399  35.955  0.00  0.00    -0.308 N 
ATOM     12  C   LIG    1      -24.996  80.726  36.230  0.00  0.00    +0.107 C 
ATOM     13  C   LIG    1      -24.479  81.072  37.616  0.00  0.00    +0.021 C 
ATOM     14  C   LIG    1      -23.090  80.463  37.608  0.00  0.00    +0.029 C 
BRANCH  10  17
ATOM     15  C   LIG    1      -21.830  76.512  37.492  0.00  0.00    +0.066 C 
ATOM     16  C   LIG    1      -21.362  77.487  36.449  0.00  0.00    +0.043 A 
ATOM     17  C   LIG    1      -22.031  78.693  36.160  0.00  0.00    -0.003 A 
ATOM     18  C   LIG    1      -21.443  79.530  35.193  0.00  0.00    +0.047 A 
ATOM     19  C   LIG    1      -20.278  79.145  34.548  0.00  0.00    +0.142 A 
ATOM     20  F   LIG    1      -19.727  79.933  33.617  0.00  0.00    -0.204 F 
ATOM     21  C   LIG    1      -19.700  77.942  34.885  0.00  0.00    +0.149 A 
ATOM     22  N   LIG    1      -20.212  77.113  35.822  0.00  0.00    -0.257 NA
ENDBRANCH  10  17
ENDBRANCH   1  11
BRANCH   4  23
ATOM     23  C   LIG    1      -25.113  77.774  30.830  0.00  0.00    +0.221 C 
ATOM     24  N   LIG    1      -23.944  77.436  30.461  0.00  0.00    -0.247 NA
BRANCH  24  25
ATOM     25  C   LIG    1      -23.070  76.450  31.090  0.00  0.00    +0.109 C 
ATOM     26  C   LIG    1      -22.076  77.179  32.004  0.00  0.00    +0.029 C 
ATOM     27  C   LIG    1      -21.059  78.019  31.231  0.00  0.00    +0.033 C 
ATOM     28  C   LIG    1      -20.323  77.192  30.180  0.00  0.00    +0.115 C 
ATOM     29  C   LIG    1      -21.293  76.476  29.243  0.00  0.00    +0.033 C 
ATOM     30  C   LIG    1      -22.340  75.653  30.001  0.00  0.00    +0.029 C 
BRANCH  28  31
ATOM     31  O   LIG    1      -19.504  76.216  30.826  0.00  0.00    -0.392 OA
ATOM     32  H   LIG    1      -20.087  75.677  31.388  0.00  0.00    +0.210 HD
ENDBRANCH  28  31
ENDBRANCH  24  25
BRANCH  23  33
ATOM     33  O   LIG    1      -25.701  78.781  30.134  0.00  0.00    -0.492 OA
ATOM     34  H   LIG    1      -26.019  79.485  30.729  0.00  0.00    +0.294 HD
ENDBRANCH  23  33
ENDBRANCH   4  23
TORSDOF 6
ENDMDL
MODEL 9
REMARK VINA RESULT:      -5.5     18.319     21.670
REMARK  Name = pdb/CHEMBL3955007.pdb
REMARK                            x       y       z     vdW  Elec       q    Type
REMARK                         _______ _______ _______ _____ _____    ______ ____
ROOT
ATOM      1  C   LIG    1      -21.226  85.013  13.736  0.00  0.00    +0.126 A 
ATOM      2  N   LIG    1      -21.671  84.061  14.541  0.00  0.00    -0.212 NA
ATOM      3  C   LIG    1      -20.877  82.966  14.770  0.00  0.00    +0.170 A 
ATOM      4  C   LIG    1      -21.051  81.841  15.570  0.00  0.00    +0.100 A 
ATOM      5  C   LIG    1      -19.804  81.188  15.481  0.00  0.00    +0.150 A 
ATOM      6  N   LIG    1      -18.954  81.762  14.631  0.00  0.00    -0.173 NA
ATOM      7  N   LIG    1      -19.614  82.855  14.194  0.00  0.00    -0.221 N 
ATOM      8  C   LIG    1      -19.149  83.820  13.317  0.00  0.00    +0.118 A 
ATOM      9  C   LIG    1      -19.898  84.892  13.029  0.00  0.00    +0.063 A 
ENDROOT
BRANCH   1  11
ATOM     10  C   LIG    1      -22.329  86.855  12.325  0.00  0.00    +0.107 C 
ATOM     11  N   LIG    1      -22.006  86.155  13.590  0.00  0.00    -0.308 N 
ATOM     12  C   LIG    1      -22.169  87.069  14.727  0.00  0.00    +0.107 C 
ATOM     13  C   LIG    1      -22.163  88.453  14.099  0.00  0.00    +0.021 C 
ATOM     14  C   LIG    1      -22.882  88.218  12.785  0.00  0.00    +0.029 C 
BRANCH  10  17
ATOM     15  C   LIG    1      -21.620  85.520   9.659  0.00  0.00    +0.066 C 
ATOM     16  C   LIG    1      -23.007  85.508  10.239  0.00  0.00    +0.043 A 
ATOM     17  C   LIG    1      -23.341  86.123  11.462  0.00  0.00    -0.003 A 
ATOM     18  C   LIG    1      -24.693  86.073  11.849  0.00  0.00    +0.047 A 
ATOM     19  C   LIG    1      -25.625  85.415  11.061  0.00  0.00    +0.142 A 
ATOM     20  F   LIG    1      -26.907  85.354  11.437  0.00  0.00    -0.204 F 
ATOM     21  C   LIG    1      -25.205  84.831   9.887  0.00  0.00    +0.149 A 
ATOM     22  N   LIG    1      -23.923  84.870   9.459  0.00  0.00    -0.257 NA
ENDBRANCH  10  17
ENDBRANCH   1  11
BRANCH   4  23
ATOM     23  C   LIG    1      -22.211  81.517  16.385  0.00  0.00    +0.221 C 
ATOM     24  N   LIG    1      -23.020  80.542  16.279  0.00  0.00    -0.247 NA
BRANCH  24  25
ATOM     25  C   LIG    1      -23.046  79.526  15.230  0.00  0.00    +0.109 C 
ATOM     26  C   LIG    1      -23.446  80.190  13.907  0.00  0.00    +0.029 C 
ATOM     27  C   LIG    1      -24.899  80.663  13.890  0.00  0.00    +0.033 C 
ATOM     28  C   LIG    1      -25.865  79.535  14.245  0.00  0.00    +0.115 C 
ATOM     29  C   LIG    1      -25.500  78.875  15.572  0.00  0.00    +0.033 C 
ATOM     30  C   LIG    1      -24.037  78.422  15.619  0.00  0.00    +0.029 C 
BRANCH  28  31
ATOM     31  O   LIG    1      -25.842  78.543  13.218  0.00  0.00    -0.392 OA
ATOM     32  H   LIG    1      -26.382  78.878  12.481  0.00  0.00    +0.210 HD
ENDBRANCH  28  31
ENDBRANCH  24  25
BRANCH  23  33
ATOM     33  O   LIG    1      -22.438  82.385  17.405  0.00  0.00    -0.492 OA
ATOM     34  H   LIG    1      -21.669  82.438  18.003  0.00  0.00    +0.294 HD
ENDBRANCH  23  33
ENDBRANCH   4  23
TORSDOF 6
ENDMDL
