MODEL 1
REMARK VINA RESULT:      -7.3      0.000      0.000
REMARK  Name = pdb/CHEMBL3925931.pdb
REMARK                            x       y       z     vdW  Elec       q    Type
REMARK                         _______ _______ _______ _____ _____    ______ ____
ROOT
ATOM      1  C   LIG    1      -33.650  73.558  28.437  0.00  0.00    +0.149 A 
ATOM      2  N   LIG    1      -33.931  74.769  27.937  0.00  0.00    -0.160 NA
ATOM      3  N   LIG    1      -33.031  75.617  28.498  0.00  0.00    -0.218 N 
ATOM      4  C   LIG    1      -32.190  74.949  29.403  0.00  0.00    +0.129 A 
ATOM      5  C   LIG    1      -32.549  73.623  29.325  0.00  0.00    +0.078 A 
ENDROOT
BRANCH   3   6
ATOM      6  C   LIG    1      -33.072  77.004  28.161  0.00  0.00    +0.067 A 
ATOM      7  C   LIG    1      -33.806  77.925  28.918  0.00  0.00    +0.028 A 
ATOM      8  C   LIG    1      -33.852  79.272  28.546  0.00  0.00    +0.002 A 
ATOM      9  C   LIG    1      -33.146  79.715  27.430  0.00  0.00    +0.000 A 
ATOM     10  C   LIG    1      -32.388  78.813  26.686  0.00  0.00    +0.002 A 
ATOM     11  C   LIG    1      -32.340  77.465  27.053  0.00  0.00    +0.028 A 
ENDBRANCH   3   6
BRANCH   4  12
ATOM     12  N   LIG    1      -31.248  75.518  30.267  0.00  0.00    -0.266 N 
ATOM     13  H   LIG    1      -30.876  76.417  29.999  0.00  0.00    +0.157 HD
ATOM     14  C   LIG    1      -30.862  75.013  31.562  0.00  0.00    +0.251 C 
ATOM     15  O   LIG    1      -31.374  74.020  32.027  0.00  0.00    -0.270 OA
BRANCH  14  16
ATOM     16  C   LIG    1      -29.795  75.777  32.290  0.00  0.00    +0.056 A 
ATOM     17  C   LIG    1      -29.973  76.350  33.546  0.00  0.00    +0.054 A 
ATOM     18 CL   LIG    1      -31.472  76.360  34.403  0.00  0.00    -0.083 Cl
ATOM     19  C   LIG    1      -28.904  76.970  34.194  0.00  0.00    +0.041 A 
ATOM     20  C   LIG    1      -27.635  77.045  33.604  0.00  0.00    +0.052 A 
ATOM     21 CL   LIG    1      -26.457  77.874  34.565  0.00  0.00    -0.083 Cl
ATOM     22  C   LIG    1      -27.399  76.517  32.319  0.00  0.00    +0.019 A 
ATOM     23  C   LIG    1      -28.515  75.890  31.683  0.00  0.00    +0.026 A 
BRANCH  22  24
ATOM     24  C   LIG    1      -26.100  76.594  31.586  0.00  0.00    +0.073 A 
ATOM     25  N   LIG    1      -25.864  77.790  30.978  0.00  0.00    -0.252 NA
ATOM     26  C   LIG    1      -24.713  77.933  30.266  0.00  0.00    +0.149 A 
ATOM     27  C   LIG    1      -23.766  76.939  30.127  0.00  0.00    +0.141 A 
ATOM     28  F   LIG    1      -22.658  77.136  29.405  0.00  0.00    -0.204 F 
ATOM     29  C   LIG    1      -23.996  75.724  30.742  0.00  0.00    +0.042 A 
ATOM     30  C   LIG    1      -25.180  75.546  31.465  0.00  0.00    +0.031 A 
ENDBRANCH  22  24
ENDBRANCH  14  16
ENDBRANCH   4  12
BRANCH   1  31
ATOM     31  C   LIG    1      -34.448  72.372  28.115  0.00  0.00    +0.236 C 
ATOM     32  N   LIG    1      -34.147  71.244  28.653  0.00  0.00    -0.243 NA
BRANCH  31  33
ATOM     33  O   LIG    1      -35.458  72.582  27.244  0.00  0.00    -0.491 OA
ATOM     34  H   LIG    1      -35.249  73.228  26.560  0.00  0.00    +0.294 HD
ENDBRANCH  31  33
BRANCH  32  35
ATOM     35  C   LIG    1      -34.940  70.063  28.343  0.00  0.00    +0.201 C 
BRANCH  35  36
ATOM     36  C   LIG    1      -34.855  69.757  26.898  0.00  0.00    +0.077 A 
ATOM     37  N   LIG    1      -35.920  69.790  26.041  0.00  0.00    -0.260 N 
ATOM     38  H   LIG    1      -36.883  70.038  26.228  0.00  0.00    +0.190 HD
ATOM     39  N   LIG    1      -35.566  69.441  24.795  0.00  0.00    -0.068 NA
ATOM     40  N   LIG    1      -34.266  69.183  24.809  0.00  0.00    -0.138 NA
ATOM     41  C   LIG    1      -33.811  69.373  26.083  0.00  0.00    +0.161 A 
ENDBRANCH  35  36
ENDBRANCH  32  35
ENDBRANCH   1  31
TORSDOF 8
ENDMDL
MODEL 2
REMARK VINA RESULT:      -7.3     16.507     19.536
REMARK  Name = pdb/CHEMBL3925931.pdb
REMARK                            x       y       z     vdW  Elec       q    Type
REMARK                         _______ _______ _______ _____ _____    ______ ____
ROOT
ATOM      1  C   LIG    1      -22.862  82.775  15.507  0.00  0.00    +0.149 A 
ATOM      2  N   LIG    1      -23.949  82.225  14.950  0.00  0.00    -0.160 NA
ATOM      3  N   LIG    1      -23.757  80.883  15.012  0.00  0.00    -0.218 N 
ATOM      4  C   LIG    1      -22.509  80.567  15.576  0.00  0.00    +0.129 A 
ATOM      5  C   LIG    1      -21.959  81.774  15.943  0.00  0.00    +0.078 A 
ENDROOT
BRANCH   3   6
ATOM      6  C   LIG    1      -24.756  80.007  14.488  0.00  0.00    +0.067 A 
ATOM      7  C   LIG    1      -25.386  79.045  15.286  0.00  0.00    +0.028 A 
ATOM      8  C   LIG    1      -26.338  78.182  14.737  0.00  0.00    +0.002 A 
ATOM      9  C   LIG    1      -26.689  78.288  13.394  0.00  0.00    +0.000 A 
ATOM     10  C   LIG    1      -26.091  79.261  12.596  0.00  0.00    +0.002 A 
ATOM     11  C   LIG    1      -25.136  80.126  13.140  0.00  0.00    +0.028 A 
ENDBRANCH   3   6
BRANCH   4  12
ATOM     12  N   LIG    1      -21.911  79.305  15.667  0.00  0.00    -0.266 N 
ATOM     13  H   LIG    1      -21.843  78.904  16.590  0.00  0.00    +0.157 HD
ATOM     14  C   LIG    1      -21.511  78.469  14.561  0.00  0.00    +0.251 C 
ATOM     15  O   LIG    1      -21.698  78.810  13.416  0.00  0.00    -0.270 OA
BRANCH  14  16
ATOM     16  C   LIG    1      -20.850  77.168  14.909  0.00  0.00    +0.056 A 
ATOM     17  C   LIG    1      -19.490  76.922  14.749  0.00  0.00    +0.054 A 
ATOM     18 CL   LIG    1      -18.383  78.035  14.029  0.00  0.00    -0.083 Cl
ATOM     19  C   LIG    1      -18.937  75.715  15.177  0.00  0.00    +0.041 A 
ATOM     20  C   LIG    1      -19.726  74.718  15.767  0.00  0.00    +0.052 A 
ATOM     21 CL   LIG    1      -18.849  73.291  16.206  0.00  0.00    -0.083 Cl
ATOM     22  C   LIG    1      -21.116  74.889  15.924  0.00  0.00    +0.019 A 
ATOM     23  C   LIG    1      -21.649  76.137  15.474  0.00  0.00    +0.026 A 
BRANCH  22  24
ATOM     24  C   LIG    1      -22.047  73.868  16.490  0.00  0.00    +0.073 A 
ATOM     25  N   LIG    1      -22.949  73.371  15.597  0.00  0.00    -0.252 NA
ATOM     26  C   LIG    1      -23.852  72.453  16.041  0.00  0.00    +0.149 A 
ATOM     27  C   LIG    1      -23.905  71.992  17.340  0.00  0.00    +0.141 A 
ATOM     28  F   LIG    1      -24.823  71.096  17.719  0.00  0.00    -0.204 F 
ATOM     29  C   LIG    1      -22.993  72.490  18.250  0.00  0.00    +0.042 A 
ATOM     30  C   LIG    1      -22.066  73.446  17.824  0.00  0.00    +0.031 A 
ENDBRANCH  22  24
ENDBRANCH  14  16
ENDBRANCH   4  12
BRANCH   1  31
ATOM     31  C   LIG    1      -22.664  84.225  15.577  0.00  0.00    +0.236 C 
ATOM     32  N   LIG    1      -22.525  84.895  14.488  0.00  0.00    -0.243 NA
BRANCH  31  33
ATOM     33  O   LIG    1      -22.636  84.739  16.824  0.00  0.00    -0.491 OA
ATOM     34  H   LIG    1      -22.003  85.460  16.930  0.00  0.00    +0.294 HD
ENDBRANCH  31  33
BRANCH  32  35
ATOM     35  C   LIG    1      -22.336  86.338  14.549  0.00  0.00    +0.201 C 
BRANCH  35  36
ATOM     36  C   LIG    1      -20.974  86.692  14.090  0.00  0.00    +0.077 A 
ATOM     37  N   LIG    1      -19.917  85.824  14.079  0.00  0.00    -0.260 N 
ATOM     38  H   LIG    1      -19.890  84.846  14.340  0.00  0.00    +0.190 HD
ATOM     39  N   LIG    1      -18.794  86.415  13.644  0.00  0.00    -0.068 NA
ATOM     40  N   LIG    1      -19.095  87.673  13.353  0.00  0.00    -0.138 NA
ATOM     41  C   LIG    1      -20.422  87.862  13.616  0.00  0.00    +0.161 A 
ENDBRANCH  35  36
ENDBRANCH  32  35
ENDBRANCH   1  31
TORSDOF 8
ENDMDL
MODEL 3
REMARK VINA RESULT:      -7.2     16.496     19.744
REMARK  Name = pdb/CHEMBL3925931.pdb
REMARK                            x       y       z     vdW  Elec       q    Type
REMARK                         _______ _______ _______ _____ _____    ______ ____
ROOT
ATOM      1  C   LIG    1      -22.080  82.419  15.577  0.00  0.00    +0.149 A 
ATOM      2  N   LIG    1      -20.821  81.963  15.629  0.00  0.00    -0.160 NA
ATOM      3  N   LIG    1      -20.910  80.616  15.485  0.00  0.00    -0.218 N 
ATOM      4  C   LIG    1      -22.247  80.197  15.384  0.00  0.00    +0.129 A 
ATOM      5  C   LIG    1      -22.993  81.353  15.387  0.00  0.00    +0.078 A 
ENDROOT
BRANCH   3   6
ATOM      6  C   LIG    1      -19.717  79.831  15.501  0.00  0.00    +0.067 A 
ATOM      7  C   LIG    1      -18.768  79.910  14.474  0.00  0.00    +0.028 A 
ATOM      8  C   LIG    1      -17.625  79.105  14.502  0.00  0.00    +0.002 A 
ATOM      9  C   LIG    1      -17.407  78.234  15.566  0.00  0.00    +0.000 A 
ATOM     10  C   LIG    1      -18.330  78.169  16.609  0.00  0.00    +0.002 A 
ATOM     11  C   LIG    1      -19.475  78.970  16.585  0.00  0.00    +0.028 A 
ENDBRANCH   3   6
BRANCH   4  12
ATOM     12  N   LIG    1      -22.727  78.883  15.370  0.00  0.00    -0.266 N 
ATOM     13  H   LIG    1      -23.352  78.624  16.119  0.00  0.00    +0.157 HD
ATOM     14  C   LIG    1      -22.526  77.911  14.324  0.00  0.00    +0.251 C 
ATOM     15  O   LIG    1      -21.915  78.190  13.317  0.00  0.00    -0.270 OA
BRANCH  14  16
ATOM     16  C   LIG    1      -23.106  76.546  14.554  0.00  0.00    +0.056 A 
ATOM     17  C   LIG    1      -24.142  76.007  13.798  0.00  0.00    +0.054 A 
ATOM     18 CL   LIG    1      -24.984  76.864  12.557  0.00  0.00    -0.083 Cl
ATOM     19  C   LIG    1      -24.567  74.697  14.019  0.00  0.00    +0.041 A 
ATOM     20  C   LIG    1      -23.978  73.894  15.005  0.00  0.00    +0.052 A 
ATOM     21 CL   LIG    1      -24.666  72.310  15.131  0.00  0.00    -0.083 Cl
ATOM     22  C   LIG    1      -22.950  74.392  15.830  0.00  0.00    +0.019 A 
ATOM     23  C   LIG    1      -22.539  75.738  15.577  0.00  0.00    +0.026 A 
BRANCH  22  24
ATOM     24  C   LIG    1      -22.297  73.635  16.940  0.00  0.00    +0.073 A 
ATOM     25  N   LIG    1      -21.023  73.232  16.676  0.00  0.00    -0.252 NA
ATOM     26  C   LIG    1      -20.367  72.513  17.627  0.00  0.00    +0.149 A 
ATOM     27  C   LIG    1      -20.915  72.172  18.847  0.00  0.00    +0.141 A 
ATOM     28  F   LIG    1      -20.223  71.453  19.739  0.00  0.00    -0.204 F 
ATOM     29  C   LIG    1      -22.205  72.578  19.123  0.00  0.00    +0.042 A 
ATOM     30  C   LIG    1      -22.907  73.303  18.156  0.00  0.00    +0.031 A 
ENDBRANCH  22  24
ENDBRANCH  14  16
ENDBRANCH   4  12
BRANCH   1  31
ATOM     31  C   LIG    1      -22.410  83.835  15.756  0.00  0.00    +0.236 C 
ATOM     32  N   LIG    1      -22.314  84.636  14.754  0.00  0.00    -0.243 NA
BRANCH  31  33
ATOM     33  O   LIG    1      -22.790  84.180  17.003  0.00  0.00    -0.491 OA
ATOM     34  H   LIG    1      -23.616  84.678  17.032  0.00  0.00    +0.294 HD
ENDBRANCH  31  33
BRANCH  32  35
ATOM     35  C   LIG    1      -22.648  86.043  14.923  0.00  0.00    +0.201 C 
BRANCH  35  36
ATOM     36  C   LIG    1      -21.565  86.892  14.376  0.00  0.00    +0.077 A 
ATOM     37  N   LIG    1      -20.237  86.712  14.648  0.00  0.00    -0.260 N 
ATOM     38  H   LIG    1      -19.791  85.999  15.211  0.00  0.00    +0.190 HD
ATOM     39  N   LIG    1      -19.478  87.641  14.047  0.00  0.00    -0.068 NA
ATOM     40  N   LIG    1      -20.289  88.437  13.364  0.00  0.00    -0.138 NA
ATOM     41  C   LIG    1      -21.569  87.995  13.550  0.00  0.00    +0.161 A 
ENDBRANCH  35  36
ENDBRANCH  32  35
ENDBRANCH   1  31
TORSDOF 8
ENDMDL
MODEL 4
REMARK VINA RESULT:      -7.2      7.512     12.569
REMARK  Name = pdb/CHEMBL3925931.pdb
REMARK                            x       y       z     vdW  Elec       q    Type
REMARK                         _______ _______ _______ _____ _____    ______ ____
ROOT
ATOM      1  C   LIG    1      -37.461  75.793  26.414  0.00  0.00    +0.149 A 
ATOM      2  N   LIG    1      -38.541  76.375  25.875  0.00  0.00    -0.160 NA
ATOM      3  N   LIG    1      -39.133  75.421  25.114  0.00  0.00    -0.218 N 
ATOM      4  C   LIG    1      -38.400  74.222  25.128  0.00  0.00    +0.129 A 
ATOM      5  C   LIG    1      -37.360  74.441  26.002  0.00  0.00    +0.078 A 
ENDROOT
BRANCH   3   6
ATOM      6  C   LIG    1      -40.327  75.739  24.397  0.00  0.00    +0.067 A 
ATOM      7  C   LIG    1      -41.164  74.743  23.879  0.00  0.00    +0.028 A 
ATOM      8  C   LIG    1      -42.309  75.085  23.155  0.00  0.00    +0.002 A 
ATOM      9  C   LIG    1      -42.643  76.423  22.963  0.00  0.00    +0.000 A 
ATOM     10  C   LIG    1      -41.834  77.423  23.499  0.00  0.00    +0.002 A 
ATOM     11  C   LIG    1      -40.686  77.086  24.222  0.00  0.00    +0.028 A 
ENDBRANCH   3   6
BRANCH   4  12
ATOM     12  N   LIG    1      -38.626  73.078  24.354  0.00  0.00    -0.266 N 
ATOM     13  H   LIG    1      -38.381  73.140  23.377  0.00  0.00    +0.157 HD
ATOM     14  C   LIG    1      -39.041  71.786  24.842  0.00  0.00    +0.251 C 
ATOM     15  O   LIG    1      -39.208  71.585  26.023  0.00  0.00    -0.270 OA
BRANCH  14  16
ATOM     16  C   LIG    1      -39.258  70.717  23.811  0.00  0.00    +0.056 A 
ATOM     17  C   LIG    1      -40.482  70.469  23.198  0.00  0.00    +0.054 A 
ATOM     18 CL   LIG    1      -41.952  71.278  23.607  0.00  0.00    -0.083 Cl
ATOM     19  C   LIG    1      -40.582  69.514  22.186  0.00  0.00    +0.041 A 
ATOM     20  C   LIG    1      -39.468  68.775  21.765  0.00  0.00    +0.052 A 
ATOM     21 CL   LIG    1      -39.811  67.629  20.514  0.00  0.00    -0.083 Cl
ATOM     22  C   LIG    1      -38.207  68.952  22.371  0.00  0.00    +0.019 A 
ATOM     23  C   LIG    1      -38.141  69.937  23.405  0.00  0.00    +0.026 A 
BRANCH  22  24
ATOM     24  C   LIG    1      -36.976  68.178  22.032  0.00  0.00    +0.073 A 
ATOM     25  N   LIG    1      -36.041  68.142  23.022  0.00  0.00    -0.252 NA
ATOM     26  C   LIG    1      -34.877  67.478  22.782  0.00  0.00    +0.149 A 
ATOM     27  C   LIG    1      -34.590  66.834  21.596  0.00  0.00    +0.141 A 
ATOM     28  F   LIG    1      -33.422  66.206  21.416  0.00  0.00    -0.204 F 
ATOM     29  C   LIG    1      -35.533  66.865  20.588  0.00  0.00    +0.042 A 
ATOM     30  C   LIG    1      -36.730  67.555  20.803  0.00  0.00    +0.031 A 
ENDBRANCH  22  24
ENDBRANCH  14  16
ENDBRANCH   4  12
BRANCH   1  31
ATOM     31  C   LIG    1      -36.516  76.524  27.262  0.00  0.00    +0.236 C 
ATOM     32  N   LIG    1      -35.362  76.011  27.507  0.00  0.00    -0.243 NA
BRANCH  31  33
ATOM     33  O   LIG    1      -36.965  77.707  27.730  0.00  0.00    -0.491 OA
ATOM     34  H   LIG    1      -37.919  77.729  27.869  0.00  0.00    +0.294 HD
ENDBRANCH  31  33
BRANCH  32  35
ATOM     35  C   LIG    1      -34.415  76.736  28.343  0.00  0.00    +0.201 C 
BRANCH  35  36
ATOM     36  C   LIG    1      -33.701  77.753  27.539  0.00  0.00    +0.077 A 
ATOM     37  N   LIG    1      -32.974  77.472  26.415  0.00  0.00    -0.260 N 
ATOM     38  H   LIG    1      -32.829  76.583  25.953  0.00  0.00    +0.190 HD
ATOM     39  N   LIG    1      -32.408  78.574  25.901  0.00  0.00    -0.068 NA
ATOM     40  N   LIG    1      -32.761  79.596  26.669  0.00  0.00    -0.138 NA
ATOM     41  C   LIG    1      -33.553  79.116  27.673  0.00  0.00    +0.161 A 
ENDBRANCH  35  36
ENDBRANCH  32  35
ENDBRANCH   1  31
TORSDOF 8
ENDMDL
MODEL 5
REMARK VINA RESULT:      -7.1      5.684     10.577
REMARK  Name = pdb/CHEMBL3925931.pdb
REMARK                            x       y       z     vdW  Elec       q    Type
REMARK                         _______ _______ _______ _____ _____    ______ ____
ROOT
ATOM      1  C   LIG    1      -31.584  74.420  29.832  0.00  0.00    +0.149 A 
ATOM      2  N   LIG    1      -31.568  75.719  29.502  0.00  0.00    -0.160 NA
ATOM      3  N   LIG    1      -32.675  75.920  28.742  0.00  0.00    -0.218 N 
ATOM      4  C   LIG    1      -33.387  74.726  28.544  0.00  0.00    +0.129 A 
ATOM      5  C   LIG    1      -32.721  73.777  29.285  0.00  0.00    +0.078 A 
ENDROOT
BRANCH   3   6
ATOM      6  C   LIG    1      -32.942  77.225  28.227  0.00  0.00    +0.067 A 
ATOM      7  C   LIG    1      -32.292  77.716  27.088  0.00  0.00    +0.028 A 
ATOM      8  C   LIG    1      -32.553  79.009  26.626  0.00  0.00    +0.002 A 
ATOM      9  C   LIG    1      -33.482  79.813  27.280  0.00  0.00    +0.000 A 
ATOM     10  C   LIG    1      -34.158  79.325  28.396  0.00  0.00    +0.002 A 
ATOM     11  C   LIG    1      -33.900  78.033  28.864  0.00  0.00    +0.028 A 
ENDBRANCH   3   6
BRANCH   4  12
ATOM     12  N   LIG    1      -34.487  74.521  27.704  0.00  0.00    -0.266 N 
ATOM     13  H   LIG    1      -34.287  74.195  26.770  0.00  0.00    +0.157 HD
ATOM     14  C   LIG    1      -35.877  74.598  28.084  0.00  0.00    +0.251 C 
ATOM     15  O   LIG    1      -36.204  74.833  29.225  0.00  0.00    -0.270 OA
BRANCH  14  16
ATOM     16  C   LIG    1      -36.884  74.378  26.993  0.00  0.00    +0.056 A 
ATOM     17  C   LIG    1      -37.220  73.125  26.489  0.00  0.00    +0.054 A 
ATOM     18 CL   LIG    1      -36.457  71.652  26.967  0.00  0.00    -0.083 Cl
ATOM     19  C   LIG    1      -38.230  72.998  25.535  0.00  0.00    +0.041 A 
ATOM     20  C   LIG    1      -38.923  74.115  25.050  0.00  0.00    +0.052 A 
ATOM     21 CL   LIG    1      -40.120  73.741  23.857  0.00  0.00    -0.083 Cl
ATOM     22  C   LIG    1      -38.605  75.416  25.491  0.00  0.00    +0.019 A 
ATOM     23  C   LIG    1      -37.565  75.510  26.468  0.00  0.00    +0.026 A 
BRANCH  22  24
ATOM     24  C   LIG    1      -39.246  76.670  24.996  0.00  0.00    +0.073 A 
ATOM     25  N   LIG    1      -40.408  76.997  25.628  0.00  0.00    -0.252 NA
ATOM     26  C   LIG    1      -41.070  78.114  25.218  0.00  0.00    +0.149 A 
ATOM     27  C   LIG    1      -40.631  78.938  24.202  0.00  0.00    +0.141 A 
ATOM     28  F   LIG    1      -41.332  80.018  23.837  0.00  0.00    -0.204 F 
ATOM     29  C   LIG    1      -39.454  78.615  23.558  0.00  0.00    +0.042 A 
ATOM     30  C   LIG    1      -38.763  77.463  23.948  0.00  0.00    +0.031 A 
ENDBRANCH  22  24
ENDBRANCH  14  16
ENDBRANCH   4  12
BRANCH   1  31
ATOM     31  C   LIG    1      -30.511  73.795  30.609  0.00  0.00    +0.236 C 
ATOM     32  N   LIG    1      -30.027  74.413  31.627  0.00  0.00    -0.243 NA
BRANCH  31  33
ATOM     33  O   LIG    1      -30.110  72.587  30.160  0.00  0.00    -0.491 OA
ATOM     34  H   LIG    1      -30.804  72.095  29.704  0.00  0.00    +0.294 HD
ENDBRANCH  31  33
BRANCH  32  35
ATOM     35  C   LIG    1      -28.966  73.793  32.408  0.00  0.00    +0.201 C 
BRANCH  35  36
ATOM     36  C   LIG    1      -27.649  74.319  31.984  0.00  0.00    +0.077 A 
ATOM     37  N   LIG    1      -26.564  73.537  31.701  0.00  0.00    -0.260 N 
ATOM     38  H   LIG    1      -26.485  72.528  31.705  0.00  0.00    +0.190 HD
ATOM     39  N   LIG    1      -25.493  74.274  31.371  0.00  0.00    -0.068 NA
ATOM     40  N   LIG    1      -25.856  75.548  31.422  0.00  0.00    -0.138 NA
ATOM     41  C   LIG    1      -27.170  75.598  31.792  0.00  0.00    +0.161 A 
ENDBRANCH  35  36
ENDBRANCH  32  35
ENDBRANCH   1  31
TORSDOF 8
ENDMDL
MODEL 6
REMARK VINA RESULT:      -7.0      4.542     10.338
REMARK  Name = pdb/CHEMBL3925931.pdb
REMARK                            x       y       z     vdW  Elec       q    Type
REMARK                         _______ _______ _______ _____ _____    ______ ____
ROOT
ATOM      1  C   LIG    1      -30.663  75.612  30.683  0.00  0.00    +0.149 A 
ATOM      2  N   LIG    1      -31.714  76.307  30.227  0.00  0.00    -0.160 NA
ATOM      3  N   LIG    1      -32.521  75.399  29.622  0.00  0.00    -0.218 N 
ATOM      4  C   LIG    1      -31.960  74.111  29.650  0.00  0.00    +0.129 A 
ATOM      5  C   LIG    1      -30.798  74.236  30.376  0.00  0.00    +0.078 A 
ENDROOT
BRANCH   3   6
ATOM      6  C   LIG    1      -33.742  75.836  29.024  0.00  0.00    +0.067 A 
ATOM      7  C   LIG    1      -33.869  75.999  27.639  0.00  0.00    +0.028 A 
ATOM      8  C   LIG    1      -35.068  76.457  27.086  0.00  0.00    +0.002 A 
ATOM      9  C   LIG    1      -36.158  76.734  27.907  0.00  0.00    +0.000 A 
ATOM     10  C   LIG    1      -36.054  76.547  29.284  0.00  0.00    +0.002 A 
ATOM     11  C   LIG    1      -34.856  76.090  29.842  0.00  0.00    +0.028 A 
ENDBRANCH   3   6
BRANCH   4  12
ATOM     12  N   LIG    1      -32.432  72.962  29.005  0.00  0.00    -0.266 N 
ATOM     13  H   LIG    1      -31.873  72.612  28.242  0.00  0.00    +0.157 HD
ATOM     14  C   LIG    1      -33.559  72.159  29.411  0.00  0.00    +0.251 C 
ATOM     15  O   LIG    1      -34.193  72.423  30.407  0.00  0.00    -0.270 OA
BRANCH  14  16
ATOM     16  C   LIG    1      -33.902  70.991  28.532  0.00  0.00    +0.056 A 
ATOM     17  C   LIG    1      -33.197  69.791  28.529  0.00  0.00    +0.054 A 
ATOM     18 CL   LIG    1      -31.766  69.505  29.452  0.00  0.00    -0.083 Cl
ATOM     19  C   LIG    1      -33.632  68.722  27.746  0.00  0.00    +0.041 A 
ATOM     20  C   LIG    1      -34.772  68.823  26.937  0.00  0.00    +0.052 A 
ATOM     21 CL   LIG    1      -35.126  67.392  26.030  0.00  0.00    -0.083 Cl
ATOM     22  C   LIG    1      -35.509  70.023  26.867  0.00  0.00    +0.019 A 
ATOM     23  C   LIG    1      -35.036  71.098  27.682  0.00  0.00    +0.026 A 
BRANCH  22  24
ATOM     24  C   LIG    1      -36.703  70.247  25.999  0.00  0.00    +0.073 A 
ATOM     25  N   LIG    1      -36.428  70.313  24.666  0.00  0.00    -0.252 NA
ATOM     26  C   LIG    1      -37.459  70.541  23.808  0.00  0.00    +0.149 A 
ATOM     27  C   LIG    1      -38.770  70.705  24.207  0.00  0.00    +0.141 A 
ATOM     28  F   LIG    1      -39.740  70.938  23.316  0.00  0.00    -0.204 F 
ATOM     29  C   LIG    1      -39.058  70.639  25.556  0.00  0.00    +0.042 A 
ATOM     30  C   LIG    1      -38.013  70.422  26.460  0.00  0.00    +0.031 A 
ENDBRANCH  22  24
ENDBRANCH  14  16
ENDBRANCH   4  12
BRANCH   1  31
ATOM     31  C   LIG    1      -29.529  76.254  31.352  0.00  0.00    +0.236 C 
ATOM     32  N   LIG    1      -28.782  75.559  32.135  0.00  0.00    -0.243 NA
BRANCH  31  33
ATOM     33  O   LIG    1      -29.374  77.567  31.080  0.00  0.00    -0.491 OA
ATOM     34  H   LIG    1      -28.839  78.035  31.733  0.00  0.00    +0.294 HD
ENDBRANCH  31  33
BRANCH  32  35
ATOM     35  C   LIG    1      -27.648  76.189  32.797  0.00  0.00    +0.201 C 
BRANCH  35  36
ATOM     36  C   LIG    1      -26.499  76.273  31.868  0.00  0.00    +0.077 A 
ATOM     37  N   LIG    1      -26.269  77.323  31.023  0.00  0.00    -0.260 N 
ATOM     38  H   LIG    1      -26.795  78.181  30.912  0.00  0.00    +0.190 HD
ATOM     39  N   LIG    1      -25.175  77.125  30.272  0.00  0.00    -0.068 NA
ATOM     40  N   LIG    1      -24.664  75.952  30.617  0.00  0.00    -0.138 NA
ATOM     41  C   LIG    1      -25.456  75.416  31.592  0.00  0.00    +0.161 A 
ENDBRANCH  35  36
ENDBRANCH  32  35
ENDBRANCH   1  31
TORSDOF 8
ENDMDL
MODEL 7
REMARK VINA RESULT:      -7.0      7.223     12.285
REMARK  Name = pdb/CHEMBL3925931.pdb
REMARK                            x       y       z     vdW  Elec       q    Type
REMARK                         _______ _______ _______ _____ _____    ______ ____
ROOT
ATOM      1  C   LIG    1      -36.985  79.928  27.965  0.00  0.00    +0.149 A 
ATOM      2  N   LIG    1      -35.975  79.110  28.291  0.00  0.00    -0.160 NA
ATOM      3  N   LIG    1      -36.266  77.917  27.714  0.00  0.00    -0.218 N 
ATOM      4  C   LIG    1      -37.502  77.957  27.046  0.00  0.00    +0.129 A 
ATOM      5  C   LIG    1      -37.937  79.257  27.159  0.00  0.00    +0.078 A 
ENDROOT
BRANCH   3   6
ATOM      6  C   LIG    1      -35.368  76.820  27.881  0.00  0.00    +0.067 A 
ATOM      7  C   LIG    1      -34.068  76.844  27.360  0.00  0.00    +0.028 A 
ATOM      8  C   LIG    1      -33.222  75.743  27.514  0.00  0.00    +0.002 A 
ATOM      9  C   LIG    1      -33.655  74.618  28.212  0.00  0.00    +0.000 A 
ATOM     10  C   LIG    1      -34.935  74.594  28.762  0.00  0.00    +0.002 A 
ATOM     11  C   LIG    1      -35.787  75.693  28.608  0.00  0.00    +0.028 A 
ENDBRANCH   3   6
BRANCH   4  12
ATOM     12  N   LIG    1      -38.189  76.885  26.464  0.00  0.00    -0.266 N 
ATOM     13  H   LIG    1      -38.980  76.525  26.977  0.00  0.00    +0.157 HD
ATOM     14  C   LIG    1      -37.962  76.340  25.148  0.00  0.00    +0.251 C 
ATOM     15  O   LIG    1      -37.133  76.814  24.406  0.00  0.00    -0.270 OA
BRANCH  14  16
ATOM     16  C   LIG    1      -38.801  75.158  24.758  0.00  0.00    +0.056 A 
ATOM     17  C   LIG    1      -40.069  75.259  24.194  0.00  0.00    +0.054 A 
ATOM     18 CL   LIG    1      -40.908  76.750  23.958  0.00  0.00    -0.083 Cl
ATOM     19  C   LIG    1      -40.748  74.114  23.778  0.00  0.00    +0.041 A 
ATOM     20  C   LIG    1      -40.188  72.838  23.924  0.00  0.00    +0.052 A 
ATOM     21 CL   LIG    1      -41.203  71.552  23.365  0.00  0.00    -0.083 Cl
ATOM     22  C   LIG    1      -38.923  72.663  24.521  0.00  0.00    +0.019 A 
ATOM     23  C   LIG    1      -38.255  73.857  24.936  0.00  0.00    +0.026 A 
BRANCH  22  24
ATOM     24  C   LIG    1      -38.265  71.345  24.769  0.00  0.00    +0.073 A 
ATOM     25  N   LIG    1      -38.040  71.064  26.083  0.00  0.00    -0.252 NA
ATOM     26  C   LIG    1      -37.421  69.892  26.392  0.00  0.00    +0.149 A 
ATOM     27  C   LIG    1      -37.010  68.969  25.452  0.00  0.00    +0.141 A 
ATOM     28  F   LIG    1      -36.395  67.838  25.818  0.00  0.00    -0.204 F 
ATOM     29  C   LIG    1      -37.236  69.245  24.119  0.00  0.00    +0.042 A 
ATOM     30  C   LIG    1      -37.855  70.450  23.773  0.00  0.00    +0.031 A 
ENDBRANCH  22  24
ENDBRANCH  14  16
ENDBRANCH   4  12
BRANCH   1  31
ATOM     31  C   LIG    1      -37.067  81.307  28.455  0.00  0.00    +0.236 C 
ATOM     32  N   LIG    1      -35.988  81.995  28.587  0.00  0.00    -0.243 NA
BRANCH  31  33
ATOM     33  O   LIG    1      -38.313  81.739  28.740  0.00  0.00    -0.491 OA
ATOM     34  H   LIG    1      -38.824  81.985  27.960  0.00  0.00    +0.294 HD
ENDBRANCH  31  33
BRANCH  32  35
ATOM     35  C   LIG    1      -36.063  83.368  29.066  0.00  0.00    +0.201 C 
BRANCH  35  36
ATOM     36  C   LIG    1      -34.945  83.644  29.995  0.00  0.00    +0.077 A 
ATOM     37  N   LIG    1      -33.706  84.068  29.601  0.00  0.00    -0.260 N 
ATOM     38  H   LIG    1      -33.368  84.278  28.670  0.00  0.00    +0.190 HD
ATOM     39  N   LIG    1      -32.875  84.211  30.645  0.00  0.00    -0.068 NA
ATOM     40  N   LIG    1      -33.555  83.895  31.739  0.00  0.00    -0.138 NA
ATOM     41  C   LIG    1      -34.822  83.549  31.364  0.00  0.00    +0.161 A 
ENDBRANCH  35  36
ENDBRANCH  32  35
ENDBRANCH   1  31
TORSDOF 8
ENDMDL
MODEL 8
REMARK VINA RESULT:      -7.0     16.505     19.600
REMARK  Name = pdb/CHEMBL3925931.pdb
REMARK                            x       y       z     vdW  Elec       q    Type
REMARK                         _______ _______ _______ _____ _____    ______ ____
ROOT
ATOM      1  C   LIG    1      -20.867  82.190  14.588  0.00  0.00    +0.149 A 
ATOM      2  N   LIG    1      -22.077  81.691  14.303  0.00  0.00    -0.160 NA
ATOM      3  N   LIG    1      -22.086  80.432  14.812  0.00  0.00    -0.218 N 
ATOM      4  C   LIG    1      -20.850  80.104  15.393  0.00  0.00    +0.129 A 
ATOM      5  C   LIG    1      -20.087  81.245  15.299  0.00  0.00    +0.078 A 
ENDROOT
BRANCH   3   6
ATOM      6  C   LIG    1      -23.256  79.626  14.666  0.00  0.00    +0.067 A 
ATOM      7  C   LIG    1      -24.358  79.764  15.519  0.00  0.00    +0.028 A 
ATOM      8  C   LIG    1      -25.477  78.940  15.369  0.00  0.00    +0.002 A 
ATOM      9  C   LIG    1      -25.516  77.989  14.354  0.00  0.00    +0.000 A 
ATOM     10  C   LIG    1      -24.438  77.863  13.480  0.00  0.00    +0.002 A 
ATOM     11  C   LIG    1      -23.316  78.684  13.626  0.00  0.00    +0.028 A 
ENDBRANCH   3   6
BRANCH   4  12
ATOM     12  N   LIG    1      -20.445  78.857  15.883  0.00  0.00    -0.266 N 
ATOM     13  H   LIG    1      -20.587  78.692  16.869  0.00  0.00    +0.157 HD
ATOM     14  C   LIG    1      -19.976  77.742  15.097  0.00  0.00    +0.251 C 
ATOM     15  O   LIG    1      -19.920  77.804  13.890  0.00  0.00    -0.270 OA
BRANCH  14  16
ATOM     16  C   LIG    1      -19.558  76.515  15.854  0.00  0.00    +0.056 A 
ATOM     17  C   LIG    1      -18.327  76.377  16.487  0.00  0.00    +0.054 A 
ATOM     18 CL   LIG    1      -17.059  77.547  16.407  0.00  0.00    -0.083 Cl
ATOM     19  C   LIG    1      -18.048  75.239  17.244  0.00  0.00    +0.041 A 
ATOM     20  C   LIG    1      -18.984  74.205  17.381  0.00  0.00    +0.052 A 
ATOM     21 CL   LIG    1      -18.432  72.875  18.343  0.00  0.00    -0.083 Cl
ATOM     22  C   LIG    1      -20.235  74.266  16.735  0.00  0.00    +0.019 A 
ATOM     23  C   LIG    1      -20.488  75.446  15.967  0.00  0.00    +0.026 A 
BRANCH  22  24
ATOM     24  C   LIG    1      -21.275  73.195  16.776  0.00  0.00    +0.073 A 
ATOM     25  N   LIG    1      -22.088  73.240  17.869  0.00  0.00    -0.252 NA
ATOM     26  C   LIG    1      -23.047  72.282  17.995  0.00  0.00    +0.149 A 
ATOM     27  C   LIG    1      -23.248  71.270  17.078  0.00  0.00    +0.141 A 
ATOM     28  F   LIG    1      -24.202  70.350  17.263  0.00  0.00    -0.204 F 
ATOM     29  C   LIG    1      -22.430  71.219  15.967  0.00  0.00    +0.042 A 
ATOM     30  C   LIG    1      -21.426  72.182  15.823  0.00  0.00    +0.031 A 
ENDBRANCH  22  24
ENDBRANCH  14  16
ENDBRANCH   4  12
BRANCH   1  31
ATOM     31  C   LIG    1      -20.444  83.522  14.147  0.00  0.00    +0.236 C 
ATOM     32  N   LIG    1      -21.331  84.372  13.768  0.00  0.00    -0.243 NA
BRANCH  31  33
ATOM     33  O   LIG    1      -19.112  83.736  14.174  0.00  0.00    -0.491 OA
ATOM     34  H   LIG    1      -18.784  84.221  13.407  0.00  0.00    +0.294 HD
ENDBRANCH  31  33
BRANCH  32  35
ATOM     35  C   LIG    1      -20.919  85.700  13.336  0.00  0.00    +0.201 C 
BRANCH  35  36
ATOM     36  C   LIG    1      -21.491  86.727  14.234  0.00  0.00    +0.077 A 
ATOM     37  N   LIG    1      -21.422  86.680  15.599  0.00  0.00    -0.260 N 
ATOM     38  H   LIG    1      -20.974  85.994  16.192  0.00  0.00    +0.190 HD
ATOM     39  N   LIG    1      -22.049  87.722  16.164  0.00  0.00    -0.068 NA
ATOM     40  N   LIG    1      -22.531  88.475  15.184  0.00  0.00    -0.138 NA
ATOM     41  C   LIG    1      -22.199  87.887  13.997  0.00  0.00    +0.161 A 
ENDBRANCH  35  36
ENDBRANCH  32  35
ENDBRANCH   1  31
TORSDOF 8
ENDMDL
MODEL 9
REMARK VINA RESULT:      -6.9      7.285     12.360
REMARK  Name = pdb/CHEMBL3925931.pdb
REMARK                            x       y       z     vdW  Elec       q    Type
REMARK                         _______ _______ _______ _____ _____    ______ ____
ROOT
ATOM      1  C   LIG    1      -37.096  80.005  27.841  0.00  0.00    +0.149 A 
ATOM      2  N   LIG    1      -36.102  79.203  28.245  0.00  0.00    -0.160 NA
ATOM      3  N   LIG    1      -36.369  77.985  27.708  0.00  0.00    -0.218 N 
ATOM      4  C   LIG    1      -37.575  77.995  26.987  0.00  0.00    +0.129 A 
ATOM      5  C   LIG    1      -38.013  79.298  27.026  0.00  0.00    +0.078 A 
ENDROOT
BRANCH   3   6
ATOM      6  C   LIG    1      -35.479  76.898  27.962  0.00  0.00    +0.067 A 
ATOM      7  C   LIG    1      -34.234  76.801  27.329  0.00  0.00    +0.028 A 
ATOM      8  C   LIG    1      -33.397  75.708  27.575  0.00  0.00    +0.002 A 
ATOM      9  C   LIG    1      -33.785  74.717  28.473  0.00  0.00    +0.000 A 
ATOM     10  C   LIG    1      -35.008  74.818  29.132  0.00  0.00    +0.002 A 
ATOM     11  C   LIG    1      -35.850  75.908  28.888  0.00  0.00    +0.028 A 
ENDBRANCH   3   6
BRANCH   4  12
ATOM     12  N   LIG    1      -38.238  76.898  26.424  0.00  0.00    -0.266 N 
ATOM     13  H   LIG    1      -39.017  76.526  26.946  0.00  0.00    +0.157 HD
ATOM     14  C   LIG    1      -38.003  76.339  25.115  0.00  0.00    +0.251 C 
ATOM     15  O   LIG    1      -37.189  76.824  24.363  0.00  0.00    -0.270 OA
BRANCH  14  16
ATOM     16  C   LIG    1      -38.813  75.131  24.746  0.00  0.00    +0.056 A 
ATOM     17  C   LIG    1      -40.086  75.193  24.188  0.00  0.00    +0.054 A 
ATOM     18 CL   LIG    1      -40.964  76.659  23.937  0.00  0.00    -0.083 Cl
ATOM     19  C   LIG    1      -40.739  74.025  23.792  0.00  0.00    +0.041 A 
ATOM     20  C   LIG    1      -40.145  72.766  23.951  0.00  0.00    +0.052 A 
ATOM     21 CL   LIG    1      -41.130  71.447  23.416  0.00  0.00    -0.083 Cl
ATOM     22  C   LIG    1      -38.873  72.632  24.544  0.00  0.00    +0.019 A 
ATOM     23  C   LIG    1      -38.233  73.848  24.939  0.00  0.00    +0.026 A 
BRANCH  22  24
ATOM     24  C   LIG    1      -38.181  71.334  24.805  0.00  0.00    +0.073 A 
ATOM     25  N   LIG    1      -37.984  71.055  26.124  0.00  0.00    -0.252 NA
ATOM     26  C   LIG    1      -37.336  69.903  26.447  0.00  0.00    +0.149 A 
ATOM     27  C   LIG    1      -36.871  68.996  25.516  0.00  0.00    +0.141 A 
ATOM     28  F   LIG    1      -36.230  67.884  25.895  0.00  0.00    -0.204 F 
ATOM     29  C   LIG    1      -37.068  69.270  24.178  0.00  0.00    +0.042 A 
ATOM     30  C   LIG    1      -37.716  70.456  23.819  0.00  0.00    +0.031 A 
ENDBRANCH  22  24
ENDBRANCH  14  16
ENDBRANCH   4  12
BRANCH   1  31
ATOM     31  C   LIG    1      -37.198  81.404  28.267  0.00  0.00    +0.236 C 
ATOM     32  N   LIG    1      -36.214  82.202  28.049  0.00  0.00    -0.243 NA
BRANCH  31  33
ATOM     33  O   LIG    1      -38.355  81.733  28.877  0.00  0.00    -0.491 OA
ATOM     34  H   LIG    1      -38.300  81.721  29.840  0.00  0.00    +0.294 HD
ENDBRANCH  31  33
BRANCH  32  35
ATOM     35  C   LIG    1      -36.311  83.595  28.461  0.00  0.00    +0.201 C 
BRANCH  35  36
ATOM     36  C   LIG    1      -36.331  84.478  27.273  0.00  0.00    +0.077 A 
ATOM     37  N   LIG    1      -35.353  84.500  26.317  0.00  0.00    -0.260 N 
ATOM     38  H   LIG    1      -34.516  83.937  26.246  0.00  0.00    +0.190 HD
ATOM     39  N   LIG    1      -35.608  85.414  25.368  0.00  0.00    -0.068 NA
ATOM     40  N   LIG    1      -36.758  85.998  25.678  0.00  0.00    -0.138 NA
ATOM     41  C   LIG    1      -37.217  85.439  26.836  0.00  0.00    +0.161 A 
ENDBRANCH  35  36
ENDBRANCH  32  35
ENDBRANCH   1  31
TORSDOF 8
ENDMDL
