MODEL 1
REMARK VINA RESULT:      -6.0      0.000      0.000
REMARK  Name = pdb/CHEMBL3676045.pdb
REMARK                            x       y       z     vdW  Elec       q    Type
REMARK                         _______ _______ _______ _____ _____    ______ ____
ROOT
ATOM      1  C   UNK A  0      -22.831  76.765  30.475  0.00  0.00    +0.100 A 
ATOM      2  C   UNK A  0      -21.818  77.202  31.318  0.00  0.00    +0.170 A 
ATOM      3  N   UNK A  0      -21.786  77.549  32.652  0.00  0.00    -0.212 NA
ATOM      4  C   UNK A  0      -20.644  77.971  33.163  0.00  0.00    +0.126 A 
ATOM      5  C   UNK A  0      -19.411  78.138  32.299  0.00  0.00    +0.063 A 
ATOM      6  C   UNK A  0      -19.492  77.766  31.020  0.00  0.00    +0.118 A 
ATOM      7  N   UNK A  0      -20.676  77.271  30.514  0.00  0.00    -0.221 N 
ATOM      8  N   UNK A  0      -20.896  76.832  29.255  0.00  0.00    -0.173 NA
ATOM      9  C   UNK A  0      -22.194  76.534  29.240  0.00  0.00    +0.150 A 
ENDROOT
BRANCH   4  10
ATOM     10  N   UNK A  0      -20.564  78.287  34.517  0.00  0.00    -0.308 N 
ATOM     11  C   UNK A  0      -20.410  79.649  35.067  0.00  0.00    +0.108 C 
ATOM     12  C   UNK A  0      -19.629  79.402  36.372  0.00  0.00    +0.029 C 
ATOM     13  C   UNK A  0      -20.163  78.064  36.851  0.00  0.00    +0.021 C 
ATOM     14  C   UNK A  0      -20.323  77.276  35.553  0.00  0.00    +0.107 C 
BRANCH  11  15
ATOM     15  C   UNK A  0      -21.752  80.321  35.319  0.00  0.00    +0.011 A 
ATOM     16  C   UNK A  0      -21.810  81.625  35.838  0.00  0.00    +0.129 A 
ATOM     17  F   UNK A  0      -20.683  82.331  36.008  0.00  0.00    -0.205 F 
ATOM     18  C   UNK A  0      -23.019  82.210  36.219  0.00  0.00    +0.041 A 
ATOM     19  C   UNK A  0      -24.209  81.506  36.051  0.00  0.00    +0.041 A 
ATOM     20  C   UNK A  0      -24.176  80.247  35.467  0.00  0.00    +0.124 A 
ATOM     21  F   UNK A  0      -25.314  79.566  35.292  0.00  0.00    -0.205 F 
ATOM     22  C   UNK A  0      -22.971  79.663  35.093  0.00  0.00    +0.046 A 
ENDBRANCH  11  15
ENDBRANCH   4  10
BRANCH   1  25
ATOM     23  N   ALA A  1      -24.552  75.963  31.903  0.00  0.00    -0.306 N 
ATOM     24  H   ALA A  1      -23.792  75.597  32.476  0.00  0.00    +0.149 HD
ATOM     25  C   UNK A  0      -24.247  76.580  30.719  0.00  0.00    +0.249 C 
ATOM     26  O   UNK A  0      -25.094  76.973  29.937  0.00  0.00    -0.270 OA
BRANCH  23  28
ATOM     27  CB  ALA A  1      -25.950  74.748  33.495  0.00  0.00    +0.030 C 
ATOM     28  CA  ALA A  1      -25.924  75.742  32.337  0.00  0.00    +0.095 C 
BRANCH  28  29
ATOM     29  C   ALA A  1      -26.565  77.086  32.715  0.00  0.00    +0.177 C 
BRANCH  29  30
ATOM     30  O   ALA A  1      -27.464  77.540  31.703  0.00  0.00    -0.393 OA
ATOM     31  H   ALA A  1      -27.951  78.296  32.072  0.00  0.00    +0.209 HD
ENDBRANCH  29  30
ENDBRANCH  28  29
ENDBRANCH  23  28
ENDBRANCH   1  25
TORSDOF 6
ENDMDL
MODEL 2
REMARK VINA RESULT:      -5.7      1.893      2.568
REMARK  Name = pdb/CHEMBL3676045.pdb
REMARK                            x       y       z     vdW  Elec       q    Type
REMARK                         _______ _______ _______ _____ _____    ______ ____
ROOT
ATOM      1  C   UNK A  0      -19.937  76.919  31.049  0.00  0.00    +0.100 A 
ATOM      2  C   UNK A  0      -19.317  77.387  32.199  0.00  0.00    +0.170 A 
ATOM      3  N   UNK A  0      -19.778  77.679  33.465  0.00  0.00    -0.212 NA
ATOM      4  C   UNK A  0      -18.920  78.156  34.350  0.00  0.00    +0.126 A 
ATOM      5  C   UNK A  0      -17.481  78.441  33.975  0.00  0.00    +0.063 A 
ATOM      6  C   UNK A  0      -17.083  78.118  32.742  0.00  0.00    +0.118 A 
ATOM      7  N   UNK A  0      -17.977  77.566  31.846  0.00  0.00    -0.221 N 
ATOM      8  N   UNK A  0      -17.710  77.166  30.583  0.00  0.00    -0.173 NA
ATOM      9  C   UNK A  0      -18.895  76.782  30.110  0.00  0.00    +0.150 A 
ENDROOT
BRANCH   4  10
ATOM     10  N   UNK A  0      -19.340  78.420  35.651  0.00  0.00    -0.308 N 
ATOM     11  C   UNK A  0      -19.262  79.733  36.322  0.00  0.00    +0.108 C 
ATOM     12  C   UNK A  0      -19.086  79.348  37.804  0.00  0.00    +0.029 C 
ATOM     13  C   UNK A  0      -19.910  78.079  37.936  0.00  0.00    +0.021 C 
ATOM     14  C   UNK A  0      -19.637  77.356  36.618  0.00  0.00    +0.107 C 
BRANCH  11  15
ATOM     15  C   UNK A  0      -20.513  80.570  36.092  0.00  0.00    +0.011 A 
ATOM     16  C   UNK A  0      -20.683  81.795  36.757  0.00  0.00    +0.129 A 
ATOM     17  F   UNK A  0      -19.693  82.292  37.514  0.00  0.00    -0.205 F 
ATOM     18  C   UNK A  0      -21.880  82.510  36.683  0.00  0.00    +0.041 A 
ATOM     19  C   UNK A  0      -22.927  82.025  35.902  0.00  0.00    +0.041 A 
ATOM     20  C   UNK A  0      -22.745  80.856  35.176  0.00  0.00    +0.124 A 
ATOM     21  F   UNK A  0      -23.740  80.385  34.416  0.00  0.00    -0.205 F 
ATOM     22  C   UNK A  0      -21.555  80.141  35.255  0.00  0.00    +0.046 A 
ENDBRANCH  11  15
ENDBRANCH   4  10
BRANCH   1  25
ATOM     23  N   ALA A  1      -22.225  77.392  31.483  0.00  0.00    -0.306 N 
ATOM     24  H   ALA A  1      -21.871  78.027  32.199  0.00  0.00    +0.149 HD
ATOM     25  C   UNK A  0      -21.331  76.629  30.779  0.00  0.00    +0.249 C 
ATOM     26  O   UNK A  0      -21.671  75.789  29.966  0.00  0.00    -0.270 OA
BRANCH  23  28
ATOM     27  CB  ALA A  1      -24.380  77.531  32.625  0.00  0.00    +0.030 C 
ATOM     28  CA  ALA A  1      -23.665  77.275  31.301  0.00  0.00    +0.095 C 
BRANCH  28  29
ATOM     29  C   ALA A  1      -24.123  78.244  30.201  0.00  0.00    +0.177 C 
BRANCH  29  30
ATOM     30  O   ALA A  1      -23.288  78.155  29.045  0.00  0.00    -0.393 OA
ATOM     31  H   ALA A  1      -22.457  77.735  29.325  0.00  0.00    +0.209 HD
ENDBRANCH  29  30
ENDBRANCH  28  29
ENDBRANCH  23  28
ENDBRANCH   1  25
TORSDOF 6
ENDMDL
MODEL 3
REMARK VINA RESULT:      -5.6     18.104     21.038
REMARK  Name = pdb/CHEMBL3676045.pdb
REMARK                            x       y       z     vdW  Elec       q    Type
REMARK                         _______ _______ _______ _____ _____    ______ ____
ROOT
ATOM      1  C   UNK A  0      -18.929  85.883  12.750  0.00  0.00    +0.100 A 
ATOM      2  C   UNK A  0      -19.117  84.581  13.193  0.00  0.00    +0.170 A 
ATOM      3  N   UNK A  0      -20.067  83.987  13.997  0.00  0.00    -0.212 NA
ATOM      4  C   UNK A  0      -19.943  82.700  14.268  0.00  0.00    +0.126 A 
ATOM      5  C   UNK A  0      -18.755  81.903  13.770  0.00  0.00    +0.063 A 
ATOM      6  C   UNK A  0      -17.878  82.523  12.977  0.00  0.00    +0.118 A 
ATOM      7  N   UNK A  0      -18.052  83.853  12.655  0.00  0.00    -0.221 N 
ATOM      8  N   UNK A  0      -17.266  84.597  11.845  0.00  0.00    -0.173 NA
ATOM      9  C   UNK A  0      -17.798  85.816  11.912  0.00  0.00    +0.150 A 
ENDROOT
BRANCH   4  10
ATOM     10  N   UNK A  0      -20.907  82.058  15.040  0.00  0.00    -0.308 N 
ATOM     11  C   UNK A  0      -22.243  82.599  15.359  0.00  0.00    +0.108 C 
ATOM     12  C   UNK A  0      -22.543  81.977  16.736  0.00  0.00    +0.029 C 
ATOM     13  C   UNK A  0      -21.890  80.609  16.652  0.00  0.00    +0.021 C 
ATOM     14  C   UNK A  0      -20.602  80.893  15.880  0.00  0.00    +0.107 C 
BRANCH  11  15
ATOM     15  C   UNK A  0      -23.283  82.213  14.317  0.00  0.00    +0.011 A 
ATOM     16  C   UNK A  0      -23.497  83.020  13.188  0.00  0.00    +0.129 A 
ATOM     17  F   UNK A  0      -22.707  84.079  12.961  0.00  0.00    -0.205 F 
ATOM     18  C   UNK A  0      -24.543  82.773  12.296  0.00  0.00    +0.041 A 
ATOM     19  C   UNK A  0      -25.379  81.678  12.500  0.00  0.00    +0.041 A 
ATOM     20  C   UNK A  0      -25.132  80.826  13.567  0.00  0.00    +0.124 A 
ATOM     21  F   UNK A  0      -25.924  79.766  13.767  0.00  0.00    -0.205 F 
ATOM     22  C   UNK A  0      -24.095  81.075  14.458  0.00  0.00    +0.046 A 
ENDBRANCH  11  15
ENDBRANCH   4  10
BRANCH   1  25
ATOM     23  N   ALA A  1      -21.018  86.931  13.178  0.00  0.00    -0.306 N 
ATOM     24  H   ALA A  1      -21.424  86.018  12.973  0.00  0.00    +0.149 HD
ATOM     25  C   UNK A  0      -19.665  87.096  13.045  0.00  0.00    +0.249 C 
ATOM     26  O   UNK A  0      -19.109  88.170  13.191  0.00  0.00    -0.270 OA
BRANCH  23  28
ATOM     27  CB  ALA A  1      -23.017  88.152  12.484  0.00  0.00    +0.030 C 
ATOM     28  CA  ALA A  1      -21.908  88.030  13.526  0.00  0.00    +0.095 C 
BRANCH  28  29
ATOM     29  C   ALA A  1      -22.465  87.809  14.941  0.00  0.00    +0.177 C 
BRANCH  29  30
ATOM     30  O   ALA A  1      -22.376  88.997  15.729  0.00  0.00    -0.393 OA
ATOM     31  H   ALA A  1      -21.608  89.497  15.403  0.00  0.00    +0.209 HD
ENDBRANCH  29  30
ENDBRANCH  28  29
ENDBRANCH  23  28
ENDBRANCH   1  25
TORSDOF 6
ENDMDL
MODEL 4
REMARK VINA RESULT:      -5.6      1.802      2.449
REMARK  Name = pdb/CHEMBL3676045.pdb
REMARK                            x       y       z     vdW  Elec       q    Type
REMARK                         _______ _______ _______ _____ _____    ______ ____
ROOT
ATOM      1  C   UNK A  0      -20.139  76.934  30.481  0.00  0.00    +0.100 A 
ATOM      2  C   UNK A  0      -19.544  77.514  31.593  0.00  0.00    +0.170 A 
ATOM      3  N   UNK A  0      -20.048  78.064  32.752  0.00  0.00    -0.212 NA
ATOM      4  C   UNK A  0      -19.199  78.581  33.622  0.00  0.00    +0.126 A 
ATOM      5  C   UNK A  0      -17.713  78.634  33.333  0.00  0.00    +0.063 A 
ATOM      6  C   UNK A  0      -17.277  78.066  32.206  0.00  0.00    +0.118 A 
ATOM      7  N   UNK A  0      -18.171  77.478  31.334  0.00  0.00    -0.221 N 
ATOM      8  N   UNK A  0      -17.872  76.846  30.178  0.00  0.00    -0.173 NA
ATOM      9  C   UNK A  0      -19.061  76.525  29.670  0.00  0.00    +0.150 A 
ENDROOT
BRANCH   4  10
ATOM     10  N   UNK A  0      -19.669  79.104  34.824  0.00  0.00    -0.308 N 
ATOM     11  C   UNK A  0      -20.691  80.161  34.951  0.00  0.00    +0.108 C 
ATOM     12  C   UNK A  0      -20.287  80.870  36.258  0.00  0.00    +0.029 C 
ATOM     13  C   UNK A  0      -19.745  79.741  37.115  0.00  0.00    +0.021 C 
ATOM     14  C   UNK A  0      -18.989  78.879  36.105  0.00  0.00    +0.107 C 
BRANCH  11  15
ATOM     15  C   UNK A  0      -22.101  79.592  35.020  0.00  0.00    +0.011 A 
ATOM     16  C   UNK A  0      -23.211  80.445  35.125  0.00  0.00    +0.129 A 
ATOM     17  F   UNK A  0      -23.046  81.774  35.051  0.00  0.00    -0.205 F 
ATOM     18  C   UNK A  0      -24.499  79.951  35.340  0.00  0.00    +0.041 A 
ATOM     19  C   UNK A  0      -24.707  78.576  35.417  0.00  0.00    +0.041 A 
ATOM     20  C   UNK A  0      -23.632  77.717  35.237  0.00  0.00    +0.124 A 
ATOM     21  F   UNK A  0      -23.821  76.394  35.299  0.00  0.00    -0.205 F 
ATOM     22  C   UNK A  0      -22.349  78.209  35.028  0.00  0.00    +0.046 A 
ENDBRANCH  11  15
ENDBRANCH   4  10
BRANCH   1  25
ATOM     23  N   ALA A  1      -22.399  76.805  31.204  0.00  0.00    -0.306 N 
ATOM     24  H   ALA A  1      -22.013  76.854  32.146  0.00  0.00    +0.149 HD
ATOM     25  C   UNK A  0      -21.537  76.764  30.140  0.00  0.00    +0.249 C 
ATOM     26  O   UNK A  0      -21.909  76.624  28.988  0.00  0.00    -0.270 OA
BRANCH  23  28
ATOM     27  CB  ALA A  1      -24.414  75.733  32.073  0.00  0.00    +0.030 C 
ATOM     28  CA  ALA A  1      -23.842  76.704  31.043  0.00  0.00    +0.095 C 
BRANCH  28  29
ATOM     29  C   ALA A  1      -24.469  78.102  31.157  0.00  0.00    +0.177 C 
BRANCH  29  30
ATOM     30  O   ALA A  1      -24.980  78.550  29.901  0.00  0.00    -0.393 OA
ATOM     31  H   ALA A  1      -25.916  78.290  29.865  0.00  0.00    +0.209 HD
ENDBRANCH  29  30
ENDBRANCH  28  29
ENDBRANCH  23  28
ENDBRANCH   1  25
TORSDOF 6
ENDMDL
MODEL 5
REMARK VINA RESULT:      -5.5      5.353      9.311
REMARK  Name = pdb/CHEMBL3676045.pdb
REMARK                            x       y       z     vdW  Elec       q    Type
REMARK                         _______ _______ _______ _____ _____    ______ ____
ROOT
ATOM      1  C   UNK A  0      -26.476  75.970  31.689  0.00  0.00    +0.100 A 
ATOM      2  C   UNK A  0      -26.284  74.605  31.853  0.00  0.00    +0.170 A 
ATOM      3  N   UNK A  0      -25.170  73.795  31.782  0.00  0.00    -0.212 NA
ATOM      4  C   UNK A  0      -25.329  72.495  31.954  0.00  0.00    +0.126 A 
ATOM      5  C   UNK A  0      -26.702  71.891  32.158  0.00  0.00    +0.063 A 
ATOM      6  C   UNK A  0      -27.743  72.724  32.241  0.00  0.00    +0.118 A 
ATOM      7  N   UNK A  0      -27.554  74.085  32.117  0.00  0.00    -0.221 N 
ATOM      8  N   UNK A  0      -28.503  75.043  32.208  0.00  0.00    -0.173 NA
ATOM      9  C   UNK A  0      -27.847  76.172  31.946  0.00  0.00    +0.150 A 
ENDROOT
BRANCH   4  10
ATOM     10  N   UNK A  0      -24.220  71.652  31.933  0.00  0.00    -0.308 N 
ATOM     11  C   UNK A  0      -24.268  70.184  31.785  0.00  0.00    +0.108 C 
ATOM     12  C   UNK A  0      -23.025  69.722  32.568  0.00  0.00    +0.029 C 
ATOM     13  C   UNK A  0      -22.020  70.832  32.316  0.00  0.00    +0.021 C 
ATOM     14  C   UNK A  0      -22.885  72.091  32.357  0.00  0.00    +0.107 C 
BRANCH  11  15
ATOM     15  C   UNK A  0      -24.220  69.753  30.326  0.00  0.00    +0.011 A 
ATOM     16  C   UNK A  0      -24.305  68.395  29.980  0.00  0.00    +0.129 A 
ATOM     17  F   UNK A  0      -24.543  67.475  30.926  0.00  0.00    -0.205 F 
ATOM     18  C   UNK A  0      -24.113  67.958  28.668  0.00  0.00    +0.041 A 
ATOM     19  C   UNK A  0      -23.868  68.887  27.660  0.00  0.00    +0.041 A 
ATOM     20  C   UNK A  0      -23.860  70.239  27.973  0.00  0.00    +0.124 A 
ATOM     21  F   UNK A  0      -23.634  71.142  27.011  0.00  0.00    -0.205 F 
ATOM     22  C   UNK A  0      -24.044  70.674  29.280  0.00  0.00    +0.046 A 
ENDBRANCH  11  15
ENDBRANCH   4  10
BRANCH   1  25
ATOM     23  N   ALA A  1      -24.244  76.786  31.688  0.00  0.00    -0.306 N 
ATOM     24  H   ALA A  1      -24.033  75.969  32.261  0.00  0.00    +0.149 HD
ATOM     25  C   UNK A  0      -25.543  77.017  31.322  0.00  0.00    +0.249 C 
ATOM     26  O   UNK A  0      -25.895  78.009  30.708  0.00  0.00    -0.270 OA
BRANCH  23  28
ATOM     27  CB  ALA A  1      -22.081  77.646  32.429  0.00  0.00    +0.030 C 
ATOM     28  CA  ALA A  1      -23.165  77.704  31.355  0.00  0.00    +0.095 C 
BRANCH  28  29
ATOM     29  C   ALA A  1      -22.615  77.365  29.961  0.00  0.00    +0.177 C 
BRANCH  29  30
ATOM     30  O   ALA A  1      -23.271  78.121  28.942  0.00  0.00    -0.393 OA
ATOM     31  H   ALA A  1      -23.868  78.745  29.390  0.00  0.00    +0.209 HD
ENDBRANCH  29  30
ENDBRANCH  28  29
ENDBRANCH  23  28
ENDBRANCH   1  25
TORSDOF 6
ENDMDL
MODEL 6
REMARK VINA RESULT:      -5.5      2.440      4.594
REMARK  Name = pdb/CHEMBL3676045.pdb
REMARK                            x       y       z     vdW  Elec       q    Type
REMARK                         _______ _______ _______ _____ _____    ______ ____
ROOT
ATOM      1  C   UNK A  0      -22.674  77.434  30.606  0.00  0.00    +0.100 A 
ATOM      2  C   UNK A  0      -23.508  77.511  31.713  0.00  0.00    +0.170 A 
ATOM      3  N   UNK A  0      -23.274  77.714  33.056  0.00  0.00    -0.212 NA
ATOM      4  C   UNK A  0      -24.305  77.694  33.882  0.00  0.00    +0.126 A 
ATOM      5  C   UNK A  0      -25.703  77.390  33.386  0.00  0.00    +0.063 A 
ATOM      6  C   UNK A  0      -25.876  77.224  32.073  0.00  0.00    +0.118 A 
ATOM      7  N   UNK A  0      -24.798  77.305  31.216  0.00  0.00    -0.221 N 
ATOM      8  N   UNK A  0      -24.827  77.187  29.869  0.00  0.00    -0.173 NA
ATOM      9  C   UNK A  0      -23.546  77.262  29.512  0.00  0.00    +0.150 A 
ENDROOT
BRANCH   4  10
ATOM     10  N   UNK A  0      -24.111  77.940  35.239  0.00  0.00    -0.308 N 
ATOM     11  C   UNK A  0      -22.802  77.980  35.920  0.00  0.00    +0.108 C 
ATOM     12  C   UNK A  0      -23.145  77.507  37.346  0.00  0.00    +0.029 C 
ATOM     13  C   UNK A  0      -24.535  78.072  37.577  0.00  0.00    +0.021 C 
ATOM     14  C   UNK A  0      -25.206  77.894  36.216  0.00  0.00    +0.107 C 
BRANCH  11  15
ATOM     15  C   UNK A  0      -22.191  79.374  35.910  0.00  0.00    +0.011 A 
ATOM     16  C   UNK A  0      -20.815  79.552  36.124  0.00  0.00    +0.129 A 
ATOM     17  F   UNK A  0      -20.008  78.486  36.225  0.00  0.00    -0.205 F 
ATOM     18  C   UNK A  0      -20.253  80.822  36.269  0.00  0.00    +0.041 A 
ATOM     19  C   UNK A  0      -21.062  81.951  36.165  0.00  0.00    +0.041 A 
ATOM     20  C   UNK A  0      -22.410  81.794  35.876  0.00  0.00    +0.124 A 
ATOM     21  F   UNK A  0      -23.196  82.871  35.764  0.00  0.00    -0.205 F 
ATOM     22  C   UNK A  0      -22.971  80.529  35.737  0.00  0.00    +0.046 A 
ENDBRANCH  11  15
ENDBRANCH   4  10
BRANCH   1  25
ATOM     23  N   ALA A  1      -20.587  77.873  31.654  0.00  0.00    -0.306 N 
ATOM     24  H   ALA A  1      -21.146  78.180  32.450  0.00  0.00    +0.149 HD
ATOM     25  C   UNK A  0      -21.229  77.489  30.507  0.00  0.00    +0.249 C 
ATOM     26  O   UNK A  0      -20.640  77.186  29.485  0.00  0.00    -0.270 OA
BRANCH  23  28
ATOM     27  CB  ALA A  1      -18.729  78.929  32.837  0.00  0.00    +0.030 C 
ATOM     28  CA  ALA A  1      -19.136  77.933  31.753  0.00  0.00    +0.095 C 
BRANCH  28  29
ATOM     29  C   ALA A  1      -18.583  76.526  32.025  0.00  0.00    +0.177 C 
BRANCH  29  30
ATOM     30  O   ALA A  1      -18.201  75.872  30.814  0.00  0.00    -0.393 OA
ATOM     31  H   ALA A  1      -17.522  76.426  30.392  0.00  0.00    +0.209 HD
ENDBRANCH  29  30
ENDBRANCH  28  29
ENDBRANCH  23  28
ENDBRANCH   1  25
TORSDOF 6
ENDMDL
MODEL 7
REMARK VINA RESULT:      -5.5     17.715     20.276
REMARK  Name = pdb/CHEMBL3676045.pdb
REMARK                            x       y       z     vdW  Elec       q    Type
REMARK                         _______ _______ _______ _____ _____    ______ ____
ROOT
ATOM      1  C   UNK A  0      -18.767  85.135  13.319  0.00  0.00    +0.100 A 
ATOM      2  C   UNK A  0      -18.906  83.792  13.640  0.00  0.00    +0.170 A 
ATOM      3  N   UNK A  0      -19.868  83.082  14.328  0.00  0.00    -0.212 NA
ATOM      4  C   UNK A  0      -19.686  81.785  14.501  0.00  0.00    +0.126 A 
ATOM      5  C   UNK A  0      -18.425  81.097  14.019  0.00  0.00    +0.063 A 
ATOM      6  C   UNK A  0      -17.538  81.828  13.340  0.00  0.00    +0.118 A 
ATOM      7  N   UNK A  0      -17.770  83.170  13.117  0.00  0.00    -0.221 N 
ATOM      8  N   UNK A  0      -16.979  84.021  12.425  0.00  0.00    -0.173 NA
ATOM      9  C   UNK A  0      -17.584  85.200  12.556  0.00  0.00    +0.150 A 
ENDROOT
BRANCH   4  10
ATOM     10  N   UNK A  0      -20.658  81.029  15.151  0.00  0.00    -0.308 N 
ATOM     11  C   UNK A  0      -21.233  79.766  14.648  0.00  0.00    +0.108 C 
ATOM     12  C   UNK A  0      -22.658  79.784  15.233  0.00  0.00    +0.029 C 
ATOM     13  C   UNK A  0      -22.475  80.463  16.578  0.00  0.00    +0.021 C 
ATOM     14  C   UNK A  0      -21.445  81.550  16.275  0.00  0.00    +0.107 C 
BRANCH  11  15
ATOM     15  C   UNK A  0      -20.440  78.550  15.107  0.00  0.00    +0.011 A 
ATOM     16  C   UNK A  0      -20.710  77.279  14.574  0.00  0.00    +0.129 A 
ATOM     17  F   UNK A  0      -21.592  77.145  13.573  0.00  0.00    -0.205 F 
ATOM     18  C   UNK A  0      -20.107  76.127  15.082  0.00  0.00    +0.041 A 
ATOM     19  C   UNK A  0      -19.182  76.232  16.118  0.00  0.00    +0.041 A 
ATOM     20  C   UNK A  0      -18.846  77.489  16.602  0.00  0.00    +0.124 A 
ATOM     21  F   UNK A  0      -17.953  77.602  17.591  0.00  0.00    -0.205 F 
ATOM     22  C   UNK A  0      -19.452  78.635  16.101  0.00  0.00    +0.046 A 
ENDBRANCH  11  15
ENDBRANCH   4  10
BRANCH   1  25
ATOM     23  N   ALA A  1      -20.934  86.100  13.468  0.00  0.00    -0.306 N 
ATOM     24  H   ALA A  1      -21.255  85.243  13.018  0.00  0.00    +0.149 HD
ATOM     25  C   UNK A  0      -19.589  86.278  13.663  0.00  0.00    +0.249 C 
ATOM     26  O   UNK A  0      -19.113  87.302  14.118  0.00  0.00    -0.270 OA
BRANCH  23  28
ATOM     27  CB  ALA A  1      -23.083  87.068  12.830  0.00  0.00    +0.030 C 
ATOM     28  CA  ALA A  1      -21.913  87.122  13.809  0.00  0.00    +0.095 C 
BRANCH  28  29
ATOM     29  C   ALA A  1      -22.368  86.931  15.264  0.00  0.00    +0.177 C 
BRANCH  29  30
ATOM     30  O   ALA A  1      -21.589  87.721  16.163  0.00  0.00    -0.393 OA
ATOM     31  H   ALA A  1      -21.717  87.349  17.052  0.00  0.00    +0.209 HD
ENDBRANCH  29  30
ENDBRANCH  28  29
ENDBRANCH  23  28
ENDBRANCH   1  25
TORSDOF 6
ENDMDL
MODEL 8
REMARK VINA RESULT:      -5.4      2.379      4.983
REMARK  Name = pdb/CHEMBL3676045.pdb
REMARK                            x       y       z     vdW  Elec       q    Type
REMARK                         _______ _______ _______ _____ _____    ______ ____
ROOT
ATOM      1  C   UNK A  0      -25.618  77.297  32.874  0.00  0.00    +0.100 A 
ATOM      2  C   UNK A  0      -25.121  78.089  33.900  0.00  0.00    +0.170 A 
ATOM      3  N   UNK A  0      -23.924  78.748  34.086  0.00  0.00    -0.212 NA
ATOM      4  C   UNK A  0      -23.739  79.404  35.217  0.00  0.00    +0.126 A 
ATOM      5  C   UNK A  0      -24.780  79.383  36.317  0.00  0.00    +0.063 A 
ATOM      6  C   UNK A  0      -25.930  78.749  36.074  0.00  0.00    +0.118 A 
ATOM      7  N   UNK A  0      -26.132  78.117  34.864  0.00  0.00    -0.221 N 
ATOM      8  N   UNK A  0      -27.248  77.464  34.471  0.00  0.00    -0.173 NA
ATOM      9  C   UNK A  0      -26.929  76.971  33.276  0.00  0.00    +0.150 A 
ENDROOT
BRANCH   4  10
ATOM     10  N   UNK A  0      -22.561  80.118  35.420  0.00  0.00    -0.308 N 
ATOM     11  C   UNK A  0      -21.325  79.571  36.013  0.00  0.00    +0.108 C 
ATOM     12  C   UNK A  0      -20.702  80.803  36.699  0.00  0.00    +0.029 C 
ATOM     13  C   UNK A  0      -21.080  81.946  35.774  0.00  0.00    +0.021 C 
ATOM     14  C   UNK A  0      -22.500  81.583  35.345  0.00  0.00    +0.107 C 
BRANCH  11  15
ATOM     15  C   UNK A  0      -20.400  78.972  34.963  0.00  0.00    +0.011 A 
ATOM     16  C   UNK A  0      -19.172  78.401  35.335  0.00  0.00    +0.129 A 
ATOM     17  F   UNK A  0      -18.855  78.278  36.632  0.00  0.00    -0.205 F 
ATOM     18  C   UNK A  0      -18.240  77.981  34.384  0.00  0.00    +0.041 A 
ATOM     19  C   UNK A  0      -18.540  78.090  33.028  0.00  0.00    +0.041 A 
ATOM     20  C   UNK A  0      -19.781  78.579  32.646  0.00  0.00    +0.124 A 
ATOM     21  F   UNK A  0      -20.084  78.681  31.347  0.00  0.00    -0.205 F 
ATOM     22  C   UNK A  0      -20.707  79.003  33.593  0.00  0.00    +0.046 A 
ENDBRANCH  11  15
ENDBRANCH   4  10
BRANCH   1  25
ATOM     23  N   ALA A  1      -23.637  76.688  31.712  0.00  0.00    -0.306 N 
ATOM     24  H   ALA A  1      -23.150  76.985  32.558  0.00  0.00    +0.149 HD
ATOM     25  C   UNK A  0      -24.996  76.842  31.646  0.00  0.00    +0.249 C 
ATOM     26  O   UNK A  0      -25.646  76.590  30.648  0.00  0.00    -0.270 OA
BRANCH  23  28
ATOM     27  CB  ALA A  1      -22.558  77.327  29.616  0.00  0.00    +0.030 C 
ATOM     28  CA  ALA A  1      -22.853  76.190  30.591  0.00  0.00    +0.095 C 
BRANCH  28  29
ATOM     29  C   ALA A  1      -21.568  75.532  31.117  0.00  0.00    +0.177 C 
BRANCH  29  30
ATOM     30  O   ALA A  1      -21.551  75.485  32.544  0.00  0.00    -0.393 OA
ATOM     31  H   ALA A  1      -22.249  74.865  32.817  0.00  0.00    +0.209 HD
ENDBRANCH  29  30
ENDBRANCH  28  29
ENDBRANCH  23  28
ENDBRANCH   1  25
TORSDOF 6
ENDMDL
MODEL 9
REMARK VINA RESULT:      -5.3      2.265      3.961
REMARK  Name = pdb/CHEMBL3676045.pdb
REMARK                            x       y       z     vdW  Elec       q    Type
REMARK                         _______ _______ _______ _____ _____    ______ ____
ROOT
ATOM      1  C   UNK A  0      -24.983  77.552  32.436  0.00  0.00    +0.100 A 
ATOM      2  C   UNK A  0      -23.692  77.525  31.927  0.00  0.00    +0.170 A 
ATOM      3  N   UNK A  0      -22.452  77.736  32.491  0.00  0.00    -0.212 NA
ATOM      4  C   UNK A  0      -21.389  77.673  31.710  0.00  0.00    +0.126 A 
ATOM      5  C   UNK A  0      -21.522  77.443  30.219  0.00  0.00    +0.063 A 
ATOM      6  C   UNK A  0      -22.744  77.222  29.730  0.00  0.00    +0.118 A 
ATOM      7  N   UNK A  0      -23.840  77.233  30.568  0.00  0.00    -0.221 N 
ATOM      8  N   UNK A  0      -25.125  76.999  30.220  0.00  0.00    -0.173 NA
ATOM      9  C   UNK A  0      -25.805  77.197  31.348  0.00  0.00    +0.150 A 
ENDROOT
BRANCH   4  10
ATOM     10  N   UNK A  0      -20.117  77.837  32.254  0.00  0.00    -0.308 N 
ATOM     11  C   UNK A  0      -19.667  79.007  33.033  0.00  0.00    +0.108 C 
ATOM     12  C   UNK A  0      -18.161  79.070  32.714  0.00  0.00    +0.029 C 
ATOM     13  C   UNK A  0      -17.771  77.609  32.578  0.00  0.00    +0.021 C 
ATOM     14  C   UNK A  0      -18.976  76.999  31.864  0.00  0.00    +0.107 C 
BRANCH  11  15
ATOM     15  C   UNK A  0      -19.931  78.841  34.523  0.00  0.00    +0.011 A 
ATOM     16  C   UNK A  0      -20.336  79.936  35.302  0.00  0.00    +0.129 A 
ATOM     17  F   UNK A  0      -20.603  81.114  34.718  0.00  0.00    -0.205 F 
ATOM     18  C   UNK A  0      -20.440  79.850  36.692  0.00  0.00    +0.041 A 
ATOM     19  C   UNK A  0      -20.174  78.641  37.330  0.00  0.00    +0.041 A 
ATOM     20  C   UNK A  0      -19.850  77.529  36.566  0.00  0.00    +0.124 A 
ATOM     21  F   UNK A  0      -19.601  76.360  37.167  0.00  0.00    -0.205 F 
ATOM     22  C   UNK A  0      -19.740  77.616  35.183  0.00  0.00    +0.046 A 
ENDBRANCH  11  15
ENDBRANCH   4  10
BRANCH   1  25
ATOM     23  N   ALA A  1      -24.503  78.292  34.643  0.00  0.00    -0.306 N 
ATOM     24  H   ALA A  1      -23.526  78.254  34.353  0.00  0.00    +0.149 HD
ATOM     25  C   UNK A  0      -25.468  77.879  33.762  0.00  0.00    +0.249 C 
ATOM     26  O   UNK A  0      -26.649  77.814  34.052  0.00  0.00    -0.270 OA
BRANCH  23  28
ATOM     27  CB  ALA A  1      -23.759  78.177  36.966  0.00  0.00    +0.030 C 
ATOM     28  CA  ALA A  1      -24.815  78.711  36.002  0.00  0.00    +0.095 C 
BRANCH  28  29
ATOM     29  C   ALA A  1      -24.924  80.242  36.054  0.00  0.00    +0.177 C 
BRANCH  29  30
ATOM     30  O   ALA A  1      -23.689  80.866  35.700  0.00  0.00    -0.393 OA
ATOM     31  H   ALA A  1      -23.069  80.707  36.432  0.00  0.00    +0.209 HD
ENDBRANCH  29  30
ENDBRANCH  28  29
ENDBRANCH  23  28
ENDBRANCH   1  25
TORSDOF 6
ENDMDL
