MODEL 1
REMARK VINA RESULT:      -5.9      0.000      0.000
REMARK  Name = pdb/CHEMBL3671318.pdb
REMARK                            x       y       z     vdW  Elec       q    Type
REMARK                         _______ _______ _______ _____ _____    ______ ____
ROOT
ATOM      1  C   LIG    1      -20.576  85.238  13.367  0.00  0.00    +0.045 A 
ATOM      2  C   LIG    1      -19.693  86.374  13.582  0.00  0.00    +0.041 A 
ATOM      3  C   LIG    1      -19.959  87.300  14.507  0.00  0.00    +0.088 A 
ATOM      4  N   LIG    1      -21.057  87.172  15.303  0.00  0.00    -0.328 N 
ATOM      5  H   LIG    1      -21.260  87.864  16.015  0.00  0.00    +0.168 HD
ATOM      6  C   LIG    1      -21.925  86.114  15.236  0.00  0.00    +0.261 A 
ATOM      7  O   LIG    1      -22.875  86.035  16.015  0.00  0.00    -0.267 OA
ATOM      8  C   LIG    1      -21.663  85.077  14.171  0.00  0.00    +0.102 A 
ENDROOT
BRANCH   8   9
ATOM      9  C   LIG    1      -22.559  83.969  14.016  0.00  0.00    +0.146 A 
ATOM     10  N   LIG    1      -22.818  83.159  15.103  0.00  0.00    -0.338 N 
ATOM     11  H   LIG    1      -22.423  83.294  16.028  0.00  0.00    +0.167 HD
ATOM     12  C   LIG    1      -23.639  82.134  14.720  0.00  0.00    +0.067 A 
ATOM     13  C   LIG    1      -24.149  81.038  15.422  0.00  0.00    +0.041 A 
ATOM     14  C   LIG    1      -24.959  80.214  14.649  0.00  0.00    +0.044 A 
ATOM     15  C   LIG    1      -25.627  78.963  15.088  0.00  0.00    +0.247 C 
ATOM     16  O   LIG    1      -25.609  78.520  16.195  0.00  0.00    -0.270 OA
ATOM     17  N   LIG    1      -26.237  78.453  13.949  0.00  0.00    -0.292 N 
ATOM     18  C   LIG    1      -26.101  79.323  12.787  0.00  0.00    +0.144 C 
ATOM     19  C   LIG    1      -25.231  80.419  13.305  0.00  0.00    -0.016 A 
ATOM     20  C   LIG    1      -24.707  81.520  12.629  0.00  0.00    +0.035 A 
ATOM     21  C   LIG    1      -23.891  82.393  13.373  0.00  0.00    +0.090 A 
ATOM     22  N   LIG    1      -23.233  83.529  12.963  0.00  0.00    -0.227 NA
BRANCH  17  23
ATOM     23  C   LIG    1      -26.885  77.147  13.889  0.00  0.00    +0.124 C 
BRANCH  23  24
ATOM     24  C   LIG    1      -25.972  76.041  13.297  0.00  0.00    +0.102 C 
BRANCH  24  25
ATOM     25  N   LIG    1      -25.112  75.352  14.290  0.00  0.00    -0.307 NA
ATOM     26  C   LIG    1      -23.726  75.839  14.224  0.00  0.00    +0.104 C 
ATOM     27  C   LIG    1      -25.098  73.903  14.094  0.00  0.00    +0.104 C 
ENDBRANCH  24  25
ENDBRANCH  23  24
ENDBRANCH  17  23
ENDBRANCH   8   9
BRANCH   1  28
ATOM     28  N   LIG    1      -20.145  84.349  12.377  0.00  0.00    -0.340 N 
ATOM     29  H   LIG    1      -19.758  84.945  11.634  0.00  0.00    +0.146 HD
BRANCH  28  31
ATOM     30  C   LIG    1      -17.701  83.917  12.523  0.00  0.00    +0.028 C 
ATOM     31  C   LIG    1      -19.104  83.324  12.650  0.00  0.00    +0.072 C 
BRANCH  31  32
ATOM     32  C   LIG    1      -19.297  82.700  14.061  0.00  0.00    +0.060 C 
BRANCH  32  33
ATOM     33  C   LIG    1      -20.005  81.360  14.075  0.00  0.00    -0.008 A 
ATOM     34  C   LIG    1      -20.070  80.598  15.246  0.00  0.00    +0.127 A 
ATOM     35  F   LIG    1      -19.458  81.023  16.361  0.00  0.00    -0.205 F 
ATOM     36  C   LIG    1      -20.778  79.396  15.293  0.00  0.00    +0.041 A 
ATOM     37  C   LIG    1      -21.442  78.936  14.157  0.00  0.00    +0.041 A 
ATOM     38  C   LIG    1      -21.373  79.676  12.986  0.00  0.00    +0.124 A 
ATOM     39  F   LIG    1      -22.016  79.254  11.890  0.00  0.00    -0.205 F 
ATOM     40  C   LIG    1      -20.651  80.860  12.934  0.00  0.00    +0.044 A 
ENDBRANCH  32  33
ENDBRANCH  31  32
ENDBRANCH  28  31
ENDBRANCH   1  28
TORSDOF 8
ENDMDL
MODEL 2
REMARK VINA RESULT:      -5.4     18.157     21.838
REMARK  Name = pdb/CHEMBL3671318.pdb
REMARK                            x       y       z     vdW  Elec       q    Type
REMARK                         _______ _______ _______ _____ _____    ______ ____
ROOT
ATOM      1  C   LIG    1      -40.696  71.028  23.068  0.00  0.00    +0.045 A 
ATOM      2  C   LIG    1      -41.991  71.649  23.297  0.00  0.00    +0.041 A 
ATOM      3  C   LIG    1      -43.071  71.290  22.600  0.00  0.00    +0.088 A 
ATOM      4  N   LIG    1      -42.985  70.292  21.676  0.00  0.00    -0.328 N 
ATOM      5  H   LIG    1      -43.802  70.006  21.150  0.00  0.00    +0.168 HD
ATOM      6  C   LIG    1      -41.836  69.592  21.418  0.00  0.00    +0.261 A 
ATOM      7  O   LIG    1      -41.835  68.671  20.602  0.00  0.00    -0.267 OA
ATOM      8  C   LIG    1      -40.594  70.010  22.170  0.00  0.00    +0.102 A 
ENDROOT
BRANCH   8   9
ATOM      9  C   LIG    1      -39.348  69.350  21.913  0.00  0.00    +0.146 A 
ATOM     10  N   LIG    1      -39.013  69.032  20.613  0.00  0.00    -0.338 N 
ATOM     11  H   LIG    1      -39.587  69.243  19.803  0.00  0.00    +0.167 HD
ATOM     12  C   LIG    1      -37.825  68.353  20.603  0.00  0.00    +0.067 A 
ATOM     13  C   LIG    1      -37.089  67.781  19.562  0.00  0.00    +0.041 A 
ATOM     14  C   LIG    1      -35.914  67.170  19.986  0.00  0.00    +0.044 A 
ATOM     15  C   LIG    1      -34.931  66.453  19.136  0.00  0.00    +0.247 C 
ATOM     16  O   LIG    1      -34.984  66.353  17.947  0.00  0.00    -0.270 OA
ATOM     17  N   LIG    1      -33.987  65.941  20.016  0.00  0.00    -0.292 N 
ATOM     18  C   LIG    1      -34.218  66.340  21.399  0.00  0.00    +0.144 C 
ATOM     19  C   LIG    1      -35.500  67.098  21.307  0.00  0.00    -0.016 A 
ATOM     20  C   LIG    1      -36.256  67.676  22.325  0.00  0.00    +0.035 A 
ATOM     21  C   LIG    1      -37.448  68.320  21.945  0.00  0.00    +0.090 A 
ATOM     22  N   LIG    1      -38.386  68.947  22.732  0.00  0.00    -0.227 NA
BRANCH  17  23
ATOM     23  C   LIG    1      -32.915  65.034  19.622  0.00  0.00    +0.124 C 
BRANCH  23  24
ATOM     24  C   LIG    1      -31.575  65.763  19.332  0.00  0.00    +0.102 C 
BRANCH  24  25
ATOM     25  N   LIG    1      -31.211  65.838  17.897  0.00  0.00    -0.307 NA
ATOM     26  C   LIG    1      -31.590  67.135  17.318  0.00  0.00    +0.104 C 
ATOM     27  C   LIG    1      -31.849  64.781  17.111  0.00  0.00    +0.104 C 
ENDBRANCH  24  25
ENDBRANCH  23  24
ENDBRANCH  17  23
ENDBRANCH   8   9
BRANCH   1  28
ATOM     28  N   LIG    1      -39.671  71.501  23.895  0.00  0.00    -0.340 N 
ATOM     29  H   LIG    1      -39.024  71.989  23.263  0.00  0.00    +0.146 HD
BRANCH  28  31
ATOM     30  C   LIG    1      -39.971  71.733  26.351  0.00  0.00    +0.028 C 
ATOM     31  C   LIG    1      -39.942  72.453  25.004  0.00  0.00    +0.072 C 
BRANCH  31  32
ATOM     32  C   LIG    1      -38.884  73.593  25.027  0.00  0.00    +0.060 C 
BRANCH  32  33
ATOM     33  C   LIG    1      -39.370  74.926  24.495  0.00  0.00    -0.008 A 
ATOM     34  C   LIG    1      -38.543  76.054  24.529  0.00  0.00    +0.127 A 
ATOM     35  F   LIG    1      -37.325  75.979  25.084  0.00  0.00    -0.205 F 
ATOM     36  C   LIG    1      -38.951  77.271  23.981  0.00  0.00    +0.041 A 
ATOM     37  C   LIG    1      -40.204  77.377  23.379  0.00  0.00    +0.041 A 
ATOM     38  C   LIG    1      -41.037  76.269  23.351  0.00  0.00    +0.124 A 
ATOM     39  F   LIG    1      -42.239  76.351  22.766  0.00  0.00    -0.205 F 
ATOM     40  C   LIG    1      -40.641  75.065  23.916  0.00  0.00    +0.044 A 
ENDBRANCH  32  33
ENDBRANCH  31  32
ENDBRANCH  28  31
ENDBRANCH   1  28
TORSDOF 8
ENDMDL
MODEL 3
REMARK VINA RESULT:      -5.3      3.455      5.194
REMARK  Name = pdb/CHEMBL3671318.pdb
REMARK                            x       y       z     vdW  Elec       q    Type
REMARK                         _______ _______ _______ _____ _____    ______ ____
ROOT
ATOM      1  C   LIG    1      -20.701  83.927  12.653  0.00  0.00    +0.045 A 
ATOM      2  C   LIG    1      -20.621  85.312  12.213  0.00  0.00    +0.041 A 
ATOM      3  C   LIG    1      -19.532  86.052  12.432  0.00  0.00    +0.088 A 
ATOM      4  N   LIG    1      -18.447  85.503  13.046  0.00  0.00    -0.328 N 
ATOM      5  H   LIG    1      -17.613  86.055  13.206  0.00  0.00    +0.168 HD
ATOM      6  C   LIG    1      -18.382  84.195  13.447  0.00  0.00    +0.261 A 
ATOM      7  O   LIG    1      -17.354  83.748  13.957  0.00  0.00    -0.267 OA
ATOM      8  C   LIG    1      -19.618  83.351  13.243  0.00  0.00    +0.102 A 
ENDROOT
BRANCH   8   9
ATOM      9  C   LIG    1      -19.633  81.988  13.683  0.00  0.00    +0.146 A 
ATOM     10  N   LIG    1      -19.100  81.676  14.917  0.00  0.00    -0.338 N 
ATOM     11  H   LIG    1      -18.698  82.352  15.558  0.00  0.00    +0.167 HD
ATOM     12  C   LIG    1      -19.156  80.322  15.108  0.00  0.00    +0.067 A 
ATOM     13  C   LIG    1      -18.713  79.510  16.154  0.00  0.00    +0.041 A 
ATOM     14  C   LIG    1      -18.966  78.158  15.952  0.00  0.00    +0.044 A 
ATOM     15  C   LIG    1      -18.599  77.042  16.859  0.00  0.00    +0.247 C 
ATOM     16  O   LIG    1      -18.082  77.158  17.929  0.00  0.00    -0.270 OA
ATOM     17  N   LIG    1      -18.972  75.885  16.188  0.00  0.00    -0.292 N 
ATOM     18  C   LIG    1      -19.650  76.148  14.925  0.00  0.00    +0.144 C 
ATOM     19  C   LIG    1      -19.573  77.635  14.821  0.00  0.00    -0.016 A 
ATOM     20  C   LIG    1      -20.004  78.468  13.791  0.00  0.00    +0.035 A 
ATOM     21  C   LIG    1      -19.783  79.848  13.955  0.00  0.00    +0.090 A 
ATOM     22  N   LIG    1      -20.080  80.885  13.100  0.00  0.00    -0.227 NA
BRANCH  17  23
ATOM     23  C   LIG    1      -18.656  74.538  16.651  0.00  0.00    +0.124 C 
BRANCH  23  24
ATOM     24  C   LIG    1      -19.651  73.466  16.132  0.00  0.00    +0.102 C 
BRANCH  24  25
ATOM     25  N   LIG    1      -20.560  72.914  17.165  0.00  0.00    -0.307 NA
ATOM     26  C   LIG    1      -21.844  73.630  17.184  0.00  0.00    +0.104 C 
ATOM     27  C   LIG    1      -19.977  72.984  18.505  0.00  0.00    +0.104 C 
ENDBRANCH  24  25
ENDBRANCH  23  24
ENDBRANCH  17  23
ENDBRANCH   8   9
BRANCH   1  28
ATOM     28  N   LIG    1      -21.901  83.284  12.328  0.00  0.00    -0.340 N 
ATOM     29  H   LIG    1      -21.819  82.346  12.739  0.00  0.00    +0.146 HD
BRANCH  28  31
ATOM     30  C   LIG    1      -23.979  84.455  11.630  0.00  0.00    +0.028 C 
ATOM     31  C   LIG    1      -23.214  83.808  12.784  0.00  0.00    +0.072 C 
BRANCH  31  32
ATOM     32  C   LIG    1      -24.068  82.678  13.427  0.00  0.00    +0.060 C 
BRANCH  32  33
ATOM     33  C   LIG    1      -23.402  81.950  14.578  0.00  0.00    -0.008 A 
ATOM     34  C   LIG    1      -22.843  82.661  15.645  0.00  0.00    +0.127 A 
ATOM     35  F   LIG    1      -22.846  84.002  15.637  0.00  0.00    -0.205 F 
ATOM     36  C   LIG    1      -22.288  82.004  16.745  0.00  0.00    +0.041 A 
ATOM     37  C   LIG    1      -22.288  80.610  16.794  0.00  0.00    +0.041 A 
ATOM     38  C   LIG    1      -22.826  79.896  15.735  0.00  0.00    +0.124 A 
ATOM     39  F   LIG    1      -22.844  78.557  15.773  0.00  0.00    -0.205 F 
ATOM     40  C   LIG    1      -23.358  80.549  14.632  0.00  0.00    +0.044 A 
ENDBRANCH  32  33
ENDBRANCH  31  32
ENDBRANCH  28  31
ENDBRANCH   1  28
TORSDOF 8
ENDMDL
MODEL 4
REMARK VINA RESULT:      -5.2     17.984     20.189
REMARK  Name = pdb/CHEMBL3671318.pdb
REMARK                            x       y       z     vdW  Elec       q    Type
REMARK                         _______ _______ _______ _____ _____    ______ ____
ROOT
ATOM      1  C   LIG    1      -38.917  80.066  26.669  0.00  0.00    +0.045 A 
ATOM      2  C   LIG    1      -39.048  81.503  26.856  0.00  0.00    +0.041 A 
ATOM      3  C   LIG    1      -39.295  82.320  25.830  0.00  0.00    +0.088 A 
ATOM      4  N   LIG    1      -39.470  81.810  24.578  0.00  0.00    -0.328 N 
ATOM      5  H   LIG    1      -39.668  82.423  23.796  0.00  0.00    +0.168 HD
ATOM      6  C   LIG    1      -39.432  80.471  24.292  0.00  0.00    +0.261 A 
ATOM      7  O   LIG    1      -39.642  80.071  23.147  0.00  0.00    -0.267 OA
ATOM      8  C   LIG    1      -39.116  79.533  25.432  0.00  0.00    +0.102 A 
ENDROOT
BRANCH   8   9
ATOM      9  C   LIG    1      -39.015  78.124  25.191  0.00  0.00    +0.146 A 
ATOM     10  N   LIG    1      -40.062  77.474  24.570  0.00  0.00    -0.338 N 
ATOM     11  H   LIG    1      -40.913  77.926  24.252  0.00  0.00    +0.167 HD
ATOM     12  C   LIG    1      -39.787  76.135  24.500  0.00  0.00    +0.067 A 
ATOM     13  C   LIG    1      -40.531  75.057  24.013  0.00  0.00    +0.041 A 
ATOM     14  C   LIG    1      -39.878  73.835  24.132  0.00  0.00    +0.044 A 
ATOM     15  C   LIG    1      -40.405  72.505  23.736  0.00  0.00    +0.247 C 
ATOM     16  O   LIG    1      -41.451  72.306  23.198  0.00  0.00    -0.270 OA
ATOM     17  N   LIG    1      -39.437  71.592  24.134  0.00  0.00    -0.292 N 
ATOM     18  C   LIG    1      -38.249  72.224  24.695  0.00  0.00    +0.144 C 
ATOM     19  C   LIG    1      -38.622  73.669  24.697  0.00  0.00    -0.016 A 
ATOM     20  C   LIG    1      -37.904  74.762  25.177  0.00  0.00    +0.035 A 
ATOM     21  C   LIG    1      -38.517  76.024  25.065  0.00  0.00    +0.090 A 
ATOM     22  N   LIG    1      -38.054  77.255  25.471  0.00  0.00    -0.227 NA
BRANCH  17  23
ATOM     23  C   LIG    1      -39.611  70.145  24.076  0.00  0.00    +0.124 C 
BRANCH  23  24
ATOM     24  C   LIG    1      -39.120  69.525  22.740  0.00  0.00    +0.102 C 
BRANCH  24  25
ATOM     25  N   LIG    1      -37.648  69.380  22.630  0.00  0.00    -0.307 NA
ATOM     26  C   LIG    1      -37.271  68.693  21.387  0.00  0.00    +0.104 C 
ATOM     27  C   LIG    1      -37.083  68.634  23.755  0.00  0.00    +0.104 C 
ENDBRANCH  24  25
ENDBRANCH  23  24
ENDBRANCH  17  23
ENDBRANCH   8   9
BRANCH   1  28
ATOM     28  N   LIG    1      -38.680  79.348  27.846  0.00  0.00    -0.340 N 
ATOM     29  H   LIG    1      -38.923  78.376  27.618  0.00  0.00    +0.146 HD
BRANCH  28  31
ATOM     30  C   LIG    1      -37.335  79.916  29.858  0.00  0.00    +0.028 C 
ATOM     31  C   LIG    1      -37.330  79.288  28.465  0.00  0.00    +0.072 C 
BRANCH  31  32
ATOM     32  C   LIG    1      -36.819  77.821  28.539  0.00  0.00    +0.060 C 
BRANCH  32  33
ATOM     33  C   LIG    1      -35.389  77.619  28.078  0.00  0.00    -0.008 A 
ATOM     34  C   LIG    1      -34.913  76.342  27.764  0.00  0.00    +0.127 A 
ATOM     35  F   LIG    1      -35.705  75.271  27.919  0.00  0.00    -0.205 F 
ATOM     36  C   LIG    1      -33.621  76.149  27.273  0.00  0.00    +0.041 A 
ATOM     37  C   LIG    1      -32.779  77.244  27.081  0.00  0.00    +0.041 A 
ATOM     38  C   LIG    1      -33.236  78.513  27.402  0.00  0.00    +0.124 A 
ATOM     39  F   LIG    1      -32.444  79.576  27.212  0.00  0.00    -0.205 F 
ATOM     40  C   LIG    1      -34.512  78.703  27.912  0.00  0.00    +0.044 A 
ENDBRANCH  32  33
ENDBRANCH  31  32
ENDBRANCH  28  31
ENDBRANCH   1  28
TORSDOF 8
ENDMDL
MODEL 5
REMARK VINA RESULT:      -5.1      1.659      2.205
REMARK  Name = pdb/CHEMBL3671318.pdb
REMARK                            x       y       z     vdW  Elec       q    Type
REMARK                         _______ _______ _______ _____ _____    ______ ____
ROOT
ATOM      1  C   LIG    1      -20.884  84.875  13.756  0.00  0.00    +0.045 A 
ATOM      2  C   LIG    1      -20.230  86.154  13.522  0.00  0.00    +0.041 A 
ATOM      3  C   LIG    1      -20.849  87.147  12.880  0.00  0.00    +0.088 A 
ATOM      4  N   LIG    1      -22.136  86.991  12.463  0.00  0.00    -0.328 N 
ATOM      5  H   LIG    1      -22.617  87.744  11.985  0.00  0.00    +0.168 HD
ATOM      6  C   LIG    1      -22.874  85.858  12.682  0.00  0.00    +0.261 A 
ATOM      7  O   LIG    1      -24.048  85.796  12.318  0.00  0.00    -0.267 OA
ATOM      8  C   LIG    1      -22.179  84.709  13.373  0.00  0.00    +0.102 A 
ENDROOT
BRANCH   8   9
ATOM      9  C   LIG    1      -22.879  83.478  13.591  0.00  0.00    +0.146 A 
ATOM     10  N   LIG    1      -23.508  82.866  12.525  0.00  0.00    -0.338 N 
ATOM     11  H   LIG    1      -23.505  83.221  11.575  0.00  0.00    +0.167 HD
ATOM     12  C   LIG    1      -24.166  81.749  12.966  0.00  0.00    +0.067 A 
ATOM     13  C   LIG    1      -24.976  80.825  12.303  0.00  0.00    +0.041 A 
ATOM     14  C   LIG    1      -25.461  79.819  13.131  0.00  0.00    +0.044 A 
ATOM     15  C   LIG    1      -26.363  78.707  12.741  0.00  0.00    +0.247 C 
ATOM     16  O   LIG    1      -26.754  78.486  11.635  0.00  0.00    -0.270 OA
ATOM     17  N   LIG    1      -26.640  78.027  13.920  0.00  0.00    -0.292 N 
ATOM     18  C   LIG    1      -25.913  78.552  15.069  0.00  0.00    +0.144 C 
ATOM     19  C   LIG    1      -25.204  79.731  14.491  0.00  0.00    -0.016 A 
ATOM     20  C   LIG    1      -24.394  80.670  15.127  0.00  0.00    +0.035 A 
ATOM     21  C   LIG    1      -23.866  81.700  14.327  0.00  0.00    +0.090 A 
ATOM     22  N   LIG    1      -23.065  82.759  14.690  0.00  0.00    -0.227 NA
BRANCH  17  23
ATOM     23  C   LIG    1      -27.614  76.946  14.026  0.00  0.00    +0.124 C 
BRANCH  23  24
ATOM     24  C   LIG    1      -27.021  75.554  13.680  0.00  0.00    +0.102 C 
BRANCH  24  25
ATOM     25  N   LIG    1      -27.597  74.921  12.469  0.00  0.00    -0.307 NA
ATOM     26  C   LIG    1      -26.665  74.995  11.334  0.00  0.00    +0.104 C 
ATOM     27  C   LIG    1      -28.858  75.546  12.068  0.00  0.00    +0.104 C 
ENDBRANCH  24  25
ENDBRANCH  23  24
ENDBRANCH  17  23
ENDBRANCH   8   9
BRANCH   1  28
ATOM     28  N   LIG    1      -20.108  83.948  14.461  0.00  0.00    -0.340 N 
ATOM     29  H   LIG    1      -20.729  83.585  15.195  0.00  0.00    +0.146 HD
BRANCH  28  31
ATOM     30  C   LIG    1      -18.139  83.050  13.238  0.00  0.00    +0.028 C 
ATOM     31  C   LIG    1      -19.530  82.751  13.798  0.00  0.00    +0.072 C 
BRANCH  31  32
ATOM     32  C   LIG    1      -19.465  81.549  14.782  0.00  0.00    +0.060 C 
BRANCH  32  33
ATOM     33  C   LIG    1      -20.321  80.360  14.395  0.00  0.00    -0.008 A 
ATOM     34  C   LIG    1      -20.726  79.426  15.355  0.00  0.00    +0.127 A 
ATOM     35  F   LIG    1      -20.315  79.547  16.626  0.00  0.00    -0.205 F 
ATOM     36  C   LIG    1      -21.571  78.365  15.026  0.00  0.00    +0.041 A 
ATOM     37  C   LIG    1      -22.033  78.223  13.719  0.00  0.00    +0.041 A 
ATOM     38  C   LIG    1      -21.627  79.135  12.755  0.00  0.00    +0.124 A 
ATOM     39  F   LIG    1      -22.071  79.019  11.498  0.00  0.00    -0.205 F 
ATOM     40  C   LIG    1      -20.769  80.177  13.077  0.00  0.00    +0.044 A 
ENDBRANCH  32  33
ENDBRANCH  31  32
ENDBRANCH  28  31
ENDBRANCH   1  28
TORSDOF 8
ENDMDL
MODEL 6
REMARK VINA RESULT:      -5.1      3.220      4.938
REMARK  Name = pdb/CHEMBL3671318.pdb
REMARK                            x       y       z     vdW  Elec       q    Type
REMARK                         _______ _______ _______ _____ _____    ______ ____
ROOT
ATOM      1  C   LIG    1      -20.763  85.622  13.387  0.00  0.00    +0.045 A 
ATOM      2  C   LIG    1      -19.944  86.798  13.640  0.00  0.00    +0.041 A 
ATOM      3  C   LIG    1      -20.168  87.593  14.689  0.00  0.00    +0.088 A 
ATOM      4  N   LIG    1      -21.159  87.290  15.574  0.00  0.00    -0.328 N 
ATOM      5  H   LIG    1      -21.328  87.882  16.378  0.00  0.00    +0.168 HD
ATOM      6  C   LIG    1      -21.952  86.178  15.475  0.00  0.00    +0.261 A 
ATOM      7  O   LIG    1      -22.801  85.937  16.334  0.00  0.00    -0.267 OA
ATOM      8  C   LIG    1      -21.739  85.286  14.275  0.00  0.00    +0.102 A 
ENDROOT
BRANCH   8   9
ATOM      9  C   LIG    1      -22.567  84.132  14.087  0.00  0.00    +0.146 A 
ATOM     10  N   LIG    1      -22.828  83.311  15.165  0.00  0.00    -0.338 N 
ATOM     11  H   LIG    1      -22.481  83.468  16.105  0.00  0.00    +0.167 HD
ATOM     12  C   LIG    1      -23.576  82.242  14.751  0.00  0.00    +0.067 A 
ATOM     13  C   LIG    1      -24.056  81.122  15.434  0.00  0.00    +0.041 A 
ATOM     14  C   LIG    1      -24.787  80.254  14.631  0.00  0.00    +0.044 A 
ATOM     15  C   LIG    1      -25.405  78.970  15.046  0.00  0.00    +0.247 C 
ATOM     16  O   LIG    1      -25.411  78.530  16.155  0.00  0.00    -0.270 OA
ATOM     17  N   LIG    1      -25.938  78.426  13.885  0.00  0.00    -0.292 N 
ATOM     18  C   LIG    1      -25.799  79.300  12.726  0.00  0.00    +0.144 C 
ATOM     19  C   LIG    1      -25.012  80.442  13.276  0.00  0.00    -0.016 A 
ATOM     20  C   LIG    1      -24.519  81.568  12.619  0.00  0.00    +0.035 A 
ATOM     21  C   LIG    1      -23.784  82.485  13.394  0.00  0.00    +0.090 A 
ATOM     22  N   LIG    1      -23.171  83.655  13.007  0.00  0.00    -0.227 NA
BRANCH  17  23
ATOM     23  C   LIG    1      -26.511  77.087  13.802  0.00  0.00    +0.124 C 
BRANCH  23  24
ATOM     24  C   LIG    1      -27.192  76.799  12.437  0.00  0.00    +0.102 C 
BRANCH  24  25
ATOM     25  N   LIG    1      -28.673  76.880  12.455  0.00  0.00    -0.307 NA
ATOM     26  C   LIG    1      -29.277  75.752  11.732  0.00  0.00    +0.104 C 
ATOM     27  C   LIG    1      -29.163  78.122  11.858  0.00  0.00    +0.104 C 
ENDBRANCH  24  25
ENDBRANCH  23  24
ENDBRANCH  17  23
ENDBRANCH   8   9
BRANCH   1  28
ATOM     28  N   LIG    1      -20.385  84.883  12.261  0.00  0.00    -0.340 N 
ATOM     29  H   LIG    1      -21.044  84.096  12.225  0.00  0.00    +0.146 HD
BRANCH  28  31
ATOM     30  C   LIG    1      -19.819  84.507   9.870  0.00  0.00    +0.028 C 
ATOM     31  C   LIG    1      -20.396  85.478  10.899  0.00  0.00    +0.072 C 
BRANCH  31  32
ATOM     32  C   LIG    1      -21.837  85.899  10.491  0.00  0.00    +0.060 C 
BRANCH  32  33
ATOM     33  C   LIG    1      -22.160  87.363  10.708  0.00  0.00    -0.008 A 
ATOM     34  C   LIG    1      -23.150  87.750  11.616  0.00  0.00    +0.127 A 
ATOM     35  F   LIG    1      -23.864  86.822  12.270  0.00  0.00    -0.205 F 
ATOM     36  C   LIG    1      -23.411  89.096  11.878  0.00  0.00    +0.041 A 
ATOM     37  C   LIG    1      -22.673  90.086  11.231  0.00  0.00    +0.041 A 
ATOM     38  C   LIG    1      -21.698  89.714  10.318  0.00  0.00    +0.124 A 
ATOM     39  F   LIG    1      -20.972  90.653   9.697  0.00  0.00    -0.205 F 
ATOM     40  C   LIG    1      -21.454  88.377  10.041  0.00  0.00    +0.044 A 
ENDBRANCH  32  33
ENDBRANCH  31  32
ENDBRANCH  28  31
ENDBRANCH   1  28
TORSDOF 8
ENDMDL
MODEL 7
REMARK VINA RESULT:      -5.1     19.368     20.982
REMARK  Name = pdb/CHEMBL3671318.pdb
REMARK                            x       y       z     vdW  Elec       q    Type
REMARK                         _______ _______ _______ _____ _____    ______ ____
ROOT
ATOM      1  C   LIG    1      -35.013  76.399  27.635  0.00  0.00    +0.045 A 
ATOM      2  C   LIG    1      -34.526  77.714  28.020  0.00  0.00    +0.041 A 
ATOM      3  C   LIG    1      -33.839  77.901  29.150  0.00  0.00    +0.088 A 
ATOM      4  N   LIG    1      -33.546  76.839  29.952  0.00  0.00    -0.328 N 
ATOM      5  H   LIG    1      -33.016  76.970  30.806  0.00  0.00    +0.168 HD
ATOM      6  C   LIG    1      -33.896  75.547  29.662  0.00  0.00    +0.261 A 
ATOM      7  O   LIG    1      -33.561  74.626  30.407  0.00  0.00    -0.267 OA
ATOM      8  C   LIG    1      -34.706  75.321  28.407  0.00  0.00    +0.102 A 
ENDROOT
BRANCH   8   9
ATOM      9  C   LIG    1      -35.145  73.999  28.069  0.00  0.00    +0.146 A 
ATOM     10  N   LIG    1      -34.204  73.041  27.752  0.00  0.00    -0.338 N 
ATOM     11  H   LIG    1      -33.201  73.197  27.750  0.00  0.00    +0.167 HD
ATOM     12  C   LIG    1      -34.838  71.880  27.400  0.00  0.00    +0.067 A 
ATOM     13  C   LIG    1      -34.348  70.649  26.958  0.00  0.00    +0.041 A 
ATOM     14  C   LIG    1      -35.346  69.716  26.700  0.00  0.00    +0.044 A 
ATOM     15  C   LIG    1      -35.158  68.333  26.196  0.00  0.00    +0.247 C 
ATOM     16  O   LIG    1      -34.106  67.803  25.999  0.00  0.00    -0.270 OA
ATOM     17  N   LIG    1      -36.439  67.832  26.008  0.00  0.00    -0.292 N 
ATOM     18  C   LIG    1      -37.484  68.755  26.436  0.00  0.00    +0.144 C 
ATOM     19  C   LIG    1      -36.704  69.963  26.833  0.00  0.00    -0.016 A 
ATOM     20  C   LIG    1      -37.165  71.202  27.273  0.00  0.00    +0.035 A 
ATOM     21  C   LIG    1      -36.191  72.177  27.562  0.00  0.00    +0.090 A 
ATOM     22  N   LIG    1      -36.360  73.475  27.987  0.00  0.00    -0.227 NA
BRANCH  17  23
ATOM     23  C   LIG    1      -36.727  66.548  25.377  0.00  0.00    +0.124 C 
BRANCH  23  24
ATOM     24  C   LIG    1      -37.672  66.669  24.152  0.00  0.00    +0.102 C 
BRANCH  24  25
ATOM     25  N   LIG    1      -36.981  66.873  22.856  0.00  0.00    -0.307 NA
ATOM     26  C   LIG    1      -35.662  66.224  22.847  0.00  0.00    +0.104 C 
ATOM     27  C   LIG    1      -36.795  68.291  22.549  0.00  0.00    +0.104 C 
ENDBRANCH  24  25
ENDBRANCH  23  24
ENDBRANCH  17  23
ENDBRANCH   8   9
BRANCH   1  28
ATOM     28  N   LIG    1      -35.695  76.369  26.413  0.00  0.00    -0.340 N 
ATOM     29  H   LIG    1      -35.390  75.498  25.960  0.00  0.00    +0.146 HD
BRANCH  28  31
ATOM     30  C   LIG    1      -37.769  77.591  27.028  0.00  0.00    +0.028 C 
ATOM     31  C   LIG    1      -37.179  76.356  26.349  0.00  0.00    +0.072 C 
BRANCH  31  32
ATOM     32  C   LIG    1      -37.670  76.267  24.876  0.00  0.00    +0.060 C 
BRANCH  32  33
ATOM     33  C   LIG    1      -38.665  75.158  24.601  0.00  0.00    -0.008 A 
ATOM     34  C   LIG    1      -39.954  75.452  24.143  0.00  0.00    +0.127 A 
ATOM     35  F   LIG    1      -40.340  76.727  23.991  0.00  0.00    -0.205 F 
ATOM     36  C   LIG    1      -40.858  74.439  23.819  0.00  0.00    +0.041 A 
ATOM     37  C   LIG    1      -40.481  73.103  23.946  0.00  0.00    +0.041 A 
ATOM     38  C   LIG    1      -39.211  72.800  24.412  0.00  0.00    +0.124 A 
ATOM     39  F   LIG    1      -38.829  71.522  24.528  0.00  0.00    -0.205 F 
ATOM     40  C   LIG    1      -38.319  73.807  24.755  0.00  0.00    +0.044 A 
ENDBRANCH  32  33
ENDBRANCH  31  32
ENDBRANCH  28  31
ENDBRANCH   1  28
TORSDOF 8
ENDMDL
MODEL 8
REMARK VINA RESULT:      -5.1     17.887     20.532
REMARK  Name = pdb/CHEMBL3671318.pdb
REMARK                            x       y       z     vdW  Elec       q    Type
REMARK                         _______ _______ _______ _____ _____    ______ ____
ROOT
ATOM      1  C   LIG    1      -38.745  77.453  26.843  0.00  0.00    +0.045 A 
ATOM      2  C   LIG    1      -38.921  78.864  27.151  0.00  0.00    +0.041 A 
ATOM      3  C   LIG    1      -39.265  79.746  26.210  0.00  0.00    +0.088 A 
ATOM      4  N   LIG    1      -39.498  79.326  24.935  0.00  0.00    -0.328 N 
ATOM      5  H   LIG    1      -39.770  79.988  24.217  0.00  0.00    +0.168 HD
ATOM      6  C   LIG    1      -39.425  78.016  24.540  0.00  0.00    +0.261 A 
ATOM      7  O   LIG    1      -39.691  77.696  23.382  0.00  0.00    -0.267 OA
ATOM      8  C   LIG    1      -39.001  77.008  25.582  0.00  0.00    +0.102 A 
ENDROOT
BRANCH   8   9
ATOM      9  C   LIG    1      -38.859  75.628  25.224  0.00  0.00    +0.146 A 
ATOM     10  N   LIG    1      -39.887  75.002  24.548  0.00  0.00    -0.338 N 
ATOM     11  H   LIG    1      -40.751  75.454  24.269  0.00  0.00    +0.167 HD
ATOM     12  C   LIG    1      -39.574  73.682  24.367  0.00  0.00    +0.067 A 
ATOM     13  C   LIG    1      -40.286  72.627  23.791  0.00  0.00    +0.041 A 
ATOM     14  C   LIG    1      -39.597  71.419  23.808  0.00  0.00    +0.044 A 
ATOM     15  C   LIG    1      -40.086  70.113  23.301  0.00  0.00    +0.247 C 
ATOM     16  O   LIG    1      -41.127  69.929  22.747  0.00  0.00    -0.270 OA
ATOM     17  N   LIG    1      -39.092  69.198  23.624  0.00  0.00    -0.292 N 
ATOM     18  C   LIG    1      -37.922  69.815  24.237  0.00  0.00    +0.144 C 
ATOM     19  C   LIG    1      -38.338  71.243  24.359  0.00  0.00    -0.016 A 
ATOM     20  C   LIG    1      -37.650  72.313  24.930  0.00  0.00    +0.035 A 
ATOM     21  C   LIG    1      -38.300  73.561  24.923  0.00  0.00    +0.090 A 
ATOM     22  N   LIG    1      -37.873  74.767  25.431  0.00  0.00    -0.227 NA
BRANCH  17  23
ATOM     23  C   LIG    1      -39.224  67.756  23.444  0.00  0.00    +0.124 C 
BRANCH  23  24
ATOM     24  C   LIG    1      -38.715  67.265  22.062  0.00  0.00    +0.102 C 
BRANCH  24  25
ATOM     25  N   LIG    1      -37.616  68.076  21.484  0.00  0.00    -0.307 NA
ATOM     26  C   LIG    1      -37.836  68.330  20.053  0.00  0.00    +0.104 C 
ATOM     27  C   LIG    1      -36.314  67.427  21.639  0.00  0.00    +0.104 C 
ENDBRANCH  24  25
ENDBRANCH  23  24
ENDBRANCH  17  23
ENDBRANCH   8   9
BRANCH   1  28
ATOM     28  N   LIG    1      -38.406  76.657  27.943  0.00  0.00    -0.340 N 
ATOM     29  H   LIG    1      -38.367  75.698  27.576  0.00  0.00    +0.146 HD
BRANCH  28  31
ATOM     30  C   LIG    1      -37.171  76.149  30.039  0.00  0.00    +0.028 C 
ATOM     31  C   LIG    1      -37.133  76.855  28.684  0.00  0.00    +0.072 C 
BRANCH  31  32
ATOM     32  C   LIG    1      -35.922  76.349  27.850  0.00  0.00    +0.060 C 
BRANCH  32  33
ATOM     33  C   LIG    1      -34.791  77.346  27.697  0.00  0.00    -0.008 A 
ATOM     34  C   LIG    1      -33.536  76.939  27.233  0.00  0.00    +0.127 A 
ATOM     35  F   LIG    1      -33.304  75.645  26.966  0.00  0.00    -0.205 F 
ATOM     36  C   LIG    1      -32.506  77.857  27.021  0.00  0.00    +0.041 A 
ATOM     37  C   LIG    1      -32.721  79.212  27.269  0.00  0.00    +0.041 A 
ATOM     38  C   LIG    1      -33.956  79.625  27.743  0.00  0.00    +0.124 A 
ATOM     39  F   LIG    1      -34.182  80.925  27.974  0.00  0.00    -0.205 F 
ATOM     40  C   LIG    1      -34.973  78.710  27.974  0.00  0.00    +0.044 A 
ENDBRANCH  32  33
ENDBRANCH  31  32
ENDBRANCH  28  31
ENDBRANCH   1  28
TORSDOF 8
ENDMDL
MODEL 9
REMARK VINA RESULT:      -5.0     19.422     21.401
REMARK  Name = pdb/CHEMBL3671318.pdb
REMARK                            x       y       z     vdW  Elec       q    Type
REMARK                         _______ _______ _______ _____ _____    ______ ____
ROOT
ATOM      1  C   LIG    1      -29.601  84.806  34.699  0.00  0.00    +0.045 A 
ATOM      2  C   LIG    1      -28.867  84.322  35.858  0.00  0.00    +0.041 A 
ATOM      3  C   LIG    1      -29.339  83.335  36.622  0.00  0.00    +0.088 A 
ATOM      4  N   LIG    1      -30.517  82.729  36.301  0.00  0.00    -0.328 N 
ATOM      5  H   LIG    1      -30.877  81.972  36.869  0.00  0.00    +0.168 HD
ATOM      6  C   LIG    1      -31.264  83.055  35.200  0.00  0.00    +0.261 A 
ATOM      7  O   LIG    1      -32.298  82.439  34.941  0.00  0.00    -0.267 OA
ATOM      8  C   LIG    1      -30.765  84.195  34.345  0.00  0.00    +0.102 A 
ENDROOT
BRANCH   8   9
ATOM      9  C   LIG    1      -31.524  84.618  33.205  0.00  0.00    +0.146 A 
ATOM     10  N   LIG    1      -32.765  85.190  33.401  0.00  0.00    -0.338 N 
ATOM     11  H   LIG    1      -33.189  85.349  34.309  0.00  0.00    +0.167 HD
ATOM     12  C   LIG    1      -33.339  85.456  32.187  0.00  0.00    +0.067 A 
ATOM     13  C   LIG    1      -34.587  85.982  31.844  0.00  0.00    +0.041 A 
ATOM     14  C   LIG    1      -34.783  86.091  30.471  0.00  0.00    +0.044 A 
ATOM     15  C   LIG    1      -36.003  86.585  29.786  0.00  0.00    +0.247 C 
ATOM     16  O   LIG    1      -36.975  87.018  30.327  0.00  0.00    -0.270 OA
ATOM     17  N   LIG    1      -35.758  86.416  28.430  0.00  0.00    -0.292 N 
ATOM     18  C   LIG    1      -34.415  85.924  28.147  0.00  0.00    +0.144 C 
ATOM     19  C   LIG    1      -33.860  85.700  29.514  0.00  0.00    -0.016 A 
ATOM     20  C   LIG    1      -32.623  85.175  29.886  0.00  0.00    +0.035 A 
ATOM     21  C   LIG    1      -32.371  85.059  31.266  0.00  0.00    +0.090 A 
ATOM     22  N   LIG    1      -31.260  84.561  31.907  0.00  0.00    -0.227 NA
BRANCH  17  23
ATOM     23  C   LIG    1      -36.757  86.633  27.389  0.00  0.00    +0.124 C 
BRANCH  23  24
ATOM     24  C   LIG    1      -36.335  86.059  26.010  0.00  0.00    +0.102 C 
BRANCH  24  25
ATOM     25  N   LIG    1      -37.104  84.869  25.574  0.00  0.00    -0.307 NA
ATOM     26  C   LIG    1      -38.245  84.615  26.465  0.00  0.00    +0.104 C 
ATOM     27  C   LIG    1      -36.276  83.663  25.535  0.00  0.00    +0.104 C 
ENDBRANCH  24  25
ENDBRANCH  23  24
ENDBRANCH  17  23
ENDBRANCH   8   9
BRANCH   1  28
ATOM     28  N   LIG    1      -28.960  85.829  33.992  0.00  0.00    -0.340 N 
ATOM     29  H   LIG    1      -28.940  85.506  33.017  0.00  0.00    +0.146 HD
BRANCH  28  31
ATOM     30  C   LIG    1      -28.893  88.084  35.036  0.00  0.00    +0.028 C 
ATOM     31  C   LIG    1      -29.511  87.209  33.946  0.00  0.00    +0.072 C 
BRANCH  31  32
ATOM     32  C   LIG    1      -29.281  87.851  32.548  0.00  0.00    +0.060 C 
BRANCH  32  33
ATOM     33  C   LIG    1      -30.537  88.349  31.861  0.00  0.00    -0.008 A 
ATOM     34  C   LIG    1      -30.655  88.304  30.468  0.00  0.00    +0.127 A 
ATOM     35  F   LIG    1      -29.633  87.865  29.719  0.00  0.00    -0.205 F 
ATOM     36  C   LIG    1      -31.832  88.695  29.826  0.00  0.00    +0.041 A 
ATOM     37  C   LIG    1      -32.920  89.137  30.577  0.00  0.00    +0.041 A 
ATOM     38  C   LIG    1      -32.809  89.199  31.957  0.00  0.00    +0.124 A 
ATOM     39  F   LIG    1      -33.849  89.610  32.694  0.00  0.00    -0.205 F 
ATOM     40  C   LIG    1      -31.632  88.832  32.594  0.00  0.00    +0.044 A 
ENDBRANCH  32  33
ENDBRANCH  31  32
ENDBRANCH  28  31
ENDBRANCH   1  28
TORSDOF 8
ENDMDL
