MODEL 1
REMARK VINA RESULT:      -6.3      0.000      0.000
REMARK  Name = pdb/CHEMBL3666254.pdb
REMARK                            x       y       z     vdW  Elec       q    Type
REMARK                         _______ _______ _______ _____ _____    ______ ____
ROOT
ATOM      1  C   LIG    1      -20.382  76.942  30.687  0.00  0.00    +0.042 A 
ATOM      2  C   LIG    1      -20.520  77.816  31.786  0.00  0.00    +0.038 A 
ATOM      3  C   LIG    1      -19.373  78.312  32.426  0.00  0.00    +0.052 A 
ATOM      4  C   LIG    1      -18.136  77.915  31.929  0.00  0.00    +0.134 A 
ATOM      5  N   LIG    1      -17.968  77.086  30.880  0.00  0.00    -0.261 NA
ATOM      6  C   LIG    1      -19.091  76.645  30.277  0.00  0.00    +0.122 A 
ENDROOT
BRANCH   3   7
ATOM      7  N   LIG    1      -19.496  79.163  33.545  0.00  0.00    -0.284 N 
ATOM      8  H   LIG    1      -19.463  80.163  33.374  0.00  0.00    +0.155 HD
ATOM      9  C   LIG    1      -19.512  78.725  34.864  0.00  0.00    +0.222 C 
ATOM     10  O   LIG    1      -19.475  77.550  35.226  0.00  0.00    -0.275 OA
BRANCH   9  11
ATOM     11  C   LIG    1      -19.610  79.809  35.913  0.00  0.00    +0.131 C 
BRANCH  11  12
ATOM     12  C   LIG    1      -20.945  80.502  36.034  0.00  0.00    -0.039 A 
ATOM     13  C   LIG    1      -21.044  81.889  36.228  0.00  0.00    +0.005 A 
ATOM     14  C   LIG    1      -22.289  82.496  36.379  0.00  0.00    +0.020 A 
ATOM     15  C   LIG    1      -23.439  81.714  36.381  0.00  0.00    +0.041 A 
ATOM     16 CL   LIG    1      -24.970  82.456  36.623  0.00  0.00    -0.084 Cl
ATOM     17  C   LIG    1      -23.356  80.333  36.210  0.00  0.00    +0.020 A 
ATOM     18  C   LIG    1      -22.113  79.728  36.035  0.00  0.00    +0.005 A 
ENDBRANCH  11  12
ENDBRANCH   9  11
ENDBRANCH   3   7
BRANCH   1  19
ATOM     19  C   LIG    1      -21.584  76.425  29.979  0.00  0.00    +0.197 C 
ATOM     20  O   LIG    1      -21.596  76.522  28.735  0.00  0.00    -0.287 OA
BRANCH  19  28
ATOM     21  N   LIG    1      -24.028  74.488  31.943  0.00  0.00    -0.329 N 
ATOM     22  C   LIG    1      -24.804  75.564  31.619  0.00  0.00    +0.147 A 
ATOM     23  N   LIG    1      -26.086  75.728  31.969  0.00  0.00    -0.197 NA
ATOM     24  C   LIG    1      -26.626  76.855  31.515  0.00  0.00    +0.214 A 
ATOM     25  N   LIG    1      -25.997  77.797  30.800  0.00  0.00    -0.222 NA
ATOM     26  C   LIG    1      -24.686  77.617  30.486  0.00  0.00    +0.126 A 
ATOM     27  C   LIG    1      -24.035  76.443  30.867  0.00  0.00    +0.048 A 
ATOM     28  C   LIG    1      -22.727  75.855  30.693  0.00  0.00    +0.051 A 
ATOM     29  C   LIG    1      -22.785  74.644  31.372  0.00  0.00    +0.100 A 
BRANCH  21  31
ATOM     30  C   LIG    1      -24.590  72.096  31.945  0.00  0.00    +0.030 C 
ATOM     31  C   LIG    1      -24.377  73.350  32.792  0.00  0.00    +0.083 C 
ATOM     32  C   LIG    1      -23.408  73.089  33.945  0.00  0.00    +0.030 C 
ENDBRANCH  21  31
BRANCH  24  33
ATOM     33  N   LIG    1      -27.985  77.002  31.734  0.00  0.00    -0.327 N 
ATOM     34  H   LIG    1      -28.111  77.574  32.559  0.00  0.00    +0.145 HD
ATOM     35  H   LIG    1      -28.421  76.092  31.745  0.00  0.00    +0.145 HD
ENDBRANCH  24  33
ENDBRANCH  19  28
ENDBRANCH   1  19
TORSDOF 7
ENDMDL
MODEL 2
REMARK VINA RESULT:      -6.1     16.006     18.435
REMARK  Name = pdb/CHEMBL3666254.pdb
REMARK                            x       y       z     vdW  Elec       q    Type
REMARK                         _______ _______ _______ _____ _____    ______ ____
ROOT
ATOM      1  C   LIG    1      -20.759  81.142  15.840  0.00  0.00    +0.042 A 
ATOM      2  C   LIG    1      -20.287  79.969  16.466  0.00  0.00    +0.038 A 
ATOM      3  C   LIG    1      -18.968  79.545  16.241  0.00  0.00    +0.052 A 
ATOM      4  C   LIG    1      -18.176  80.323  15.402  0.00  0.00    +0.134 A 
ATOM      5  N   LIG    1      -18.593  81.449  14.791  0.00  0.00    -0.261 NA
ATOM      6  C   LIG    1      -19.859  81.837  15.046  0.00  0.00    +0.122 A 
ENDROOT
BRANCH   3   7
ATOM      7  N   LIG    1      -18.491  78.358  16.836  0.00  0.00    -0.284 N 
ATOM      8  H   LIG    1      -18.311  78.378  17.835  0.00  0.00    +0.155 HD
ATOM      9  C   LIG    1      -18.119  77.221  16.129  0.00  0.00    +0.222 C 
ATOM     10  O   LIG    1      -18.203  77.080  14.909  0.00  0.00    -0.275 OA
BRANCH   9  11
ATOM     11  C   LIG    1      -17.596  76.073  16.962  0.00  0.00    +0.131 C 
BRANCH  11  12
ATOM     12  C   LIG    1      -18.590  74.992  17.307  0.00  0.00    -0.039 A 
ATOM     13  C   LIG    1      -19.773  74.812  16.571  0.00  0.00    +0.005 A 
ATOM     14  C   LIG    1      -20.694  73.833  16.938  0.00  0.00    +0.020 A 
ATOM     15  C   LIG    1      -20.459  73.059  18.069  0.00  0.00    +0.041 A 
ATOM     16 CL   LIG    1      -21.621  71.889  18.554  0.00  0.00    -0.084 Cl
ATOM     17  C   LIG    1      -19.300  73.239  18.822  0.00  0.00    +0.020 A 
ATOM     18  C   LIG    1      -18.367  74.202  18.442  0.00  0.00    +0.005 A 
ENDBRANCH  11  12
ENDBRANCH   9  11
ENDBRANCH   3   7
BRANCH   1  19
ATOM     19  C   LIG    1      -22.145  81.622  16.085  0.00  0.00    +0.197 C 
ATOM     20  O   LIG    1      -22.352  82.245  17.147  0.00  0.00    -0.287 OA
BRANCH  19  28
ATOM     21  N   LIG    1      -24.691  81.521  13.422  0.00  0.00    -0.329 N 
ATOM     22  C   LIG    1      -25.006  80.364  14.076  0.00  0.00    +0.147 A 
ATOM     23  N   LIG    1      -26.000  79.532  13.743  0.00  0.00    -0.197 NA
ATOM     24  C   LIG    1      -26.113  78.480  14.549  0.00  0.00    +0.214 A 
ATOM     25  N   LIG    1      -25.320  78.200  15.592  0.00  0.00    -0.222 NA
ATOM     26  C   LIG    1      -24.298  79.047  15.887  0.00  0.00    +0.126 A 
ATOM     27  C   LIG    1      -24.123  80.211  15.138  0.00  0.00    +0.048 A 
ATOM     28  C   LIG    1      -23.241  81.355  15.152  0.00  0.00    +0.051 A 
ATOM     29  C   LIG    1      -23.646  82.135  14.075  0.00  0.00    +0.100 A 
BRANCH  21  31
ATOM     30  C   LIG    1      -24.891  83.516  12.003  0.00  0.00    +0.030 C 
ATOM     31  C   LIG    1      -25.286  82.053  12.197  0.00  0.00    +0.083 C 
ATOM     32  C   LIG    1      -25.016  81.228  10.940  0.00  0.00    +0.030 C 
ENDBRANCH  21  31
BRANCH  24  33
ATOM     33  N   LIG    1      -27.210  77.667  14.328  0.00  0.00    -0.327 N 
ATOM     34  H   LIG    1      -27.817  77.731  15.134  0.00  0.00    +0.145 HD
ATOM     35  H   LIG    1      -26.894  76.742  14.073  0.00  0.00    +0.145 HD
ENDBRANCH  24  33
ENDBRANCH  19  28
ENDBRANCH   1  19
TORSDOF 7
ENDMDL
MODEL 3
REMARK VINA RESULT:      -5.9     12.553     17.475
REMARK  Name = pdb/CHEMBL3666254.pdb
REMARK                            x       y       z     vdW  Elec       q    Type
REMARK                         _______ _______ _______ _____ _____    ______ ____
ROOT
ATOM      1  C   LIG    1      -34.614  71.956  28.363  0.00  0.00    +0.042 A 
ATOM      2  C   LIG    1      -35.789  71.796  27.597  0.00  0.00    +0.038 A 
ATOM      3  C   LIG    1      -36.113  70.533  27.078  0.00  0.00    +0.052 A 
ATOM      4  C   LIG    1      -35.247  69.480  27.358  0.00  0.00    +0.134 A 
ATOM      5  N   LIG    1      -34.119  69.596  28.087  0.00  0.00    -0.261 NA
ATOM      6  C   LIG    1      -33.850  70.819  28.587  0.00  0.00    +0.122 A 
ENDROOT
BRANCH   3   7
ATOM      7  N   LIG    1      -37.268  70.365  26.286  0.00  0.00    -0.284 N 
ATOM      8  H   LIG    1      -38.082  69.951  26.731  0.00  0.00    +0.155 HD
ATOM      9  C   LIG    1      -37.318  70.591  24.916  0.00  0.00    +0.222 C 
ATOM     10  O   LIG    1      -36.390  71.013  24.227  0.00  0.00    -0.275 OA
BRANCH   9  11
ATOM     11  C   LIG    1      -38.648  70.311  24.254  0.00  0.00    +0.131 C 
BRANCH  11  12
ATOM     12  C   LIG    1      -39.547  71.501  24.031  0.00  0.00    -0.039 A 
ATOM     13  C   LIG    1      -40.760  71.392  23.330  0.00  0.00    +0.005 A 
ATOM     14  C   LIG    1      -41.550  72.517  23.102  0.00  0.00    +0.020 A 
ATOM     15  C   LIG    1      -41.110  73.764  23.534  0.00  0.00    +0.041 A 
ATOM     16 CL   LIG    1      -42.058  75.160  23.204  0.00  0.00    -0.084 Cl
ATOM     17  C   LIG    1      -39.899  73.893  24.213  0.00  0.00    +0.020 A 
ATOM     18  C   LIG    1      -39.120  72.764  24.462  0.00  0.00    +0.005 A 
ENDBRANCH  11  12
ENDBRANCH   9  11
ENDBRANCH   3   7
BRANCH   1  19
ATOM     19  C   LIG    1      -34.265  73.280  28.942  0.00  0.00    +0.197 C 
ATOM     20  O   LIG    1      -33.644  73.280  30.025  0.00  0.00    -0.287 OA
BRANCH  19  28
ATOM     21  N   LIG    1      -35.878  76.188  27.352  0.00  0.00    -0.329 N 
ATOM     22  C   LIG    1      -34.597  76.656  27.428  0.00  0.00    +0.147 A 
ATOM     23  N   LIG    1      -34.182  77.851  26.989  0.00  0.00    -0.197 NA
ATOM     24  C   LIG    1      -32.880  78.064  27.162  0.00  0.00    +0.214 A 
ATOM     25  N   LIG    1      -32.016  77.222  27.743  0.00  0.00    -0.222 NA
ATOM     26  C   LIG    1      -32.473  76.028  28.208  0.00  0.00    +0.126 A 
ATOM     27  C   LIG    1      -33.812  75.680  28.029  0.00  0.00    +0.048 A 
ATOM     28  C   LIG    1      -34.654  74.539  28.306  0.00  0.00    +0.051 A 
ATOM     29  C   LIG    1      -35.917  74.908  27.857  0.00  0.00    +0.100 A 
BRANCH  21  31
ATOM     30  C   LIG    1      -37.437  76.424  25.469  0.00  0.00    +0.030 C 
ATOM     31  C   LIG    1      -37.067  76.892  26.876  0.00  0.00    +0.083 C 
ATOM     32  C   LIG    1      -38.268  76.837  27.820  0.00  0.00    +0.030 C 
ENDBRANCH  21  31
BRANCH  24  33
ATOM     33  N   LIG    1      -32.381  79.226  26.600  0.00  0.00    -0.327 N 
ATOM     34  H   LIG    1      -32.745  80.011  27.124  0.00  0.00    +0.145 HD
ATOM     35  H   LIG    1      -32.565  79.221  25.607  0.00  0.00    +0.145 HD
ENDBRANCH  24  33
ENDBRANCH  19  28
ENDBRANCH   1  19
TORSDOF 7
ENDMDL
MODEL 4
REMARK VINA RESULT:      -5.9     11.191     16.149
REMARK  Name = pdb/CHEMBL3666254.pdb
REMARK                            x       y       z     vdW  Elec       q    Type
REMARK                         _______ _______ _______ _____ _____    ______ ____
ROOT
ATOM      1  C   LIG    1      -34.618  77.338  27.650  0.00  0.00    +0.042 A 
ATOM      2  C   LIG    1      -35.677  76.661  27.010  0.00  0.00    +0.038 A 
ATOM      3  C   LIG    1      -36.973  77.201  27.051  0.00  0.00    +0.052 A 
ATOM      4  C   LIG    1      -37.146  78.405  27.728  0.00  0.00    +0.134 A 
ATOM      5  N   LIG    1      -36.157  79.079  28.347  0.00  0.00    -0.261 NA
ATOM      6  C   LIG    1      -34.924  78.541  28.269  0.00  0.00    +0.122 A 
ENDROOT
BRANCH   3   7
ATOM      7  N   LIG    1      -38.047  76.520  26.441  0.00  0.00    -0.284 N 
ATOM      8  H   LIG    1      -38.688  76.022  27.050  0.00  0.00    +0.155 HD
ATOM      9  C   LIG    1      -38.199  76.366  25.068  0.00  0.00    +0.222 C 
ATOM     10  O   LIG    1      -37.456  76.842  24.210  0.00  0.00    -0.275 OA
BRANCH   9  11
ATOM     11  C   LIG    1      -39.403  75.565  24.627  0.00  0.00    +0.131 C 
BRANCH  11  12
ATOM     12  C   LIG    1      -39.215  74.071  24.540  0.00  0.00    -0.039 A 
ATOM     13  C   LIG    1      -38.022  73.451  24.947  0.00  0.00    +0.005 A 
ATOM     14  C   LIG    1      -37.860  72.072  24.816  0.00  0.00    +0.020 A 
ATOM     15  C   LIG    1      -38.872  71.314  24.236  0.00  0.00    +0.041 A 
ATOM     16 CL   LIG    1      -38.650  69.623  24.023  0.00  0.00    -0.084 Cl
ATOM     17  C   LIG    1      -40.053  71.918  23.808  0.00  0.00    +0.020 A 
ATOM     18  C   LIG    1      -40.226  73.293  23.961  0.00  0.00    +0.005 A 
ENDBRANCH  11  12
ENDBRANCH   9  11
ENDBRANCH   3   7
BRANCH   1  19
ATOM     19  C   LIG    1      -33.234  76.795  27.597  0.00  0.00    +0.197 C 
ATOM     20  O   LIG    1      -32.524  77.144  26.632  0.00  0.00    -0.287 OA
BRANCH  19  28
ATOM     21  N   LIG    1      -31.629  75.002  30.388  0.00  0.00    -0.329 N 
ATOM     22  C   LIG    1      -32.339  73.973  29.840  0.00  0.00    +0.147 A 
ATOM     23  N   LIG    1      -32.342  72.710  30.286  0.00  0.00    -0.197 NA
ATOM     24  C   LIG    1      -33.103  71.889  29.569  0.00  0.00    +0.214 A 
ATOM     25  N   LIG    1      -33.849  72.232  28.510  0.00  0.00    -0.222 NA
ATOM     26  C   LIG    1      -33.851  73.528  28.100  0.00  0.00    +0.126 A 
ATOM     27  C   LIG    1      -33.045  74.464  28.749  0.00  0.00    +0.048 A 
ATOM     28  C   LIG    1      -32.721  75.864  28.603  0.00  0.00    +0.051 A 
ATOM     29  C   LIG    1      -31.835  76.138  29.637  0.00  0.00    +0.100 A 
BRANCH  21  31
ATOM     30  C   LIG    1      -29.610  75.921  31.443  0.00  0.00    +0.030 C 
ATOM     31  C   LIG    1      -30.808  74.986  31.598  0.00  0.00    +0.083 C 
ATOM     32  C   LIG    1      -31.570  75.261  32.895  0.00  0.00    +0.030 C 
ENDBRANCH  21  31
BRANCH  24  33
ATOM     33  N   LIG    1      -33.029  70.549  29.907  0.00  0.00    -0.327 N 
ATOM     34  H   LIG    1      -33.520  70.418  30.781  0.00  0.00    +0.145 HD
ATOM     35  H   LIG    1      -32.064  70.253  29.882  0.00  0.00    +0.145 HD
ENDBRANCH  24  33
ENDBRANCH  19  28
ENDBRANCH   1  19
TORSDOF 7
ENDMDL
MODEL 5
REMARK VINA RESULT:      -5.9     13.133     17.191
REMARK  Name = pdb/CHEMBL3666254.pdb
REMARK                            x       y       z     vdW  Elec       q    Type
REMARK                         _______ _______ _______ _____ _____    ______ ____
ROOT
ATOM      1  C   LIG    1      -39.152  73.261  24.409  0.00  0.00    +0.042 A 
ATOM      2  C   LIG    1      -38.012  73.877  24.966  0.00  0.00    +0.038 A 
ATOM      3  C   LIG    1      -37.972  75.274  25.100  0.00  0.00    +0.052 A 
ATOM      4  C   LIG    1      -39.086  75.993  24.676  0.00  0.00    +0.134 A 
ATOM      5  N   LIG    1      -40.192  75.437  24.143  0.00  0.00    -0.261 NA
ATOM      6  C   LIG    1      -40.203  74.092  24.049  0.00  0.00    +0.122 A 
ENDROOT
BRANCH   3   7
ATOM      7  N   LIG    1      -36.826  75.905  25.627  0.00  0.00    -0.284 N 
ATOM      8  H   LIG    1      -36.096  76.166  24.972  0.00  0.00    +0.155 HD
ATOM      9  C   LIG    1      -36.571  76.060  26.985  0.00  0.00    +0.222 C 
ATOM     10  O   LIG    1      -37.324  75.719  27.896  0.00  0.00    -0.275 OA
BRANCH   9  11
ATOM     11  C   LIG    1      -35.262  76.731  27.333  0.00  0.00    +0.131 C 
BRANCH  11  12
ATOM     12  C   LIG    1      -34.215  75.858  27.978  0.00  0.00    -0.039 A 
ATOM     13  C   LIG    1      -34.281  74.456  27.918  0.00  0.00    +0.005 A 
ATOM     14  C   LIG    1      -33.323  73.673  28.560  0.00  0.00    +0.020 A 
ATOM     15  C   LIG    1      -32.320  74.287  29.302  0.00  0.00    +0.041 A 
ATOM     16 CL   LIG    1      -31.171  73.321  30.139  0.00  0.00    -0.084 Cl
ATOM     17  C   LIG    1      -32.252  75.677  29.389  0.00  0.00    +0.020 A 
ATOM     18  C   LIG    1      -33.196  76.461  28.728  0.00  0.00    +0.005 A 
ENDBRANCH  11  12
ENDBRANCH   9  11
ENDBRANCH   3   7
BRANCH   1  19
ATOM     19  C   LIG    1      -39.224  71.781  24.281  0.00  0.00    +0.197 C 
ATOM     20  O   LIG    1      -40.284  71.301  23.830  0.00  0.00    -0.287 OA
BRANCH  19  28
ATOM     21  N   LIG    1      -36.567  69.843  25.943  0.00  0.00    -0.329 N 
ATOM     22  C   LIG    1      -36.467  69.325  24.683  0.00  0.00    +0.147 A 
ATOM     23  N   LIG    1      -35.588  68.391  24.297  0.00  0.00    -0.197 NA
ATOM     24  C   LIG    1      -35.682  68.065  23.011  0.00  0.00    +0.214 A 
ATOM     25  N   LIG    1      -36.569  68.559  22.137  0.00  0.00    -0.222 NA
ATOM     26  C   LIG    1      -37.469  69.483  22.566  0.00  0.00    +0.126 A 
ATOM     27  C   LIG    1      -37.425  69.937  23.884  0.00  0.00    +0.048 A 
ATOM     28  C   LIG    1      -38.126  70.906  24.693  0.00  0.00    +0.051 A 
ATOM     29  C   LIG    1      -37.546  70.810  25.953  0.00  0.00    +0.100 A 
BRANCH  21  31
ATOM     30  C   LIG    1      -35.601  70.653  28.051  0.00  0.00    +0.030 C 
ATOM     31  C   LIG    1      -35.826  69.448  27.140  0.00  0.00    +0.083 C 
ATOM     32  C   LIG    1      -36.425  68.269  27.906  0.00  0.00    +0.030 C 
ENDBRANCH  21  31
BRANCH  24  33
ATOM     33  N   LIG    1      -34.706  67.207  22.535  0.00  0.00    -0.327 N 
ATOM     34  H   LIG    1      -34.681  67.288  21.527  0.00  0.00    +0.145 HD
ATOM     35  H   LIG    1      -34.863  66.283  22.910  0.00  0.00    +0.145 HD
ENDBRANCH  24  33
ENDBRANCH  19  28
ENDBRANCH   1  19
TORSDOF 7
ENDMDL
MODEL 6
REMARK VINA RESULT:      -5.8     17.650     21.197
REMARK  Name = pdb/CHEMBL3666254.pdb
REMARK                            x       y       z     vdW  Elec       q    Type
REMARK                         _______ _______ _______ _____ _____    ______ ____
ROOT
ATOM      1  C   LIG    1      -40.188  82.499  22.932  0.00  0.00    +0.042 A 
ATOM      2  C   LIG    1      -39.545  81.244  22.899  0.00  0.00    +0.038 A 
ATOM      3  C   LIG    1      -40.107  80.157  23.587  0.00  0.00    +0.052 A 
ATOM      4  C   LIG    1      -41.298  80.376  24.274  0.00  0.00    +0.134 A 
ATOM      5  N   LIG    1      -41.940  81.561  24.324  0.00  0.00    -0.261 NA
ATOM      6  C   LIG    1      -41.382  82.576  23.635  0.00  0.00    +0.122 A 
ENDROOT
BRANCH   3   7
ATOM      7  N   LIG    1      -39.460  78.903  23.587  0.00  0.00    -0.284 N 
ATOM      8  H   LIG    1      -39.263  78.482  22.685  0.00  0.00    +0.155 HD
ATOM      9  C   LIG    1      -39.209  78.151  24.729  0.00  0.00    +0.222 C 
ATOM     10  O   LIG    1      -39.467  78.496  25.882  0.00  0.00    -0.275 OA
BRANCH   9  11
ATOM     11  C   LIG    1      -38.539  76.816  24.499  0.00  0.00    +0.131 C 
BRANCH  11  12
ATOM     12  C   LIG    1      -39.452  75.652  24.205  0.00  0.00    -0.039 A 
ATOM     13  C   LIG    1      -40.756  75.840  23.720  0.00  0.00    +0.005 A 
ATOM     14  C   LIG    1      -41.593  74.748  23.497  0.00  0.00    +0.020 A 
ATOM     15  C   LIG    1      -41.146  73.466  23.801  0.00  0.00    +0.041 A 
ATOM     16 CL   LIG    1      -42.197  72.125  23.578  0.00  0.00    -0.084 Cl
ATOM     17  C   LIG    1      -39.861  73.265  24.302  0.00  0.00    +0.020 A 
ATOM     18  C   LIG    1      -39.015  74.354  24.503  0.00  0.00    +0.005 A 
ENDBRANCH  11  12
ENDBRANCH   9  11
ENDBRANCH   3   7
BRANCH   1  19
ATOM     19  C   LIG    1      -39.622  83.657  22.190  0.00  0.00    +0.197 C 
ATOM     20  O   LIG    1      -39.776  83.668  20.951  0.00  0.00    -0.287 OA
BRANCH  19  28
ATOM     21  N   LIG    1      -38.192  86.772  23.543  0.00  0.00    -0.329 N 
ATOM     22  C   LIG    1      -37.418  85.864  24.207  0.00  0.00    +0.147 A 
ATOM     23  N   LIG    1      -36.436  86.164  25.067  0.00  0.00    -0.197 NA
ATOM     24  C   LIG    1      -35.818  85.099  25.570  0.00  0.00    +0.214 A 
ATOM     25  N   LIG    1      -36.119  83.820  25.311  0.00  0.00    -0.222 NA
ATOM     26  C   LIG    1      -37.142  83.546  24.458  0.00  0.00    +0.126 A 
ATOM     27  C   LIG    1      -37.824  84.589  23.832  0.00  0.00    +0.048 A 
ATOM     28  C   LIG    1      -38.882  84.728  22.858  0.00  0.00    +0.051 A 
ATOM     29  C   LIG    1      -39.059  86.099  22.713  0.00  0.00    +0.100 A 
BRANCH  21  31
ATOM     30  C   LIG    1      -37.181  88.853  22.717  0.00  0.00    +0.030 C 
ATOM     31  C   LIG    1      -38.189  88.228  23.680  0.00  0.00    +0.083 C 
ATOM     32  C   LIG    1      -39.563  88.886  23.560  0.00  0.00    +0.030 C 
ENDBRANCH  21  31
BRANCH  24  33
ATOM     33  N   LIG    1      -34.709  85.361  26.354  0.00  0.00    -0.327 N 
ATOM     34  H   LIG    1      -34.900  85.030  27.290  0.00  0.00    +0.145 HD
ATOM     35  H   LIG    1      -34.459  86.336  26.263  0.00  0.00    +0.145 HD
ENDBRANCH  24  33
ENDBRANCH  19  28
ENDBRANCH   1  19
TORSDOF 7
ENDMDL
MODEL 7
REMARK VINA RESULT:      -5.8     17.017     20.500
REMARK  Name = pdb/CHEMBL3666254.pdb
REMARK                            x       y       z     vdW  Elec       q    Type
REMARK                         _______ _______ _______ _____ _____    ______ ____
ROOT
ATOM      1  C   LIG    1      -40.165  81.780  23.347  0.00  0.00    +0.042 A 
ATOM      2  C   LIG    1      -39.356  80.626  23.384  0.00  0.00    +0.038 A 
ATOM      3  C   LIG    1      -39.935  79.380  23.673  0.00  0.00    +0.052 A 
ATOM      4  C   LIG    1      -41.307  79.347  23.904  0.00  0.00    +0.134 A 
ATOM      5  N   LIG    1      -42.110  80.429  23.873  0.00  0.00    -0.261 NA
ATOM      6  C   LIG    1      -41.523  81.604  23.572  0.00  0.00    +0.122 A 
ENDROOT
BRANCH   3   7
ATOM      7  N   LIG    1      -39.133  78.222  23.743  0.00  0.00    -0.284 N 
ATOM      8  H   LIG    1      -38.834  77.809  22.865  0.00  0.00    +0.155 HD
ATOM      9  C   LIG    1      -38.850  77.535  24.918  0.00  0.00    +0.222 C 
ATOM     10  O   LIG    1      -39.213  77.869  26.045  0.00  0.00    -0.275 OA
BRANCH   9  11
ATOM     11  C   LIG    1      -38.002  76.293  24.762  0.00  0.00    +0.131 C 
BRANCH  11  12
ATOM     12  C   LIG    1      -38.747  74.994  24.581  0.00  0.00    -0.039 A 
ATOM     13  C   LIG    1      -38.148  73.754  24.856  0.00  0.00    +0.005 A 
ATOM     14  C   LIG    1      -38.846  72.567  24.639  0.00  0.00    +0.020 A 
ATOM     15  C   LIG    1      -40.130  72.613  24.104  0.00  0.00    +0.041 A 
ATOM     16 CL   LIG    1      -40.969  71.147  23.785  0.00  0.00    -0.084 Cl
ATOM     17  C   LIG    1      -40.730  73.835  23.807  0.00  0.00    +0.020 A 
ATOM     18  C   LIG    1      -40.042  75.024  24.046  0.00  0.00    +0.005 A 
ENDBRANCH  11  12
ENDBRANCH   9  11
ENDBRANCH   3   7
BRANCH   1  19
ATOM     19  C   LIG    1      -39.576  83.106  23.018  0.00  0.00    +0.197 C 
ATOM     20  O   LIG    1      -39.892  83.613  21.923  0.00  0.00    -0.287 OA
BRANCH  19  28
ATOM     21  N   LIG    1      -37.175  84.214  25.586  0.00  0.00    -0.329 N 
ATOM     22  C   LIG    1      -37.254  85.358  24.845  0.00  0.00    +0.147 A 
ATOM     23  N   LIG    1      -36.600  86.497  25.107  0.00  0.00    -0.197 NA
ATOM     24  C   LIG    1      -36.858  87.475  24.243  0.00  0.00    +0.214 A 
ATOM     25  N   LIG    1      -37.660  87.388  23.173  0.00  0.00    -0.222 NA
ATOM     26  C   LIG    1      -38.286  86.209  22.915  0.00  0.00    +0.126 A 
ATOM     27  C   LIG    1      -38.127  85.132  23.788  0.00  0.00    +0.048 A 
ATOM     28  C   LIG    1      -38.635  83.786  23.910  0.00  0.00    +0.051 A 
ATOM     29  C   LIG    1      -38.020  83.271  25.045  0.00  0.00    +0.100 A 
BRANCH  21  31
ATOM     30  C   LIG    1      -36.944  84.524  28.012  0.00  0.00    +0.030 C 
ATOM     31  C   LIG    1      -36.320  83.947  26.742  0.00  0.00    +0.083 C 
ATOM     32  C   LIG    1      -35.928  82.481  26.926  0.00  0.00    +0.030 C 
ENDBRANCH  21  31
BRANCH  24  33
ATOM     33  N   LIG    1      -36.315  88.709  24.552  0.00  0.00    -0.327 N 
ATOM     34  H   LIG    1      -35.663  88.957  23.820  0.00  0.00    +0.145 HD
ATOM     35  H   LIG    1      -35.949  88.687  25.493  0.00  0.00    +0.145 HD
ENDBRANCH  24  33
ENDBRANCH  19  28
ENDBRANCH   1  19
TORSDOF 7
ENDMDL
MODEL 8
REMARK VINA RESULT:      -5.7     15.413     19.539
REMARK  Name = pdb/CHEMBL3666254.pdb
REMARK                            x       y       z     vdW  Elec       q    Type
REMARK                         _______ _______ _______ _____ _____    ______ ____
ROOT
ATOM      1  C   LIG    1      -37.360  79.678  27.654  0.00  0.00    +0.042 A 
ATOM      2  C   LIG    1      -37.889  78.468  27.160  0.00  0.00    +0.038 A 
ATOM      3  C   LIG    1      -37.099  77.307  27.171  0.00  0.00    +0.052 A 
ATOM      4  C   LIG    1      -35.811  77.412  27.688  0.00  0.00    +0.134 A 
ATOM      5  N   LIG    1      -35.275  78.550  28.172  0.00  0.00    -0.261 NA
ATOM      6  C   LIG    1      -36.070  79.638  28.163  0.00  0.00    +0.122 A 
ENDROOT
BRANCH   3   7
ATOM      7  N   LIG    1      -37.605  76.097  26.652  0.00  0.00    -0.284 N 
ATOM      8  H   LIG    1      -37.928  75.404  27.320  0.00  0.00    +0.155 HD
ATOM      9  C   LIG    1      -37.555  75.739  25.310  0.00  0.00    +0.222 C 
ATOM     10  O   LIG    1      -37.116  76.441  24.400  0.00  0.00    -0.275 OA
BRANCH   9  11
ATOM     11  C   LIG    1      -38.119  74.377  24.975  0.00  0.00    +0.131 C 
BRANCH  11  12
ATOM     12  C   LIG    1      -39.507  74.356  24.385  0.00  0.00    -0.039 A 
ATOM     13  C   LIG    1      -40.119  73.160  23.976  0.00  0.00    +0.005 A 
ATOM     14  C   LIG    1      -41.386  73.176  23.395  0.00  0.00    +0.020 A 
ATOM     15  C   LIG    1      -42.028  74.391  23.180  0.00  0.00    +0.041 A 
ATOM     16 CL   LIG    1      -43.566  74.414  22.413  0.00  0.00    -0.084 Cl
ATOM     17  C   LIG    1      -41.425  75.588  23.562  0.00  0.00    +0.020 A 
ATOM     18  C   LIG    1      -40.168  75.572  24.164  0.00  0.00    +0.005 A 
ENDBRANCH  11  12
ENDBRANCH   9  11
ENDBRANCH   3   7
BRANCH   1  19
ATOM     19  C   LIG    1      -38.189  80.912  27.674  0.00  0.00    +0.197 C 
ATOM     20  O   LIG    1      -38.941  81.077  28.656  0.00  0.00    -0.287 OA
BRANCH  19  28
ATOM     21  N   LIG    1      -37.655  83.682  25.302  0.00  0.00    -0.329 N 
ATOM     22  C   LIG    1      -38.562  82.951  24.591  0.00  0.00    +0.147 A 
ATOM     23  N   LIG    1      -39.049  83.279  23.387  0.00  0.00    -0.197 NA
ATOM     24  C   LIG    1      -39.935  82.409  22.911  0.00  0.00    +0.214 A 
ATOM     25  N   LIG    1      -40.324  81.275  23.509  0.00  0.00    -0.222 NA
ATOM     26  C   LIG    1      -39.789  80.953  24.717  0.00  0.00    +0.126 A 
ATOM     27  C   LIG    1      -38.889  81.823  25.333  0.00  0.00    +0.048 A 
ATOM     28  C   LIG    1      -38.166  81.887  26.582  0.00  0.00    +0.051 A 
ATOM     29  C   LIG    1      -37.428  83.062  26.510  0.00  0.00    +0.100 A 
BRANCH  21  31
ATOM     30  C   LIG    1      -37.860  86.121  25.087  0.00  0.00    +0.030 C 
ATOM     31  C   LIG    1      -36.960  84.901  24.891  0.00  0.00    +0.083 C 
ATOM     32  C   LIG    1      -35.589  85.107  25.533  0.00  0.00    +0.030 C 
ENDBRANCH  21  31
BRANCH  24  33
ATOM     33  N   LIG    1      -40.567  82.775  21.736  0.00  0.00    -0.327 N 
ATOM     34  H   LIG    1      -40.639  81.955  21.148  0.00  0.00    +0.145 HD
ATOM     35  H   LIG    1      -40.094  83.575  21.338  0.00  0.00    +0.145 HD
ENDBRANCH  24  33
ENDBRANCH  19  28
ENDBRANCH   1  19
TORSDOF 7
ENDMDL
MODEL 9
REMARK VINA RESULT:      -5.7     15.148     19.252
REMARK  Name = pdb/CHEMBL3666254.pdb
REMARK                            x       y       z     vdW  Elec       q    Type
REMARK                         _______ _______ _______ _____ _____    ______ ____
ROOT
ATOM      1  C   LIG    1      -37.045  79.569  27.825  0.00  0.00    +0.042 A 
ATOM      2  C   LIG    1      -37.645  78.390  27.334  0.00  0.00    +0.038 A 
ATOM      3  C   LIG    1      -36.893  77.206  27.262  0.00  0.00    +0.052 A 
ATOM      4  C   LIG    1      -35.572  77.256  27.695  0.00  0.00    +0.134 A 
ATOM      5  N   LIG    1      -34.969  78.363  28.173  0.00  0.00    -0.261 NA
ATOM      6  C   LIG    1      -35.727  79.475  28.247  0.00  0.00    +0.122 A 
ENDROOT
BRANCH   3   7
ATOM      7  N   LIG    1      -37.470  76.028  26.745  0.00  0.00    -0.284 N 
ATOM      8  H   LIG    1      -37.775  75.327  27.413  0.00  0.00    +0.155 HD
ATOM      9  C   LIG    1      -37.516  75.705  25.393  0.00  0.00    +0.222 C 
ATOM     10  O   LIG    1      -37.112  76.418  24.476  0.00  0.00    -0.275 OA
BRANCH   9  11
ATOM     11  C   LIG    1      -38.145  74.372  25.059  0.00  0.00    +0.131 C 
BRANCH  11  12
ATOM     12  C   LIG    1      -39.491  74.420  24.381  0.00  0.00    -0.039 A 
ATOM     13  C   LIG    1      -40.209  75.620  24.245  0.00  0.00    +0.005 A 
ATOM     14  C   LIG    1      -41.470  75.629  23.652  0.00  0.00    +0.020 A 
ATOM     15  C   LIG    1      -42.039  74.431  23.231  0.00  0.00    +0.041 A 
ATOM     16 CL   LIG    1      -43.617  74.434  22.551  0.00  0.00    -0.084 Cl
ATOM     17  C   LIG    1      -41.349  73.229  23.378  0.00  0.00    +0.020 A 
ATOM     18  C   LIG    1      -40.077  73.223  23.950  0.00  0.00    +0.005 A 
ENDBRANCH  11  12
ENDBRANCH   9  11
ENDBRANCH   3   7
BRANCH   1  19
ATOM     19  C   LIG    1      -37.831  80.827  27.932  0.00  0.00    +0.197 C 
ATOM     20  O   LIG    1      -38.350  81.080  29.039  0.00  0.00    -0.287 OA
BRANCH  19  28
ATOM     21  N   LIG    1      -38.805  82.631  24.870  0.00  0.00    -0.329 N 
ATOM     22  C   LIG    1      -37.890  83.514  25.368  0.00  0.00    +0.147 A 
ATOM     23  N   LIG    1      -37.531  84.667  24.789  0.00  0.00    -0.197 NA
ATOM     24  C   LIG    1      -36.607  85.343  25.466  0.00  0.00    +0.214 A 
ATOM     25  N   LIG    1      -36.067  84.980  26.638  0.00  0.00    -0.222 NA
ATOM     26  C   LIG    1      -36.475  83.819  27.217  0.00  0.00    +0.126 A 
ATOM     27  C   LIG    1      -37.402  83.005  26.566  0.00  0.00    +0.048 A 
ATOM     28  C   LIG    1      -38.029  81.724  26.793  0.00  0.00    +0.051 A 
ATOM     29  C   LIG    1      -38.878  81.542  25.708  0.00  0.00    +0.100 A 
BRANCH  21  31
ATOM     30  C   LIG    1      -39.839  81.423  22.997  0.00  0.00    +0.030 C 
ATOM     31  C   LIG    1      -39.640  82.777  23.679  0.00  0.00    +0.083 C 
ATOM     32  C   LIG    1      -40.972  83.489  23.911  0.00  0.00    +0.030 C 
ENDBRANCH  21  31
BRANCH  24  33
ATOM     33  N   LIG    1      -36.105  86.469  24.839  0.00  0.00    -0.327 N 
ATOM     34  H   LIG    1      -35.125  86.310  24.644  0.00  0.00    +0.145 HD
ATOM     35  H   LIG    1      -36.329  87.285  25.390  0.00  0.00    +0.145 HD
ENDBRANCH  24  33
ENDBRANCH  19  28
ENDBRANCH   1  19
TORSDOF 7
ENDMDL
