MODEL 1
REMARK VINA RESULT:      -6.9      0.000      0.000
REMARK  Name = pdb/CHEMBL3950761.pdb
REMARK                            x       y       z     vdW  Elec       q    Type
REMARK                         _______ _______ _______ _____ _____    ______ ____
ROOT
ATOM      1  C   LIG    1      -36.847  66.752  19.511  0.00  0.00    +0.221 A 
ATOM      2  N   LIG    1      -37.429  65.993  20.464  0.00  0.00    -0.219 NA
ATOM      3  C   LIG    1      -38.286  66.622  21.292  0.00  0.00    +0.142 A 
ATOM      4  C   LIG    1      -38.489  67.986  21.312  0.00  0.00    +0.087 A 
ATOM      5  C   LIG    1      -37.853  68.745  20.323  0.00  0.00    +0.034 A 
ATOM      6  C   LIG    1      -37.024  68.119  19.395  0.00  0.00    +0.070 A 
ENDROOT
BRANCH   4   7
ATOM      7  N   LIG    1      -39.391  68.621  22.151  0.00  0.00    -0.198 NA
ATOM      8  C   LIG    1      -40.463  69.259  21.875  0.00  0.00    +0.285 C 
BRANCH   8   9
ATOM      9  N   LIG    1      -41.238  69.985  22.752  0.00  0.00    -0.267 N 
ATOM     10  H   LIG    1      -42.025  69.493  23.168  0.00  0.00    +0.157 HD
BRANCH   9  11
ATOM     11  C   LIG    1      -41.110  71.360  23.047  0.00  0.00    +0.061 A 
ATOM     12  C   LIG    1      -42.076  72.346  22.748  0.00  0.00    +0.088 A 
ATOM     13  C   LIG    1      -41.839  73.688  23.148  0.00  0.00    +0.030 A 
ATOM     14  C   LIG    1      -40.686  74.066  23.846  0.00  0.00    +0.014 A 
ATOM     15  C   LIG    1      -39.732  73.116  24.160  0.00  0.00    +0.057 A 
ATOM     16  C   LIG    1      -39.973  71.807  23.754  0.00  0.00    +0.037 A 
BRANCH  12  17
ATOM     17  N   LIG    1      -43.296  72.065  22.065  0.00  0.00    -0.218 N 
ATOM     18  N   LIG    1      -44.204  71.156  22.506  0.00  0.00    -0.061 NA
ATOM     19  N   LIG    1      -45.245  71.159  21.678  0.00  0.00    -0.138 NA
ATOM     20  C   LIG    1      -44.995  72.052  20.684  0.00  0.00    +0.156 A 
ATOM     21  C   LIG    1      -43.769  72.628  20.893  0.00  0.00    +0.136 A 
ENDBRANCH  12  17
BRANCH  15  22
ATOM     22  C   LIG    1      -38.457  73.427  24.900  0.00  0.00    +0.417 C 
ATOM     23  F   LIG    1      -38.619  73.402  26.250  0.00  0.00    -0.166 F 
ATOM     24  F   LIG    1      -37.972  74.660  24.595  0.00  0.00    -0.166 F 
ATOM     25  F   LIG    1      -37.437  72.557  24.640  0.00  0.00    -0.166 F 
ENDBRANCH  15  22
ENDBRANCH   9  11
ENDBRANCH   8   9
BRANCH   8  26
ATOM     26  O   LIG    1      -41.010  69.273  20.645  0.00  0.00    -0.481 OA
ATOM     27  H   LIG    1      -40.349  68.961  20.000  0.00  0.00    +0.295 HD
ENDBRANCH   8  26
ENDBRANCH   4   7
BRANCH   1  28
ATOM     28  O   LIG    1      -35.992  66.153  18.599  0.00  0.00    -0.438 OA
BRANCH  28  32
ATOM     29  C   LIG    1      -32.017  67.550  18.623  0.00  0.00    -0.014 A 
ATOM     30  C   LIG    1      -32.603  66.887  19.722  0.00  0.00    +0.012 A 
ATOM     31  C   LIG    1      -33.918  66.403  19.677  0.00  0.00    +0.047 A 
ATOM     32  C   LIG    1      -34.695  66.605  18.541  0.00  0.00    +0.130 A 
ATOM     33  C   LIG    1      -34.152  67.298  17.461  0.00  0.00    +0.047 A 
ATOM     34  C   LIG    1      -32.821  67.709  17.484  0.00  0.00    +0.012 A 
BRANCH  29  36
ATOM     35  C   LIG    1      -29.474  67.222  18.756  0.00  0.00    +0.124 A 
ATOM     36  C   LIG    1      -30.617  68.052  18.662  0.00  0.00    +0.023 A 
ATOM     37  C   LIG    1      -30.366  69.437  18.601  0.00  0.00    +0.033 A 
ATOM     38  C   LIG    1      -29.066  69.927  18.618  0.00  0.00    +0.060 A 
ATOM     39 CL   LIG    1      -28.762  71.610  18.498  0.00  0.00    -0.082 Cl
ATOM     40  C   LIG    1      -28.029  69.024  18.726  0.00  0.00    +0.133 A 
ATOM     41  N   LIG    1      -28.208  67.687  18.802  0.00  0.00    -0.239 NA
BRANCH  35  42
ATOM     42  N   LIG    1      -29.541  65.832  18.821  0.00  0.00    -0.343 N 
ATOM     43  H   LIG    1      -29.442  65.413  17.903  0.00  0.00    +0.144 HD
ATOM     44  H   LIG    1      -28.813  65.529  19.463  0.00  0.00    +0.144 HD
ENDBRANCH  35  42
ENDBRANCH  29  36
ENDBRANCH  28  32
ENDBRANCH   1  28
TORSDOF 10
ENDMDL
MODEL 2
REMARK VINA RESULT:      -6.9     22.554     24.942
REMARK  Name = pdb/CHEMBL3950761.pdb
REMARK                            x       y       z     vdW  Elec       q    Type
REMARK                         _______ _______ _______ _____ _____    ______ ____
ROOT
ATOM      1  C   LIG    1      -33.666  89.914  28.709  0.00  0.00    +0.221 A 
ATOM      2  N   LIG    1      -32.680  90.836  28.741  0.00  0.00    -0.219 NA
ATOM      3  C   LIG    1      -32.662  91.733  27.736  0.00  0.00    +0.142 A 
ATOM      4  C   LIG    1      -33.485  91.678  26.630  0.00  0.00    +0.087 A 
ATOM      5  C   LIG    1      -34.482  90.696  26.619  0.00  0.00    +0.034 A 
ATOM      6  C   LIG    1      -34.587  89.802  27.681  0.00  0.00    +0.070 A 
ENDROOT
BRANCH   4   7
ATOM      7  N   LIG    1      -33.476  92.620  25.612  0.00  0.00    -0.198 NA
ATOM      8  C   LIG    1      -32.569  92.893  24.754  0.00  0.00    +0.285 C 
BRANCH   8   9
ATOM      9  N   LIG    1      -32.574  93.940  23.858  0.00  0.00    -0.267 N 
ATOM     10  H   LIG    1      -32.934  94.825  24.205  0.00  0.00    +0.157 HD
BRANCH   9  11
ATOM     11  C   LIG    1      -32.228  93.876  22.490  0.00  0.00    +0.061 A 
ATOM     12  C   LIG    1      -31.061  94.433  21.923  0.00  0.00    +0.088 A 
ATOM     13  C   LIG    1      -30.812  94.249  20.537  0.00  0.00    +0.030 A 
ATOM     14  C   LIG    1      -31.676  93.518  19.715  0.00  0.00    +0.014 A 
ATOM     15  C   LIG    1      -32.818  92.953  20.250  0.00  0.00    +0.057 A 
ATOM     16  C   LIG    1      -33.054  93.148  21.608  0.00  0.00    +0.037 A 
BRANCH  12  17
ATOM     17  N   LIG    1      -30.102  95.174  22.675  0.00  0.00    -0.218 N 
ATOM     18  N   LIG    1      -29.851  94.948  23.990  0.00  0.00    -0.061 NA
ATOM     19  N   LIG    1      -28.881  95.767  24.386  0.00  0.00    -0.138 NA
ATOM     20  C   LIG    1      -28.524  96.545  23.329  0.00  0.00    +0.156 A 
ATOM     21  C   LIG    1      -29.286  96.203  22.241  0.00  0.00    +0.136 A 
ENDBRANCH  12  17
BRANCH  15  22
ATOM     22  C   LIG    1      -33.812  92.155  19.445  0.00  0.00    +0.417 C 
ATOM     23  F   LIG    1      -33.273  91.016  18.934  0.00  0.00    -0.166 F 
ATOM     24  F   LIG    1      -34.298  92.857  18.386  0.00  0.00    -0.166 F 
ATOM     25  F   LIG    1      -34.908  91.754  20.153  0.00  0.00    -0.166 F 
ENDBRANCH  15  22
ENDBRANCH   9  11
ENDBRANCH   8   9
BRANCH   8  26
ATOM     26  O   LIG    1      -31.466  92.140  24.589  0.00  0.00    -0.481 OA
ATOM     27  H   LIG    1      -31.734  91.225  24.382  0.00  0.00    +0.295 HD
ENDBRANCH   8  26
ENDBRANCH   4   7
BRANCH   1  28
ATOM     28  O   LIG    1      -33.765  88.994  29.739  0.00  0.00    -0.438 OA
BRANCH  28  32
ATOM     29  C   LIG    1      -30.618  88.857  32.536  0.00  0.00    -0.014 A 
ATOM     30  C   LIG    1      -31.874  89.431  32.823  0.00  0.00    +0.012 A 
ATOM     31  C   LIG    1      -32.915  89.435  31.886  0.00  0.00    +0.047 A 
ATOM     32  C   LIG    1      -32.713  88.897  30.620  0.00  0.00    +0.130 A 
ATOM     33  C   LIG    1      -31.467  88.366  30.298  0.00  0.00    +0.047 A 
ATOM     34  C   LIG    1      -30.460  88.297  31.259  0.00  0.00    +0.012 A 
BRANCH  29  36
ATOM     35  C   LIG    1      -28.949  87.659  34.076  0.00  0.00    +0.124 A 
ATOM     36  C   LIG    1      -29.514  88.838  33.534  0.00  0.00    +0.023 A 
ATOM     37  C   LIG    1      -28.963  90.050  33.994  0.00  0.00    +0.033 A 
ATOM     38  C   LIG    1      -27.921  90.056  34.913  0.00  0.00    +0.060 A 
ATOM     39 CL   LIG    1      -27.222  91.532  35.437  0.00  0.00    -0.082 Cl
ATOM     40  C   LIG    1      -27.458  88.844  35.383  0.00  0.00    +0.133 A 
ATOM     41  N   LIG    1      -27.956  87.651  34.990  0.00  0.00    -0.239 NA
BRANCH  35  42
ATOM     42  N   LIG    1      -29.370  86.378  33.729  0.00  0.00    -0.343 N 
ATOM     43  H   LIG    1      -30.190  86.100  34.258  0.00  0.00    +0.144 HD
ATOM     44  H   LIG    1      -29.543  86.382  32.727  0.00  0.00    +0.144 HD
ENDBRANCH  35  42
ENDBRANCH  29  36
ENDBRANCH  28  32
ENDBRANCH   1  28
TORSDOF 10
ENDMDL
MODEL 3
REMARK VINA RESULT:      -6.8      2.329      3.773
REMARK  Name = pdb/CHEMBL3950761.pdb
REMARK                            x       y       z     vdW  Elec       q    Type
REMARK                         _______ _______ _______ _____ _____    ______ ____
ROOT
ATOM      1  C   LIG    1      -36.525  66.867  20.314  0.00  0.00    +0.221 A 
ATOM      2  N   LIG    1      -36.919  68.107  19.955  0.00  0.00    -0.219 NA
ATOM      3  C   LIG    1      -37.596  68.814  20.881  0.00  0.00    +0.142 A 
ATOM      4  C   LIG    1      -38.020  68.305  22.091  0.00  0.00    +0.087 A 
ATOM      5  C   LIG    1      -37.611  67.009  22.422  0.00  0.00    +0.034 A 
ATOM      6  C   LIG    1      -36.838  66.275  21.525  0.00  0.00    +0.070 A 
ENDROOT
BRANCH   4   7
ATOM      7  N   LIG    1      -38.694  69.048  23.048  0.00  0.00    -0.198 NA
ATOM      8  C   LIG    1      -39.695  69.833  22.924  0.00  0.00    +0.285 C 
BRANCH   8   9
ATOM      9  N   LIG    1      -40.226  70.649  23.899  0.00  0.00    -0.267 N 
ATOM     10  H   LIG    1      -41.005  70.265  24.428  0.00  0.00    +0.157 HD
BRANCH   9  11
ATOM     11  C   LIG    1      -39.867  71.989  24.161  0.00  0.00    +0.061 A 
ATOM     12  C   LIG    1      -38.640  72.403  24.726  0.00  0.00    +0.088 A 
ATOM     13  C   LIG    1      -38.389  73.791  24.886  0.00  0.00    +0.030 A 
ATOM     14  C   LIG    1      -39.308  74.767  24.488  0.00  0.00    +0.014 A 
ATOM     15  C   LIG    1      -40.510  74.386  23.921  0.00  0.00    +0.057 A 
ATOM     16  C   LIG    1      -40.748  73.023  23.777  0.00  0.00    +0.037 A 
BRANCH  12  17
ATOM     17  N   LIG    1      -37.624  71.494  25.142  0.00  0.00    -0.218 N 
ATOM     18  N   LIG    1      -36.520  71.219  24.399  0.00  0.00    -0.061 NA
ATOM     19  N   LIG    1      -35.750  70.373  25.077  0.00  0.00    -0.138 NA
ATOM     20  C   LIG    1      -36.372  70.078  26.249  0.00  0.00    +0.156 A 
ATOM     21  C   LIG    1      -37.561  70.758  26.312  0.00  0.00    +0.136 A 
ENDBRANCH  12  17
BRANCH  15  22
ATOM     22  C   LIG    1      -41.566  75.362  23.468  0.00  0.00    +0.417 C 
ATOM     23  F   LIG    1      -41.043  76.414  22.784  0.00  0.00    -0.166 F 
ATOM     24  F   LIG    1      -42.261  75.889  24.511  0.00  0.00    -0.166 F 
ATOM     25  F   LIG    1      -42.505  74.819  22.638  0.00  0.00    -0.166 F 
ENDBRANCH  15  22
ENDBRANCH   9  11
ENDBRANCH   8   9
BRANCH   8  26
ATOM     26  O   LIG    1      -40.406  69.939  21.786  0.00  0.00    -0.481 OA
ATOM     27  H   LIG    1      -41.342  69.745  21.977  0.00  0.00    +0.295 HD
ENDBRANCH   8  26
ENDBRANCH   4   7
BRANCH   1  28
ATOM     28  O   LIG    1      -35.785  66.108  19.421  0.00  0.00    -0.438 OA
BRANCH  28  32
ATOM     29  C   LIG    1      -31.914  67.518  18.543  0.00  0.00    -0.014 A 
ATOM     30  C   LIG    1      -32.241  66.884  19.760  0.00  0.00    +0.012 A 
ATOM     31  C   LIG    1      -33.529  66.395  20.015  0.00  0.00    +0.047 A 
ATOM     32  C   LIG    1      -34.536  66.562  19.070  0.00  0.00    +0.130 A 
ATOM     33  C   LIG    1      -34.248  67.227  17.880  0.00  0.00    +0.047 A 
ATOM     34  C   LIG    1      -32.947  67.643  17.602  0.00  0.00    +0.012 A 
BRANCH  29  36
ATOM     35  C   LIG    1      -29.497  67.242  17.722  0.00  0.00    +0.124 A 
ATOM     36  C   LIG    1      -30.543  68.026  18.264  0.00  0.00    +0.023 A 
ATOM     37  C   LIG    1      -30.224  69.370  18.537  0.00  0.00    +0.033 A 
ATOM     38  C   LIG    1      -28.955  69.870  18.268  0.00  0.00    +0.060 A 
ATOM     39 CL   LIG    1      -28.583  71.519  18.560  0.00  0.00    -0.082 Cl
ATOM     40  C   LIG    1      -28.010  69.009  17.752  0.00  0.00    +0.133 A 
ATOM     41  N   LIG    1      -28.253  67.708  17.482  0.00  0.00    -0.239 NA
BRANCH  35  42
ATOM     42  N   LIG    1      -29.641  65.897  17.389  0.00  0.00    -0.343 N 
ATOM     43  H   LIG    1      -29.564  65.752  16.388  0.00  0.00    +0.144 HD
ATOM     44  H   LIG    1      -28.934  65.383  17.908  0.00  0.00    +0.144 HD
ENDBRANCH  35  42
ENDBRANCH  29  36
ENDBRANCH  28  32
ENDBRANCH   1  28
TORSDOF 10
ENDMDL
MODEL 4
REMARK VINA RESULT:      -6.8      2.144      2.554
REMARK  Name = pdb/CHEMBL3950761.pdb
REMARK                            x       y       z     vdW  Elec       q    Type
REMARK                         _______ _______ _______ _____ _____    ______ ____
ROOT
ATOM      1  C   LIG    1      -36.570  66.890  20.377  0.00  0.00    +0.221 A 
ATOM      2  N   LIG    1      -36.735  66.548  21.673  0.00  0.00    -0.219 NA
ATOM      3  C   LIG    1      -37.403  67.427  22.446  0.00  0.00    +0.142 A 
ATOM      4  C   LIG    1      -37.792  68.686  22.036  0.00  0.00    +0.087 A 
ATOM      5  C   LIG    1      -37.586  69.015  20.691  0.00  0.00    +0.034 A 
ATOM      6  C   LIG    1      -36.975  68.099  19.839  0.00  0.00    +0.070 A 
ENDROOT
BRANCH   4   7
ATOM      7  N   LIG    1      -38.499  69.573  22.832  0.00  0.00    -0.198 NA
ATOM      8  C   LIG    1      -38.081  70.408  23.703  0.00  0.00    +0.285 C 
BRANCH   8   9
ATOM      9  N   LIG    1      -38.856  71.162  24.559  0.00  0.00    -0.267 N 
ATOM     10  H   LIG    1      -39.107  70.722  25.440  0.00  0.00    +0.157 HD
BRANCH   9  11
ATOM     11  C   LIG    1      -39.415  72.430  24.288  0.00  0.00    +0.061 A 
ATOM     12  C   LIG    1      -40.686  72.649  23.714  0.00  0.00    +0.088 A 
ATOM     13  C   LIG    1      -41.146  73.982  23.545  0.00  0.00    +0.030 A 
ATOM     14  C   LIG    1      -40.389  75.089  23.944  0.00  0.00    +0.014 A 
ATOM     15  C   LIG    1      -39.147  74.898  24.520  0.00  0.00    +0.057 A 
ATOM     16  C   LIG    1      -38.705  73.588  24.672  0.00  0.00    +0.037 A 
BRANCH  12  17
ATOM     17  N   LIG    1      -41.549  71.593  23.296  0.00  0.00    -0.218 N 
ATOM     18  N   LIG    1      -41.877  70.541  24.090  0.00  0.00    -0.061 NA
ATOM     19  N   LIG    1      -42.726  69.758  23.430  0.00  0.00    -0.138 NA
ATOM     20  C   LIG    1      -42.924  70.293  22.196  0.00  0.00    +0.156 A 
ATOM     21  C   LIG    1      -42.185  71.441  22.077  0.00  0.00    +0.136 A 
ENDBRANCH  12  17
BRANCH  15  22
ATOM     22  C   LIG    1      -38.256  76.026  24.975  0.00  0.00    +0.417 C 
ATOM     23  F   LIG    1      -37.153  75.584  25.635  0.00  0.00    -0.166 F 
ATOM     24  F   LIG    1      -38.895  76.877  25.822  0.00  0.00    -0.166 F 
ATOM     25  F   LIG    1      -37.784  76.806  23.958  0.00  0.00    -0.166 F 
ENDBRANCH  15  22
ENDBRANCH   9  11
ENDBRANCH   8   9
BRANCH   8  26
ATOM     26  O   LIG    1      -36.778  70.694  23.878  0.00  0.00    -0.481 OA
ATOM     27  H   LIG    1      -36.520  70.460  24.789  0.00  0.00    +0.295 HD
ENDBRANCH   8  26
ENDBRANCH   4   7
BRANCH   1  28
ATOM     28  O   LIG    1      -35.933  66.007  19.521  0.00  0.00    -0.438 OA
BRANCH  28  32
ATOM     29  C   LIG    1      -31.852  66.760  18.794  0.00  0.00    -0.014 A 
ATOM     30  C   LIG    1      -32.340  66.317  20.042  0.00  0.00    +0.012 A 
ATOM     31  C   LIG    1      -33.698  66.043  20.248  0.00  0.00    +0.047 A 
ATOM     32  C   LIG    1      -34.612  66.242  19.219  0.00  0.00    +0.130 A 
ATOM     33  C   LIG    1      -34.161  66.723  17.992  0.00  0.00    +0.047 A 
ATOM     34  C   LIG    1      -32.799  66.921  17.771  0.00  0.00    +0.012 A 
BRANCH  29  36
ATOM     35  C   LIG    1      -29.827  68.327  18.623  0.00  0.00    +0.124 A 
ATOM     36  C   LIG    1      -30.409  67.038  18.567  0.00  0.00    +0.023 A 
ATOM     37  C   LIG    1      -29.526  65.979  18.279  0.00  0.00    +0.033 A 
ATOM     38  C   LIG    1      -28.171  66.214  18.082  0.00  0.00    +0.060 A 
ATOM     39 CL   LIG    1      -27.092  64.916  17.776  0.00  0.00    -0.082 Cl
ATOM     40  C   LIG    1      -27.717  67.515  18.146  0.00  0.00    +0.133 A 
ATOM     41  N   LIG    1      -28.517  68.572  18.404  0.00  0.00    -0.239 NA
BRANCH  35  42
ATOM     42  N   LIG    1      -30.552  69.484  18.899  0.00  0.00    -0.343 N 
ATOM     43  H   LIG    1      -31.530  69.276  19.072  0.00  0.00    +0.144 HD
ATOM     44  H   LIG    1      -30.107  69.932  19.696  0.00  0.00    +0.144 HD
ENDBRANCH  35  42
ENDBRANCH  29  36
ENDBRANCH  28  32
ENDBRANCH   1  28
TORSDOF 10
ENDMDL
MODEL 5
REMARK VINA RESULT:      -6.7     12.206     16.131
REMARK  Name = pdb/CHEMBL3950761.pdb
REMARK                            x       y       z     vdW  Elec       q    Type
REMARK                         _______ _______ _______ _____ _____    ______ ____
ROOT
ATOM      1  C   LIG    1      -39.124  81.791  25.149  0.00  0.00    +0.221 A 
ATOM      2  N   LIG    1      -38.699  82.681  24.227  0.00  0.00    -0.219 NA
ATOM      3  C   LIG    1      -37.616  83.413  24.553  0.00  0.00    +0.142 A 
ATOM      4  C   LIG    1      -37.017  83.407  25.796  0.00  0.00    +0.087 A 
ATOM      5  C   LIG    1      -37.497  82.487  26.735  0.00  0.00    +0.034 A 
ATOM      6  C   LIG    1      -38.562  81.653  26.407  0.00  0.00    +0.070 A 
ENDROOT
BRANCH   4   7
ATOM      7  N   LIG    1      -35.888  84.146  26.113  0.00  0.00    -0.198 NA
ATOM      8  C   LIG    1      -35.774  85.224  26.789  0.00  0.00    +0.285 C 
BRANCH   8   9
ATOM      9  N   LIG    1      -34.633  85.980  26.947  0.00  0.00    -0.267 N 
ATOM     10  H   LIG    1      -34.060  86.105  26.116  0.00  0.00    +0.157 HD
BRANCH   9  11
ATOM     11  C   LIG    1      -34.134  86.504  28.159  0.00  0.00    +0.061 A 
ATOM     12  C   LIG    1      -34.250  87.850  28.569  0.00  0.00    +0.088 A 
ATOM     13  C   LIG    1      -33.746  88.230  29.841  0.00  0.00    +0.030 A 
ATOM     14  C   LIG    1      -33.151  87.312  30.713  0.00  0.00    +0.014 A 
ATOM     15  C   LIG    1      -33.037  85.986  30.338  0.00  0.00    +0.057 A 
ATOM     16  C   LIG    1      -33.527  85.629  29.086  0.00  0.00    +0.037 A 
BRANCH  12  17
ATOM     17  N   LIG    1      -34.861  88.861  27.770  0.00  0.00    -0.218 N 
ATOM     18  N   LIG    1      -36.064  88.703  27.160  0.00  0.00    -0.061 NA
ATOM     19  N   LIG    1      -36.375  89.833  26.532  0.00  0.00    -0.138 NA
ATOM     20  C   LIG    1      -35.355  90.714  26.713  0.00  0.00    +0.156 A 
ATOM     21  C   LIG    1      -34.381  90.125  27.477  0.00  0.00    +0.136 A 
ENDBRANCH  12  17
BRANCH  15  22
ATOM     22  C   LIG    1      -32.406  84.925  31.204  0.00  0.00    +0.417 C 
ATOM     23  F   LIG    1      -31.133  84.635  30.827  0.00  0.00    -0.166 F 
ATOM     24  F   LIG    1      -33.095  83.753  31.165  0.00  0.00    -0.166 F 
ATOM     25  F   LIG    1      -32.328  85.261  32.525  0.00  0.00    -0.166 F 
ENDBRANCH  15  22
ENDBRANCH   9  11
ENDBRANCH   8   9
BRANCH   8  26
ATOM     26  O   LIG    1      -36.791  85.759  27.490  0.00  0.00    -0.481 OA
ATOM     27  H   LIG    1      -36.446  86.479  28.050  0.00  0.00    +0.295 HD
ENDBRANCH   8  26
ENDBRANCH   4   7
BRANCH   1  28
ATOM     28  O   LIG    1      -40.205  80.976  24.855  0.00  0.00    -0.438 OA
BRANCH  28  32
ATOM     29  C   LIG    1      -39.592  76.813  24.672  0.00  0.00    -0.014 A 
ATOM     30  C   LIG    1      -39.189  77.693  23.645  0.00  0.00    +0.012 A 
ATOM     31  C   LIG    1      -39.376  79.078  23.745  0.00  0.00    +0.047 A 
ATOM     32  C   LIG    1      -40.007  79.616  24.861  0.00  0.00    +0.130 A 
ATOM     33  C   LIG    1      -40.454  78.762  25.867  0.00  0.00    +0.047 A 
ATOM     34  C   LIG    1      -40.198  77.395  25.796  0.00  0.00    +0.012 A 
BRANCH  29  36
ATOM     35  C   LIG    1      -38.229  74.669  25.044  0.00  0.00    +0.124 A 
ATOM     36  C   LIG    1      -39.382  75.343  24.576  0.00  0.00    +0.023 A 
ATOM     37  C   LIG    1      -40.373  74.529  23.991  0.00  0.00    +0.033 A 
ATOM     38  C   LIG    1      -40.205  73.152  23.907  0.00  0.00    +0.060 A 
ATOM     39 CL   LIG    1      -41.433  72.160  23.236  0.00  0.00    -0.082 Cl
ATOM     40  C   LIG    1      -39.033  72.606  24.385  0.00  0.00    +0.133 A 
ATOM     41  N   LIG    1      -38.042  73.336  24.943  0.00  0.00    -0.239 NA
BRANCH  35  42
ATOM     42  N   LIG    1      -37.157  75.318  25.652  0.00  0.00    -0.343 N 
ATOM     43  H   LIG    1      -37.281  75.378  26.657  0.00  0.00    +0.144 HD
ATOM     44  H   LIG    1      -36.315  74.807  25.398  0.00  0.00    +0.144 HD
ENDBRANCH  35  42
ENDBRANCH  29  36
ENDBRANCH  28  32
ENDBRANCH   1  28
TORSDOF 10
ENDMDL
MODEL 6
REMARK VINA RESULT:      -6.6     10.792     15.009
REMARK  Name = pdb/CHEMBL3950761.pdb
REMARK                            x       y       z     vdW  Elec       q    Type
REMARK                         _______ _______ _______ _____ _____    ______ ____
ROOT
ATOM      1  C   LIG    1      -36.338  80.250  29.996  0.00  0.00    +0.221 A 
ATOM      2  N   LIG    1      -35.269  79.480  29.701  0.00  0.00    -0.219 NA
ATOM      3  C   LIG    1      -35.413  78.619  28.674  0.00  0.00    +0.142 A 
ATOM      4  C   LIG    1      -36.603  78.385  28.017  0.00  0.00    +0.087 A 
ATOM      5  C   LIG    1      -37.697  79.187  28.363  0.00  0.00    +0.034 A 
ATOM      6  C   LIG    1      -37.564  80.147  29.363  0.00  0.00    +0.070 A 
ENDROOT
BRANCH   4   7
ATOM      7  N   LIG    1      -36.736  77.515  26.946  0.00  0.00    -0.198 NA
ATOM      8  C   LIG    1      -36.889  76.247  26.931  0.00  0.00    +0.285 C 
BRANCH   8   9
ATOM      9  N   LIG    1      -36.873  75.429  25.822  0.00  0.00    -0.267 N 
ATOM     10  H   LIG    1      -35.964  75.267  25.398  0.00  0.00    +0.157 HD
BRANCH   9  11
ATOM     11  C   LIG    1      -37.998  74.886  25.164  0.00  0.00    +0.061 A 
ATOM     12  C   LIG    1      -38.282  73.507  25.050  0.00  0.00    +0.088 A 
ATOM     13  C   LIG    1      -39.480  73.100  24.404  0.00  0.00    +0.030 A 
ATOM     14  C   LIG    1      -40.400  74.021  23.890  0.00  0.00    +0.014 A 
ATOM     15  C   LIG    1      -40.149  75.376  24.001  0.00  0.00    +0.057 A 
ATOM     16  C   LIG    1      -38.968  75.760  24.629  0.00  0.00    +0.037 A 
BRANCH  12  17
ATOM     17  N   LIG    1      -37.427  72.486  25.560  0.00  0.00    -0.218 N 
ATOM     18  N   LIG    1      -36.887  72.521  26.806  0.00  0.00    -0.061 NA
ATOM     19  N   LIG    1      -36.177  71.412  26.993  0.00  0.00    -0.138 NA
ATOM     20  C   LIG    1      -36.236  70.672  25.854  0.00  0.00    +0.156 A 
ATOM     21  C   LIG    1      -37.004  71.331  24.928  0.00  0.00    +0.136 A 
ENDBRANCH  12  17
BRANCH  15  22
ATOM     22  C   LIG    1      -41.075  76.442  23.474  0.00  0.00    +0.417 C 
ATOM     23  F   LIG    1      -42.033  75.939  22.650  0.00  0.00    -0.166 F 
ATOM     24  F   LIG    1      -40.413  77.390  22.758  0.00  0.00    -0.166 F 
ATOM     25  F   LIG    1      -41.751  77.122  24.446  0.00  0.00    -0.166 F 
ENDBRANCH  15  22
ENDBRANCH   9  11
ENDBRANCH   8   9
BRANCH   8  26
ATOM     26  O   LIG    1      -37.129  75.526  28.042  0.00  0.00    -0.481 OA
ATOM     27  H   LIG    1      -37.542  74.680  27.788  0.00  0.00    +0.295 HD
ENDBRANCH   8  26
ENDBRANCH   4   7
BRANCH   1  28
ATOM     28  O   LIG    1      -36.236  81.188  31.011  0.00  0.00    -0.438 OA
BRANCH  28  32
ATOM     29  C   LIG    1      -33.713  84.535  30.601  0.00  0.00    -0.014 A 
ATOM     30  C   LIG    1      -34.189  84.083  31.850  0.00  0.00    +0.012 A 
ATOM     31  C   LIG    1      -35.001  82.947  31.962  0.00  0.00    +0.047 A 
ATOM     32  C   LIG    1      -35.391  82.255  30.820  0.00  0.00    +0.130 A 
ATOM     33  C   LIG    1      -34.971  82.710  29.573  0.00  0.00    +0.047 A 
ATOM     34  C   LIG    1      -34.102  83.795  29.475  0.00  0.00    +0.012 A 
BRANCH  29  36
ATOM     35  C   LIG    1      -31.504  85.798  30.948  0.00  0.00    +0.124 A 
ATOM     36  C   LIG    1      -32.838  85.733  30.479  0.00  0.00    +0.023 A 
ATOM     37  C   LIG    1      -33.328  86.900  29.860  0.00  0.00    +0.033 A 
ATOM     38  C   LIG    1      -32.523  88.024  29.720  0.00  0.00    +0.060 A 
ATOM     39 CL   LIG    1      -33.107  89.427  28.926  0.00  0.00    -0.082 Cl
ATOM     40  C   LIG    1      -31.241  87.977  30.228  0.00  0.00    +0.133 A 
ATOM     41  N   LIG    1      -30.722  86.892  30.843  0.00  0.00    -0.239 NA
BRANCH  35  42
ATOM     42  N   LIG    1      -30.862  84.735  31.579  0.00  0.00    -0.343 N 
ATOM     43  H   LIG    1      -30.107  85.059  32.175  0.00  0.00    +0.144 HD
ATOM     44  H   LIG    1      -31.571  84.224  32.100  0.00  0.00    +0.144 HD
ENDBRANCH  35  42
ENDBRANCH  29  36
ENDBRANCH  28  32
ENDBRANCH   1  28
TORSDOF 10
ENDMDL
MODEL 7
REMARK VINA RESULT:      -6.6      2.422      2.929
REMARK  Name = pdb/CHEMBL3950761.pdb
REMARK                            x       y       z     vdW  Elec       q    Type
REMARK                         _______ _______ _______ _____ _____    ______ ____
ROOT
ATOM      1  C   LIG    1      -36.494  67.108  21.633  0.00  0.00    +0.221 A 
ATOM      2  N   LIG    1      -36.363  67.140  22.977  0.00  0.00    -0.219 NA
ATOM      3  C   LIG    1      -36.970  68.159  23.616  0.00  0.00    +0.142 A 
ATOM      4  C   LIG    1      -37.580  69.222  22.981  0.00  0.00    +0.087 A 
ATOM      5  C   LIG    1      -37.679  69.166  21.586  0.00  0.00    +0.034 A 
ATOM      6  C   LIG    1      -37.138  68.086  20.895  0.00  0.00    +0.070 A 
ENDROOT
BRANCH   4   7
ATOM      7  N   LIG    1      -38.223  70.254  23.648  0.00  0.00    -0.198 NA
ATOM      8  C   LIG    1      -37.737  71.231  24.312  0.00  0.00    +0.285 C 
BRANCH   8   9
ATOM      9  N   LIG    1      -38.441  72.143  25.067  0.00  0.00    -0.267 N 
ATOM     10  H   LIG    1      -38.441  71.988  26.072  0.00  0.00    +0.157 HD
BRANCH   9  11
ATOM     11  C   LIG    1      -39.241  73.199  24.578  0.00  0.00    +0.061 A 
ATOM     12  C   LIG    1      -40.553  73.056  24.076  0.00  0.00    +0.088 A 
ATOM     13  C   LIG    1      -41.264  74.214  23.663  0.00  0.00    +0.030 A 
ATOM     14  C   LIG    1      -40.715  75.498  23.752  0.00  0.00    +0.014 A 
ATOM     15  C   LIG    1      -39.437  75.664  24.251  0.00  0.00    +0.057 A 
ATOM     16  C   LIG    1      -38.748  74.520  24.644  0.00  0.00    +0.037 A 
BRANCH  12  17
ATOM     17  N   LIG    1      -41.217  71.799  23.966  0.00  0.00    -0.218 N 
ATOM     18  N   LIG    1      -41.443  70.981  25.027  0.00  0.00    -0.061 NA
ATOM     19  N   LIG    1      -42.116  69.914  24.606  0.00  0.00    -0.138 NA
ATOM     20  C   LIG    1      -42.299  70.029  23.264  0.00  0.00    +0.156 A 
ATOM     21  C   LIG    1      -41.731  71.199  22.831  0.00  0.00    +0.136 A 
ENDBRANCH  12  17
BRANCH  15  22
ATOM     22  C   LIG    1      -38.758  77.004  24.379  0.00  0.00    +0.417 C 
ATOM     23  F   LIG    1      -39.332  77.955  23.596  0.00  0.00    -0.166 F 
ATOM     24  F   LIG    1      -37.447  76.952  24.022  0.00  0.00    -0.166 F 
ATOM     25  F   LIG    1      -38.773  77.516  25.645  0.00  0.00    -0.166 F 
ENDBRANCH  15  22
ENDBRANCH   9  11
ENDBRANCH   8   9
BRANCH   8  26
ATOM     26  O   LIG    1      -36.424  71.524  24.329  0.00  0.00    -0.481 OA
ATOM     27  H   LIG    1      -36.313  72.478  24.497  0.00  0.00    +0.295 HD
ENDBRANCH   8  26
ENDBRANCH   4   7
BRANCH   1  28
ATOM     28  O   LIG    1      -35.932  66.058  20.924  0.00  0.00    -0.438 OA
BRANCH  28  32
ATOM     29  C   LIG    1      -32.541  66.976  18.599  0.00  0.00    -0.014 A 
ATOM     30  C   LIG    1      -32.484  66.784  19.996  0.00  0.00    +0.012 A 
ATOM     31  C   LIG    1      -33.621  66.447  20.742  0.00  0.00    +0.047 A 
ATOM     32  C   LIG    1      -34.856  66.332  20.113  0.00  0.00    +0.130 A 
ATOM     33  C   LIG    1      -34.946  66.563  18.742  0.00  0.00    +0.047 A 
ATOM     34  C   LIG    1      -33.798  66.823  17.995  0.00  0.00    +0.012 A 
BRANCH  29  36
ATOM     35  C   LIG    1      -30.426  66.368  17.277  0.00  0.00    +0.124 A 
ATOM     36  C   LIG    1      -31.333  67.320  17.802  0.00  0.00    +0.023 A 
ATOM     37  C   LIG    1      -31.035  68.668  17.524  0.00  0.00    +0.033 A 
ATOM     38  C   LIG    1      -29.921  69.011  16.767  0.00  0.00    +0.060 A 
ATOM     39 CL   LIG    1      -29.587  70.651  16.392  0.00  0.00    -0.082 Cl
ATOM     40  C   LIG    1      -29.100  67.998  16.318  0.00  0.00    +0.133 A 
ATOM     41  N   LIG    1      -29.326  66.689  16.565  0.00  0.00    -0.239 NA
BRANCH  35  42
ATOM     42  N   LIG    1      -30.571  64.994  17.454  0.00  0.00    -0.343 N 
ATOM     43  H   LIG    1      -31.539  64.742  17.624  0.00  0.00    +0.144 HD
ATOM     44  H   LIG    1      -30.198  64.545  16.621  0.00  0.00    +0.144 HD
ENDBRANCH  35  42
ENDBRANCH  29  36
ENDBRANCH  28  32
ENDBRANCH   1  28
TORSDOF 10
ENDMDL
MODEL 8
REMARK VINA RESULT:      -6.5      9.583     14.289
REMARK  Name = pdb/CHEMBL3950761.pdb
REMARK                            x       y       z     vdW  Elec       q    Type
REMARK                         _______ _______ _______ _____ _____    ______ ____
ROOT
ATOM      1  C   LIG    1      -38.713  80.749  26.701  0.00  0.00    +0.221 A 
ATOM      2  N   LIG    1      -37.793  80.182  27.510  0.00  0.00    -0.219 NA
ATOM      3  C   LIG    1      -37.596  78.857  27.359  0.00  0.00    +0.142 A 
ATOM      4  C   LIG    1      -38.360  78.045  26.546  0.00  0.00    +0.087 A 
ATOM      5  C   LIG    1      -39.319  78.664  25.738  0.00  0.00    +0.034 A 
ATOM      6  C   LIG    1      -39.495  80.044  25.803  0.00  0.00    +0.070 A 
ENDROOT
BRANCH   4   7
ATOM      7  N   LIG    1      -38.133  76.687  26.380  0.00  0.00    -0.198 NA
ATOM      8  C   LIG    1      -37.638  76.053  25.388  0.00  0.00    +0.285 C 
BRANCH   8   9
ATOM      9  N   LIG    1      -37.571  74.685  25.236  0.00  0.00    -0.267 N 
ATOM     10  H   LIG    1      -36.676  74.253  25.451  0.00  0.00    +0.157 HD
BRANCH   9  11
ATOM     11  C   LIG    1      -38.583  73.847  24.718  0.00  0.00    +0.061 A 
ATOM     12  C   LIG    1      -38.531  72.436  24.691  0.00  0.00    +0.088 A 
ATOM     13  C   LIG    1      -39.645  71.714  24.186  0.00  0.00    +0.030 A 
ATOM     14  C   LIG    1      -40.803  72.353  23.730  0.00  0.00    +0.014 A 
ATOM     15  C   LIG    1      -40.882  73.732  23.759  0.00  0.00    +0.057 A 
ATOM     16  C   LIG    1      -39.780  74.427  24.247  0.00  0.00    +0.037 A 
BRANCH  12  17
ATOM     17  N   LIG    1      -37.411  71.684  25.154  0.00  0.00    -0.218 N 
ATOM     18  N   LIG    1      -36.504  71.110  24.323  0.00  0.00    -0.061 NA
ATOM     19  N   LIG    1      -35.565  70.522  25.058  0.00  0.00    -0.138 NA
ATOM     20  C   LIG    1      -35.882  70.693  26.369  0.00  0.00    +0.156 A 
ATOM     21  C   LIG    1      -37.048  71.408  26.460  0.00  0.00    +0.136 A 
ENDBRANCH  12  17
BRANCH  15  22
ATOM     22  C   LIG    1      -42.083  74.510  23.283  0.00  0.00    +0.417 C 
ATOM     23  F   LIG    1      -41.756  75.755  22.846  0.00  0.00    -0.166 F 
ATOM     24  F   LIG    1      -43.008  74.678  24.265  0.00  0.00    -0.166 F 
ATOM     25  F   LIG    1      -42.750  73.923  22.246  0.00  0.00    -0.166 F 
ENDBRANCH  15  22
ENDBRANCH   9  11
ENDBRANCH   8   9
BRANCH   8  26
ATOM     26  O   LIG    1      -37.064  76.668  24.337  0.00  0.00    -0.481 OA
ATOM     27  H   LIG    1      -36.327  77.221  24.657  0.00  0.00    +0.295 HD
ENDBRANCH   8  26
ENDBRANCH   4   7
BRANCH   1  28
ATOM     28  O   LIG    1      -38.928  82.116  26.776  0.00  0.00    -0.438 OA
BRANCH  28  32
ATOM     29  C   LIG    1      -35.814  84.635  28.084  0.00  0.00    -0.014 A 
ATOM     30  C   LIG    1      -36.859  84.205  28.930  0.00  0.00    +0.012 A 
ATOM     31  C   LIG    1      -37.865  83.341  28.478  0.00  0.00    +0.047 A 
ATOM     32  C   LIG    1      -37.874  82.914  27.155  0.00  0.00    +0.130 A 
ATOM     33  C   LIG    1      -36.879  83.362  26.289  0.00  0.00    +0.047 A 
ATOM     34  C   LIG    1      -35.840  84.160  26.764  0.00  0.00    +0.012 A 
BRANCH  29  36
ATOM     35  C   LIG    1      -34.666  86.923  28.270  0.00  0.00    +0.124 A 
ATOM     36  C   LIG    1      -34.736  85.541  28.564  0.00  0.00    +0.023 A 
ATOM     37  C   LIG    1      -33.699  85.032  29.370  0.00  0.00    +0.033 A 
ATOM     38  C   LIG    1      -32.691  85.864  29.844  0.00  0.00    +0.060 A 
ATOM     39 CL   LIG    1      -31.455  85.250  30.862  0.00  0.00    -0.082 Cl
ATOM     40  C   LIG    1      -32.718  87.194  29.480  0.00  0.00    +0.133 A 
ATOM     41  N   LIG    1      -33.678  87.736  28.700  0.00  0.00    -0.239 NA
BRANCH  35  42
ATOM     42  N   LIG    1      -35.610  87.589  27.492  0.00  0.00    -0.343 N 
ATOM     43  H   LIG    1      -35.809  87.083  26.635  0.00  0.00    +0.144 HD
ATOM     44  H   LIG    1      -36.439  87.712  28.068  0.00  0.00    +0.144 HD
ENDBRANCH  35  42
ENDBRANCH  29  36
ENDBRANCH  28  32
ENDBRANCH   1  28
TORSDOF 10
ENDMDL
MODEL 9
REMARK VINA RESULT:      -6.5      8.120     11.293
REMARK  Name = pdb/CHEMBL3950761.pdb
REMARK                            x       y       z     vdW  Elec       q    Type
REMARK                         _______ _______ _______ _____ _____    ______ ____
ROOT
ATOM      1  C   LIG    1      -40.253  76.253  24.917  0.00  0.00    +0.221 A 
ATOM      2  N   LIG    1      -39.685  77.131  25.772  0.00  0.00    -0.219 NA
ATOM      3  C   LIG    1      -39.397  78.351  25.278  0.00  0.00    +0.142 A 
ATOM      4  C   LIG    1      -39.515  78.699  23.948  0.00  0.00    +0.087 A 
ATOM      5  C   LIG    1      -40.088  77.758  23.086  0.00  0.00    +0.034 A 
ATOM      6  C   LIG    1      -40.477  76.514  23.576  0.00  0.00    +0.070 A 
ENDROOT
BRANCH   4   7
ATOM      7  N   LIG    1      -39.240  79.965  23.454  0.00  0.00    -0.198 NA
ATOM      8  C   LIG    1      -39.994  80.991  23.356  0.00  0.00    +0.285 C 
BRANCH   8   9
ATOM      9  N   LIG    1      -39.691  82.178  22.724  0.00  0.00    -0.267 N 
ATOM     10  H   LIG    1      -39.967  82.248  21.748  0.00  0.00    +0.157 HD
BRANCH   9  11
ATOM     11  C   LIG    1      -38.951  83.252  23.265  0.00  0.00    +0.061 A 
ATOM     12  C   LIG    1      -38.945  84.569  22.754  0.00  0.00    +0.088 A 
ATOM     13  C   LIG    1      -38.193  85.567  23.430  0.00  0.00    +0.030 A 
ATOM     14  C   LIG    1      -37.470  85.294  24.597  0.00  0.00    +0.014 A 
ATOM     15  C   LIG    1      -37.472  84.016  25.121  0.00  0.00    +0.057 A 
ATOM     16  C   LIG    1      -38.206  83.046  24.445  0.00  0.00    +0.037 A 
BRANCH  12  17
ATOM     17  N   LIG    1      -39.665  84.960  21.588  0.00  0.00    -0.218 N 
ATOM     18  N   LIG    1      -39.643  84.255  20.427  0.00  0.00    -0.061 NA
ATOM     19  N   LIG    1      -40.445  84.853  19.550  0.00  0.00    -0.138 NA
ATOM     20  C   LIG    1      -40.964  85.964  20.138  0.00  0.00    +0.156 A 
ATOM     21  C   LIG    1      -40.480  86.065  21.417  0.00  0.00    +0.136 A 
ENDBRANCH  12  17
BRANCH  15  22
ATOM     22  C   LIG    1      -36.720  83.624  26.368  0.00  0.00    +0.417 C 
ATOM     23  F   LIG    1      -37.514  83.005  27.282  0.00  0.00    -0.166 F 
ATOM     24  F   LIG    1      -36.175  84.698  26.999  0.00  0.00    -0.166 F 
ATOM     25  F   LIG    1      -35.683  82.764  26.144  0.00  0.00    -0.166 F 
ENDBRANCH  15  22
ENDBRANCH   9  11
ENDBRANCH   8   9
BRANCH   8  26
ATOM     26  O   LIG    1      -41.218  81.056  23.912  0.00  0.00    -0.481 OA
ATOM     27  H   LIG    1      -41.865  81.307  23.227  0.00  0.00    +0.295 HD
ENDBRANCH   8  26
ENDBRANCH   4   7
BRANCH   1  28
ATOM     28  O   LIG    1      -40.615  74.998  25.378  0.00  0.00    -0.438 OA
BRANCH  28  32
ATOM     29  C   LIG    1      -38.339  71.611  24.331  0.00  0.00    -0.014 A 
ATOM     30  C   LIG    1      -39.726  71.708  24.088  0.00  0.00    +0.012 A 
ATOM     31  C   LIG    1      -40.454  72.859  24.417  0.00  0.00    +0.047 A 
ATOM     32  C   LIG    1      -39.818  73.931  25.034  0.00  0.00    +0.130 A 
ATOM     33  C   LIG    1      -38.459  73.840  25.325  0.00  0.00    +0.047 A 
ATOM     34  C   LIG    1      -37.727  72.724  24.927  0.00  0.00    +0.012 A 
BRANCH  29  36
ATOM     35  C   LIG    1      -36.580  69.801  24.800  0.00  0.00    +0.124 A 
ATOM     36  C   LIG    1      -37.560  70.396  23.970  0.00  0.00    +0.023 A 
ATOM     37  C   LIG    1      -37.783  69.761  22.732  0.00  0.00    +0.033 A 
ATOM     38  C   LIG    1      -37.080  68.615  22.382  0.00  0.00    +0.060 A 
ATOM     39 CL   LIG    1      -37.386  67.819  20.894  0.00  0.00    -0.082 Cl
ATOM     40  C   LIG    1      -36.137  68.132  23.265  0.00  0.00    +0.133 A 
ATOM     41  N   LIG    1      -35.870  68.704  24.459  0.00  0.00    -0.239 NA
BRANCH  35  42
ATOM     42  N   LIG    1      -36.238  70.295  26.056  0.00  0.00    -0.343 N 
ATOM     43  H   LIG    1      -36.555  71.251  26.177  0.00  0.00    +0.144 HD
ATOM     44  H   LIG    1      -36.643  69.666  26.745  0.00  0.00    +0.144 HD
ENDBRANCH  35  42
ENDBRANCH  29  36
ENDBRANCH  28  32
ENDBRANCH   1  28
TORSDOF 10
ENDMDL
