MODEL 1
REMARK VINA RESULT:      -5.9      0.000      0.000
REMARK  Name = pdb/CHEMBL3676053.pdb
REMARK                            x       y       z     vdW  Elec       q    Type
REMARK                         _______ _______ _______ _____ _____    ______ ____
ROOT
ATOM      1  C   LIG    1      -23.845  79.721  35.212  0.00  0.00    +0.126 A 
ATOM      2  N   LIG    1      -24.052  78.967  34.148  0.00  0.00    -0.212 NA
ATOM      3  C   LIG    1      -25.221  78.248  34.077  0.00  0.00    +0.170 A 
ATOM      4  C   LIG    1      -25.726  77.348  33.152  0.00  0.00    +0.100 A 
ATOM      5  C   LIG    1      -26.972  76.954  33.688  0.00  0.00    +0.150 A 
ATOM      6  N   LIG    1      -27.258  77.537  34.848  0.00  0.00    -0.173 NA
ATOM      7  N   LIG    1      -26.185  78.321  35.091  0.00  0.00    -0.221 N 
ATOM      8  C   LIG    1      -25.991  79.125  36.198  0.00  0.00    +0.118 A 
ATOM      9  C   LIG    1      -24.872  79.844  36.316  0.00  0.00    +0.063 A 
ENDROOT
BRANCH   1  11
ATOM     10  C   LIG    1      -21.430  79.817  35.868  0.00  0.00    +0.107 C 
ATOM     11  N   LIG    1      -22.656  80.435  35.331  0.00  0.00    -0.308 N 
ATOM     12  C   LIG    1      -22.621  81.884  35.574  0.00  0.00    +0.107 C 
ATOM     13  C   LIG    1      -21.480  82.087  36.562  0.00  0.00    +0.021 C 
ATOM     14  C   LIG    1      -20.502  81.006  36.155  0.00  0.00    +0.029 C 
BRANCH  10  17
ATOM     15  C   LIG    1      -20.420  77.195  36.854  0.00  0.00    +0.066 C 
ATOM     16  C   LIG    1      -20.315  77.582  35.406  0.00  0.00    +0.043 A 
ATOM     17  C   LIG    1      -20.769  78.826  34.935  0.00  0.00    -0.003 A 
ATOM     18  C   LIG    1      -20.538  79.124  33.581  0.00  0.00    +0.047 A 
ATOM     19  C   LIG    1      -19.925  78.189  32.761  0.00  0.00    +0.142 A 
ATOM     20  F   LIG    1      -19.697  78.462  31.471  0.00  0.00    -0.204 F 
ATOM     21  C   LIG    1      -19.544  76.980  33.302  0.00  0.00    +0.149 A 
ATOM     22  N   LIG    1      -19.712  76.662  34.606  0.00  0.00    -0.257 NA
ENDBRANCH  10  17
ENDBRANCH   1  11
BRANCH   4  23
ATOM     23  C   LIG    1      -25.191  76.844  31.909  0.00  0.00    +0.249 C 
ATOM     24  N   LIG    1      -23.825  76.684  31.809  0.00  0.00    -0.308 N 
ATOM     25  H   LIG    1      -23.272  76.926  32.626  0.00  0.00    +0.149 HD
ATOM     26  O   LIG    1      -25.945  76.584  30.968  0.00  0.00    -0.270 OA
BRANCH  24  27
ATOM     27  C   LIG    1      -23.232  76.230  30.535  0.00  0.00    +0.073 C 
ATOM     28  C   LIG    1      -21.772  75.735  30.585  0.00  0.00    +0.022 C 
ATOM     29  C   LIG    1      -21.541  76.472  29.250  0.00  0.00    +0.004 C 
ATOM     30  C   LIG    1      -22.715  77.385  29.635  0.00  0.00    +0.022 C 
ENDBRANCH  24  27
ENDBRANCH   4  23
TORSDOF 4
ENDMDL
MODEL 2
REMARK VINA RESULT:      -5.6     18.463     21.945
REMARK  Name = pdb/CHEMBL3676053.pdb
REMARK                            x       y       z     vdW  Elec       q    Type
REMARK                         _______ _______ _______ _____ _____    ______ ____
ROOT
ATOM      1  C   LIG    1      -20.136  81.609  14.074  0.00  0.00    +0.126 A 
ATOM      2  N   LIG    1      -19.985  82.919  14.016  0.00  0.00    -0.212 NA
ATOM      3  C   LIG    1      -18.864  83.418  13.396  0.00  0.00    +0.170 A 
ATOM      4  C   LIG    1      -18.382  84.702  13.201  0.00  0.00    +0.100 A 
ATOM      5  C   LIG    1      -17.164  84.520  12.508  0.00  0.00    +0.150 A 
ATOM      6  N   LIG    1      -16.876  83.243  12.271  0.00  0.00    -0.173 NA
ATOM      7  N   LIG    1      -17.909  82.570  12.822  0.00  0.00    -0.221 N 
ATOM      8  C   LIG    1      -18.068  81.197  12.856  0.00  0.00    +0.118 A 
ATOM      9  C   LIG    1      -19.139  80.660  13.445  0.00  0.00    +0.063 A 
ENDROOT
BRANCH   1  11
ATOM     10  C   LIG    1      -22.565  81.723  14.677  0.00  0.00    +0.107 C 
ATOM     11  N   LIG    1      -21.244  81.070  14.724  0.00  0.00    -0.308 N 
ATOM     12  C   LIG    1      -21.132  80.279  15.957  0.00  0.00    +0.107 C 
ATOM     13  C   LIG    1      -22.308  80.726  16.816  0.00  0.00    +0.021 C 
ATOM     14  C   LIG    1      -23.371  81.025  15.781  0.00  0.00    +0.029 C 
BRANCH  10  17
ATOM     15  C   LIG    1      -23.061  84.126  12.989  0.00  0.00    +0.066 C 
ATOM     16  C   LIG    1      -23.479  82.752  12.542  0.00  0.00    +0.043 A 
ATOM     17  C   LIG    1      -23.267  81.616  13.341  0.00  0.00    -0.003 A 
ATOM     18  C   LIG    1      -23.779  80.395  12.869  0.00  0.00    +0.047 A 
ATOM     19  C   LIG    1      -24.420  80.341  11.642  0.00  0.00    +0.142 A 
ATOM     20  F   LIG    1      -24.915  79.185  11.183  0.00  0.00    -0.204 F 
ATOM     21  C   LIG    1      -24.551  81.502  10.909  0.00  0.00    +0.149 A 
ATOM     22  N   LIG    1      -24.108  82.705  11.338  0.00  0.00    -0.257 NA
ENDBRANCH  10  17
ENDBRANCH   1  11
BRANCH   4  23
ATOM     23  C   LIG    1      -18.902  85.994  13.582  0.00  0.00    +0.249 C 
ATOM     24  N   LIG    1      -20.113  86.036  14.240  0.00  0.00    -0.308 N 
ATOM     25  H   LIG    1      -20.568  85.147  14.426  0.00  0.00    +0.149 HD
ATOM     26  O   LIG    1      -18.278  87.022  13.305  0.00  0.00    -0.270 OA
BRANCH  24  27
ATOM     27  C   LIG    1      -20.711  87.340  14.592  0.00  0.00    +0.073 C 
ATOM     28  C   LIG    1      -21.869  87.322  15.610  0.00  0.00    +0.022 C 
ATOM     29  C   LIG    1      -22.567  88.389  14.743  0.00  0.00    +0.004 C 
ATOM     30  C   LIG    1      -21.747  87.857  13.558  0.00  0.00    +0.022 C 
ENDBRANCH  24  27
ENDBRANCH   4  23
TORSDOF 4
ENDMDL
MODEL 3
REMARK VINA RESULT:      -5.6     20.908     22.986
REMARK  Name = pdb/CHEMBL3676053.pdb
REMARK                            x       y       z     vdW  Elec       q    Type
REMARK                         _______ _______ _______ _____ _____    ______ ____
ROOT
ATOM      1  C   LIG    1      -34.041  92.505  19.976  0.00  0.00    +0.126 A 
ATOM      2  N   LIG    1      -33.428  92.730  21.123  0.00  0.00    -0.212 NA
ATOM      3  C   LIG    1      -32.384  93.624  21.140  0.00  0.00    +0.170 A 
ATOM      4  C   LIG    1      -31.517  94.050  22.134  0.00  0.00    +0.100 A 
ATOM      5  C   LIG    1      -30.659  94.965  21.484  0.00  0.00    +0.150 A 
ATOM      6  N   LIG    1      -30.936  95.125  20.193  0.00  0.00    -0.173 NA
ATOM      7  N   LIG    1      -31.983  94.299  19.980  0.00  0.00    -0.221 N 
ATOM      8  C   LIG    1      -32.632  94.089  18.778  0.00  0.00    +0.118 A 
ATOM      9  C   LIG    1      -33.652  93.232  18.707  0.00  0.00    +0.063 A 
ENDROOT
BRANCH   1  11
ATOM     10  C   LIG    1      -35.779  91.276  18.656  0.00  0.00    +0.107 C 
ATOM     11  N   LIG    1      -35.080  91.580  19.918  0.00  0.00    -0.308 N 
ATOM     12  C   LIG    1      -35.981  91.328  21.051  0.00  0.00    +0.107 C 
ATOM     13  C   LIG    1      -37.360  91.166  20.424  0.00  0.00    +0.021 C 
ATOM     14  C   LIG    1      -37.038  90.515  19.095  0.00  0.00    +0.029 C 
BRANCH  10  17
ATOM     15  C   LIG    1      -35.936  91.778  15.725  0.00  0.00    +0.066 C 
ATOM     16  C   LIG    1      -35.033  90.719  16.293  0.00  0.00    +0.043 A 
ATOM     17  C   LIG    1      -34.968  90.461  17.673  0.00  0.00    -0.003 A 
ATOM     18  C   LIG    1      -34.161  89.388  18.088  0.00  0.00    +0.047 A 
ATOM     19  C   LIG    1      -33.438  88.664  17.154  0.00  0.00    +0.142 A 
ATOM     20  F   LIG    1      -32.668  87.637  17.536  0.00  0.00    -0.204 F 
ATOM     21  C   LIG    1      -33.535  89.011  15.823  0.00  0.00    +0.149 A 
ATOM     22  N   LIG    1      -34.326  90.011  15.372  0.00  0.00    -0.257 NA
ENDBRANCH  10  17
ENDBRANCH   1  11
BRANCH   4  23
ATOM     23  C   LIG    1      -31.409  93.703  23.531  0.00  0.00    +0.249 C 
ATOM     24  N   LIG    1      -32.380  92.887  24.072  0.00  0.00    -0.308 N 
ATOM     25  H   LIG    1      -33.117  92.571  23.449  0.00  0.00    +0.149 HD
ATOM     26  O   LIG    1      -30.478  94.143  24.211  0.00  0.00    -0.270 OA
BRANCH  24  27
ATOM     27  C   LIG    1      -32.341  92.558  25.511  0.00  0.00    +0.073 C 
ATOM     28  C   LIG    1      -33.294  91.446  25.997  0.00  0.00    +0.022 C 
ATOM     29  C   LIG    1      -33.565  92.309  27.246  0.00  0.00    +0.004 C 
ATOM     30  C   LIG    1      -33.164  93.528  26.401  0.00  0.00    +0.022 C 
ENDBRANCH  24  27
ENDBRANCH   4  23
TORSDOF 4
ENDMDL
MODEL 4
REMARK VINA RESULT:      -5.5      6.364     10.448
REMARK  Name = pdb/CHEMBL3676053.pdb
REMARK                            x       y       z     vdW  Elec       q    Type
REMARK                         _______ _______ _______ _____ _____    ______ ____
ROOT
ATOM      1  C   LIG    1      -31.288  75.443  31.027  0.00  0.00    +0.126 A 
ATOM      2  N   LIG    1      -29.993  75.702  31.044  0.00  0.00    -0.212 NA
ATOM      3  C   LIG    1      -29.458  76.270  32.176  0.00  0.00    +0.170 A 
ATOM      4  C   LIG    1      -28.183  76.702  32.508  0.00  0.00    +0.100 A 
ATOM      5  C   LIG    1      -28.314  77.208  33.820  0.00  0.00    +0.150 A 
ATOM      6  N   LIG    1      -29.549  77.116  34.303  0.00  0.00    -0.173 NA
ATOM      7  N   LIG    1      -30.251  76.552  33.296  0.00  0.00    -0.221 N 
ATOM      8  C   LIG    1      -31.602  76.263  33.299  0.00  0.00    +0.118 A 
ATOM      9  C   LIG    1      -32.172  75.711  32.225  0.00  0.00    +0.063 A 
ENDROOT
BRANCH   1  11
ATOM     10  C   LIG    1      -33.198  75.324  29.411  0.00  0.00    +0.107 C 
ATOM     11  N   LIG    1      -31.867  74.900  29.884  0.00  0.00    -0.308 N 
ATOM     12  C   LIG    1      -31.605  73.524  29.439  0.00  0.00    +0.107 C 
ATOM     13  C   LIG    1      -32.952  73.008  28.950  0.00  0.00    +0.021 C 
ATOM     14  C   LIG    1      -33.591  74.257  28.381  0.00  0.00    +0.029 C 
BRANCH  10  17
ATOM     15  C   LIG    1      -34.782  77.525  30.643  0.00  0.00    +0.066 C 
ATOM     16  C   LIG    1      -33.965  77.745  29.400  0.00  0.00    +0.043 A 
ATOM     17  C   LIG    1      -33.232  76.707  28.800  0.00  0.00    -0.003 A 
ATOM     18  C   LIG    1      -32.579  76.999  27.590  0.00  0.00    +0.047 A 
ATOM     19  C   LIG    1      -32.639  78.279  27.062  0.00  0.00    +0.142 A 
ATOM     20  F   LIG    1      -32.024  78.568  25.908  0.00  0.00    -0.204 F 
ATOM     21  C   LIG    1      -33.354  79.244  27.738  0.00  0.00    +0.149 A 
ATOM     22  N   LIG    1      -34.029  79.002  28.885  0.00  0.00    -0.257 NA
ENDBRANCH  10  17
ENDBRANCH   1  11
BRANCH   4  23
ATOM     23  C   LIG    1      -26.944  76.701  31.768  0.00  0.00    +0.249 C 
ATOM     24  N   LIG    1      -26.155  75.572  31.826  0.00  0.00    -0.308 N 
ATOM     25  H   LIG    1      -26.500  74.798  32.387  0.00  0.00    +0.149 HD
ATOM     26  O   LIG    1      -26.606  77.695  31.119  0.00  0.00    -0.270 OA
BRANCH  24  27
ATOM     27  C   LIG    1      -24.850  75.552  31.135  0.00  0.00    +0.073 C 
ATOM     28  C   LIG    1      -24.160  74.181  30.991  0.00  0.00    +0.022 C 
ATOM     29  C   LIG    1      -22.827  74.888  31.313  0.00  0.00    +0.004 C 
ATOM     30  C   LIG    1      -23.654  75.960  32.037  0.00  0.00    +0.022 C 
ENDBRANCH  24  27
ENDBRANCH   4  23
TORSDOF 4
ENDMDL
MODEL 5
REMARK VINA RESULT:      -5.5      4.306      6.708
REMARK  Name = pdb/CHEMBL3676053.pdb
REMARK                            x       y       z     vdW  Elec       q    Type
REMARK                         _______ _______ _______ _____ _____    ______ ____
ROOT
ATOM      1  C   LIG    1      -25.678  76.646  31.771  0.00  0.00    +0.126 A 
ATOM      2  N   LIG    1      -26.898  76.382  31.341  0.00  0.00    -0.212 NA
ATOM      3  C   LIG    1      -27.953  76.621  32.189  0.00  0.00    +0.170 A 
ATOM      4  C   LIG    1      -29.320  76.422  32.080  0.00  0.00    +0.100 A 
ATOM      5  C   LIG    1      -29.839  76.859  33.319  0.00  0.00    +0.150 A 
ATOM      6  N   LIG    1      -28.907  77.302  34.157  0.00  0.00    -0.173 NA
ATOM      7  N   LIG    1      -27.754  77.148  33.471  0.00  0.00    -0.221 N 
ATOM      8  C   LIG    1      -26.483  77.450  33.923  0.00  0.00    +0.118 A 
ATOM      9  C   LIG    1      -25.424  77.238  33.139  0.00  0.00    +0.063 A 
ENDROOT
BRANCH   1  11
ATOM     10  C   LIG    1      -23.405  75.647  31.438  0.00  0.00    +0.107 C 
ATOM     11  N   LIG    1      -24.585  76.383  30.949  0.00  0.00    -0.308 N 
ATOM     12  C   LIG    1      -24.186  77.274  29.851  0.00  0.00    +0.107 C 
ATOM     13  C   LIG    1      -22.664  77.294  29.898  0.00  0.00    +0.021 C 
ATOM     14  C   LIG    1      -22.335  75.893  30.366  0.00  0.00    +0.029 C 
BRANCH  10  17
ATOM     15  C   LIG    1      -22.723  74.319  34.015  0.00  0.00    +0.066 C 
ATOM     16  C   LIG    1      -23.329  73.552  32.873  0.00  0.00    +0.043 A 
ATOM     17  C   LIG    1      -23.635  74.166  31.646  0.00  0.00    -0.003 A 
ATOM     18  C   LIG    1      -24.112  73.338  30.615  0.00  0.00    +0.047 A 
ATOM     19  C   LIG    1      -24.303  71.985  30.846  0.00  0.00    +0.142 A 
ATOM     20  F   LIG    1      -24.754  71.186  29.871  0.00  0.00    -0.204 F 
ATOM     21  C   LIG    1      -24.009  71.476  32.093  0.00  0.00    +0.149 A 
ATOM     22  N   LIG    1      -23.514  72.225  33.104  0.00  0.00    -0.257 NA
ENDBRANCH  10  17
ENDBRANCH   1  11
BRANCH   4  23
ATOM     23  C   LIG    1      -30.134  75.889  31.013  0.00  0.00    +0.249 C 
ATOM     24  N   LIG    1      -30.707  76.778  30.130  0.00  0.00    -0.308 N 
ATOM     25  H   LIG    1      -30.517  77.765  30.280  0.00  0.00    +0.149 HD
ATOM     26  O   LIG    1      -30.314  74.672  30.916  0.00  0.00    -0.270 OA
BRANCH  24  27
ATOM     27  C   LIG    1      -31.597  76.280  29.061  0.00  0.00    +0.073 C 
ATOM     28  C   LIG    1      -32.016  77.292  27.976  0.00  0.00    +0.022 C 
ATOM     29  C   LIG    1      -33.428  76.675  28.033  0.00  0.00    +0.004 C 
ATOM     30  C   LIG    1      -33.095  76.227  29.463  0.00  0.00    +0.022 C 
ENDBRANCH  24  27
ENDBRANCH   4  23
TORSDOF 4
ENDMDL
MODEL 6
REMARK VINA RESULT:      -5.2     19.065     22.037
REMARK  Name = pdb/CHEMBL3676053.pdb
REMARK                            x       y       z     vdW  Elec       q    Type
REMARK                         _______ _______ _______ _____ _____    ______ ____
ROOT
ATOM      1  C   LIG    1      -22.863  86.164  12.155  0.00  0.00    +0.126 A 
ATOM      2  N   LIG    1      -23.259  85.011  12.661  0.00  0.00    -0.212 NA
ATOM      3  C   LIG    1      -23.957  84.148  11.850  0.00  0.00    +0.170 A 
ATOM      4  C   LIG    1      -24.543  82.911  12.065  0.00  0.00    +0.100 A 
ATOM      5  C   LIG    1      -25.123  82.576  10.820  0.00  0.00    +0.150 A 
ATOM      6  N   LIG    1      -24.934  83.499   9.882  0.00  0.00    -0.173 NA
ATOM      7  N   LIG    1      -24.231  84.464  10.513  0.00  0.00    -0.221 N 
ATOM      8  C   LIG    1      -23.801  85.658   9.965  0.00  0.00    +0.118 A 
ATOM      9  C   LIG    1      -23.119  86.532  10.710  0.00  0.00    +0.063 A 
ENDROOT
BRANCH   1  11
ATOM     10  C   LIG    1      -21.175  86.639  13.944  0.00  0.00    +0.107 C 
ATOM     11  N   LIG    1      -22.183  87.074  12.960  0.00  0.00    -0.308 N 
ATOM     12  C   LIG    1      -22.778  88.344  13.397  0.00  0.00    +0.107 C 
ATOM     13  C   LIG    1      -22.328  88.509  14.843  0.00  0.00    +0.021 C 
ATOM     14  C   LIG    1      -20.955  87.873  14.830  0.00  0.00    +0.029 C 
BRANCH  10  17
ATOM     15  C   LIG    1      -20.377  83.771  14.022  0.00  0.00    +0.066 C 
ATOM     16  C   LIG    1      -19.514  84.809  13.360  0.00  0.00    +0.043 A 
ATOM     17  C   LIG    1      -19.873  86.167  13.337  0.00  0.00    -0.003 A 
ATOM     18  C   LIG    1      -18.949  87.065  12.773  0.00  0.00    +0.047 A 
ATOM     19  C   LIG    1      -17.765  86.592  12.232  0.00  0.00    +0.142 A 
ATOM     20  F   LIG    1      -16.876  87.438  11.696  0.00  0.00    -0.204 F 
ATOM     21  C   LIG    1      -17.512  85.237  12.268  0.00  0.00    +0.149 A 
ATOM     22  N   LIG    1      -18.353  84.339  12.831  0.00  0.00    -0.257 NA
ENDBRANCH  10  17
ENDBRANCH   1  11
BRANCH   4  23
ATOM     23  C   LIG    1      -24.622  82.074  13.238  0.00  0.00    +0.249 C 
ATOM     24  N   LIG    1      -23.651  82.221  14.205  0.00  0.00    -0.308 N 
ATOM     25  H   LIG    1      -22.934  82.921  14.036  0.00  0.00    +0.149 HD
ATOM     26  O   LIG    1      -25.529  81.244  13.350  0.00  0.00    -0.270 OA
BRANCH  24  27
ATOM     27  C   LIG    1      -23.659  81.341  15.391  0.00  0.00    +0.073 C 
ATOM     28  C   LIG    1      -22.712  81.724  16.547  0.00  0.00    +0.022 C 
ATOM     29  C   LIG    1      -22.396  80.222  16.704  0.00  0.00    +0.004 C 
ATOM     30  C   LIG    1      -22.799  80.059  15.230  0.00  0.00    +0.022 C 
ENDBRANCH  24  27
ENDBRANCH   4  23
TORSDOF 4
ENDMDL
MODEL 7
REMARK VINA RESULT:      -5.2     12.691     15.919
REMARK  Name = pdb/CHEMBL3676053.pdb
REMARK                            x       y       z     vdW  Elec       q    Type
REMARK                         _______ _______ _______ _____ _____    ______ ____
ROOT
ATOM      1  C   LIG    1      -34.543  79.900  28.264  0.00  0.00    +0.126 A 
ATOM      2  N   LIG    1      -35.043  80.759  27.396  0.00  0.00    -0.212 NA
ATOM      3  C   LIG    1      -35.574  81.934  27.874  0.00  0.00    +0.170 A 
ATOM      4  C   LIG    1      -36.203  83.007  27.264  0.00  0.00    +0.100 A 
ATOM      5  C   LIG    1      -36.526  83.878  28.329  0.00  0.00    +0.150 A 
ATOM      6  N   LIG    1      -36.146  83.422  29.519  0.00  0.00    -0.173 NA
ATOM      7  N   LIG    1      -35.573  82.230  29.243  0.00  0.00    -0.221 N 
ATOM      8  C   LIG    1      -35.032  81.349  30.159  0.00  0.00    +0.118 A 
ATOM      9  C   LIG    1      -34.503  80.194  29.748  0.00  0.00    +0.063 A 
ENDROOT
BRANCH   1  11
ATOM     10  C   LIG    1      -34.550  77.395  28.300  0.00  0.00    +0.107 C 
ATOM     11  N   LIG    1      -34.029  78.686  27.815  0.00  0.00    -0.308 N 
ATOM     12  C   LIG    1      -32.629  78.524  27.398  0.00  0.00    +0.107 C 
ATOM     13  C   LIG    1      -32.215  77.163  27.943  0.00  0.00    +0.021 C 
ATOM     14  C   LIG    1      -33.500  76.370  27.849  0.00  0.00    +0.029 C 
BRANCH  10  17
ATOM     15  C   LIG    1      -36.980  77.629  30.006  0.00  0.00    +0.066 C 
ATOM     16  C   LIG    1      -37.065  77.170  28.577  0.00  0.00    +0.043 A 
ATOM     17  C   LIG    1      -35.921  77.036  27.772  0.00  0.00    -0.003 A 
ATOM     18  C   LIG    1      -36.103  76.511  26.480  0.00  0.00    +0.047 A 
ATOM     19  C   LIG    1      -37.376  76.191  26.037  0.00  0.00    +0.142 A 
ATOM     20  F   LIG    1      -37.562  75.687  24.810  0.00  0.00    -0.204 F 
ATOM     21  C   LIG    1      -38.445  76.388  26.885  0.00  0.00    +0.149 A 
ATOM     22  N   LIG    1      -38.316  76.856  28.147  0.00  0.00    -0.257 NA
ENDBRANCH  10  17
ENDBRANCH   1  11
BRANCH   4  23
ATOM     23  C   LIG    1      -36.522  83.278  25.882  0.00  0.00    +0.249 C 
ATOM     24  N   LIG    1      -37.785  82.954  25.434  0.00  0.00    -0.308 N 
ATOM     25  H   LIG    1      -38.424  82.547  26.110  0.00  0.00    +0.149 HD
ATOM     26  O   LIG    1      -35.674  83.770  25.132  0.00  0.00    -0.270 OA
BRANCH  24  27
ATOM     27  C   LIG    1      -38.132  83.156  24.013  0.00  0.00    +0.073 C 
ATOM     28  C   LIG    1      -39.036  84.361  23.682  0.00  0.00    +0.022 C 
ATOM     29  C   LIG    1      -39.772  83.454  22.675  0.00  0.00    +0.004 C 
ATOM     30  C   LIG    1      -39.298  82.259  23.516  0.00  0.00    +0.022 C 
ENDBRANCH  24  27
ENDBRANCH   4  23
TORSDOF 4
ENDMDL
MODEL 8
REMARK VINA RESULT:      -5.1     15.729     19.456
REMARK  Name = pdb/CHEMBL3676053.pdb
REMARK                            x       y       z     vdW  Elec       q    Type
REMARK                         _______ _______ _______ _____ _____    ______ ____
ROOT
ATOM      1  C   LIG    1      -38.218  72.102  24.708  0.00  0.00    +0.126 A 
ATOM      2  N   LIG    1      -37.789  73.256  25.183  0.00  0.00    -0.212 NA
ATOM      3  C   LIG    1      -38.569  74.371  24.989  0.00  0.00    +0.170 A 
ATOM      4  C   LIG    1      -38.405  75.710  25.307  0.00  0.00    +0.100 A 
ATOM      5  C   LIG    1      -39.570  76.335  24.808  0.00  0.00    +0.150 A 
ATOM      6  N   LIG    1      -40.414  75.492  24.222  0.00  0.00    -0.173 NA
ATOM      7  N   LIG    1      -39.800  74.293  24.324  0.00  0.00    -0.221 N 
ATOM      8  C   LIG    1      -40.271  73.086  23.844  0.00  0.00    +0.118 A 
ATOM      9  C   LIG    1      -39.552  71.973  24.005  0.00  0.00    +0.063 A 
ENDROOT
BRANCH   1  11
ATOM     10  C   LIG    1      -38.014  69.606  24.776  0.00  0.00    +0.107 C 
ATOM     11  N   LIG    1      -37.435  70.960  24.858  0.00  0.00    -0.308 N 
ATOM     12  C   LIG    1      -36.232  70.929  25.700  0.00  0.00    +0.107 C 
ATOM     13  C   LIG    1      -36.274  69.572  26.391  0.00  0.00    +0.021 C 
ATOM     14  C   LIG    1      -36.917  68.692  25.340  0.00  0.00    +0.029 C 
BRANCH  10  17
ATOM     15  C   LIG    1      -40.629  68.287  24.241  0.00  0.00    +0.066 C 
ATOM     16  C   LIG    1      -39.655  68.577  23.134  0.00  0.00    +0.043 A 
ATOM     17  C   LIG    1      -38.410  69.180  23.380  0.00  0.00    -0.003 A 
ATOM     18  C   LIG    1      -37.538  69.320  22.286  0.00  0.00    +0.047 A 
ATOM     19  C   LIG    1      -37.938  68.912  21.024  0.00  0.00    +0.142 A 
ATOM     20  F   LIG    1      -37.116  69.038  19.975  0.00  0.00    -0.204 F 
ATOM     21  C   LIG    1      -39.194  68.363  20.870  0.00  0.00    +0.149 A 
ATOM     22  N   LIG    1      -40.053  68.174  21.898  0.00  0.00    -0.257 NA
ENDBRANCH  10  17
ENDBRANCH   1  11
BRANCH   4  23
ATOM     23  C   LIG    1      -37.338  76.417  25.974  0.00  0.00    +0.249 C 
ATOM     24  N   LIG    1      -36.287  75.679  26.476  0.00  0.00    -0.308 N 
ATOM     25  H   LIG    1      -36.324  74.673  26.341  0.00  0.00    +0.149 HD
ATOM     26  O   LIG    1      -37.385  77.644  26.096  0.00  0.00    -0.270 OA
BRANCH  24  27
ATOM     27  C   LIG    1      -35.205  76.356  27.220  0.00  0.00    +0.073 C 
ATOM     28  C   LIG    1      -33.978  75.501  27.595  0.00  0.00    +0.022 C 
ATOM     29  C   LIG    1      -33.975  76.216  28.962  0.00  0.00    +0.004 C 
ATOM     30  C   LIG    1      -35.472  76.483  28.744  0.00  0.00    +0.022 C 
ENDBRANCH  24  27
ENDBRANCH   4  23
TORSDOF 4
ENDMDL
MODEL 9
REMARK VINA RESULT:      -5.1     12.162     15.456
REMARK  Name = pdb/CHEMBL3676053.pdb
REMARK                            x       y       z     vdW  Elec       q    Type
REMARK                         _______ _______ _______ _____ _____    ______ ____
ROOT
ATOM      1  C   LIG    1      -34.801  77.209  28.275  0.00  0.00    +0.126 A 
ATOM      2  N   LIG    1      -35.654  76.965  27.297  0.00  0.00    -0.212 NA
ATOM      3  C   LIG    1      -36.798  77.723  27.227  0.00  0.00    +0.170 A 
ATOM      4  C   LIG    1      -37.896  77.706  26.381  0.00  0.00    +0.100 A 
ATOM      5  C   LIG    1      -38.732  78.736  26.868  0.00  0.00    +0.150 A 
ATOM      6  N   LIG    1      -38.231  79.368  27.926  0.00  0.00    -0.173 NA
ATOM      7  N   LIG    1      -37.055  78.743  28.151  0.00  0.00    -0.221 N 
ATOM      8  C   LIG    1      -36.159  79.023  29.165  0.00  0.00    +0.118 A 
ATOM      9  C   LIG    1      -35.031  78.317  29.278  0.00  0.00    +0.063 A 
ENDROOT
BRANCH   1  11
ATOM     10  C   LIG    1      -33.555  75.327  29.360  0.00  0.00    +0.107 C 
ATOM     11  N   LIG    1      -33.649  76.436  28.394  0.00  0.00    -0.308 N 
ATOM     12  C   LIG    1      -32.306  76.969  28.127  0.00  0.00    +0.107 C 
ATOM     13  C   LIG    1      -31.422  76.357  29.206  0.00  0.00    +0.021 C 
ATOM     14  C   LIG    1      -32.056  74.999  29.414  0.00  0.00    +0.029 C 
BRANCH  10  17
ATOM     15  C   LIG    1      -36.098  74.668  30.762  0.00  0.00    +0.066 C 
ATOM     16  C   LIG    1      -35.574  73.813  29.642  0.00  0.00    +0.043 A 
ATOM     17  C   LIG    1      -34.364  74.104  28.989  0.00  0.00    -0.003 A 
ATOM     18  C   LIG    1      -33.921  73.188  28.019  0.00  0.00    +0.047 A 
ATOM     19  C   LIG    1      -34.692  72.078  27.713  0.00  0.00    +0.142 A 
ATOM     20  F   LIG    1      -34.279  71.196  26.794  0.00  0.00    -0.204 F 
ATOM     21  C   LIG    1      -35.884  71.891  28.380  0.00  0.00    +0.149 A 
ATOM     22  N   LIG    1      -36.333  72.724  29.346  0.00  0.00    -0.257 NA
ENDBRANCH  10  17
ENDBRANCH   1  11
BRANCH   4  23
ATOM     23  C   LIG    1      -38.227  76.872  25.250  0.00  0.00    +0.249 C 
ATOM     24  N   LIG    1      -39.359  76.090  25.332  0.00  0.00    -0.308 N 
ATOM     25  H   LIG    1      -39.902  76.151  26.189  0.00  0.00    +0.149 HD
ATOM     26  O   LIG    1      -37.500  76.859  24.253  0.00  0.00    -0.270 OA
BRANCH  24  27
ATOM     27  C   LIG    1      -39.700  75.176  24.223  0.00  0.00    +0.073 C 
ATOM     28  C   LIG    1      -41.163  74.695  24.142  0.00  0.00    +0.022 C 
ATOM     29  C   LIG    1      -40.620  73.301  23.768  0.00  0.00    +0.004 C 
ATOM     30  C   LIG    1      -39.322  73.694  24.489  0.00  0.00    +0.022 C 
ENDBRANCH  24  27
ENDBRANCH   4  23
TORSDOF 4
ENDMDL
