MODEL 1
REMARK VINA RESULT:      -6.3      0.000      0.000
REMARK  Name = pdb/CHEMBL3912928.pdb
REMARK                            x       y       z     vdW  Elec       q    Type
REMARK                         _______ _______ _______ _____ _____    ______ ____
ROOT
ATOM      1  C   LIG    1      -36.383  76.543  26.729  0.00  0.00    +0.149 A 
ATOM      2  N   LIG    1      -37.412  77.366  26.486  0.00  0.00    -0.160 NA
ATOM      3  N   LIG    1      -38.201  76.709  25.598  0.00  0.00    -0.218 N 
ATOM      4  C   LIG    1      -37.750  75.399  25.389  0.00  0.00    +0.129 A 
ATOM      5  C   LIG    1      -36.619  75.274  26.164  0.00  0.00    +0.078 A 
ENDROOT
BRANCH   3   6
ATOM      6  C   LIG    1      -39.295  77.403  25.001  0.00  0.00    +0.067 A 
ATOM      7  C   LIG    1      -39.358  78.801  24.986  0.00  0.00    +0.028 A 
ATOM      8  C   LIG    1      -40.452  79.450  24.402  0.00  0.00    +0.002 A 
ATOM      9  C   LIG    1      -41.493  78.712  23.845  0.00  0.00    +0.000 A 
ATOM     10  C   LIG    1      -41.453  77.321  23.878  0.00  0.00    +0.002 A 
ATOM     11  C   LIG    1      -40.365  76.665  24.461  0.00  0.00    +0.028 A 
ENDBRANCH   3   6
BRANCH   4  12
ATOM     12  N   LIG    1      -38.318  74.390  24.595  0.00  0.00    -0.266 N 
ATOM     13  H   LIG    1      -38.187  74.450  23.600  0.00  0.00    +0.157 HD
ATOM     14  C   LIG    1      -39.117  73.315  25.120  0.00  0.00    +0.251 C 
ATOM     15  O   LIG    1      -39.389  73.237  26.319  0.00  0.00    -0.270 OA
BRANCH  14  16
ATOM     16  C   LIG    1      -39.622  72.283  24.194  0.00  0.00    +0.056 A 
ATOM     17  C   LIG    1      -40.882  72.349  23.598  0.00  0.00    +0.054 A 
ATOM     18 CL   LIG    1      -41.899  73.742  23.638  0.00  0.00    -0.083 Cl
ATOM     19  C   LIG    1      -41.379  71.232  22.938  0.00  0.00    +0.041 A 
ATOM     20  C   LIG    1      -40.602  70.071  22.784  0.00  0.00    +0.052 A 
ATOM     21 CL   LIG    1      -41.439  68.718  22.100  0.00  0.00    -0.083 Cl
ATOM     22  C   LIG    1      -39.265  70.015  23.232  0.00  0.00    +0.022 A 
ATOM     23  C   LIG    1      -38.822  71.134  23.980  0.00  0.00    +0.026 A 
BRANCH  22  24
ATOM     24  C   LIG    1      -38.346  68.880  22.929  0.00  0.00    +0.107 A 
ATOM     25  C   LIG    1      -37.891  68.562  21.647  0.00  0.00    +0.149 A 
ATOM     26  F   LIG    1      -38.202  69.320  20.587  0.00  0.00    -0.203 F 
ATOM     27  C   LIG    1      -37.088  67.441  21.445  0.00  0.00    +0.042 A 
ATOM     28  C   LIG    1      -36.713  66.668  22.534  0.00  0.00    +0.023 A 
ATOM     29  C   LIG    1      -37.179  67.042  23.780  0.00  0.00    +0.111 A 
ATOM     30  N   LIG    1      -38.006  68.097  23.990  0.00  0.00    -0.252 NA
ENDBRANCH  22  24
ENDBRANCH  14  16
ENDBRANCH   4  12
BRANCH   1  32
ATOM     31  N   LIG    1      -34.047  76.922  26.925  0.00  0.00    -0.246 NA
ATOM     32  C   LIG    1      -35.200  76.944  27.485  0.00  0.00    +0.236 C 
BRANCH  32  33
ATOM     33  O   LIG    1      -35.432  77.304  28.760  0.00  0.00    -0.491 OA
ATOM     34  H   LIG    1      -34.984  78.125  29.000  0.00  0.00    +0.294 HD
ENDBRANCH  32  33
BRANCH  31  35
ATOM     35  C   LIG    1      -32.822  77.287  27.639  0.00  0.00    +0.179 C 
BRANCH  35  36
ATOM     36  C   LIG    1      -32.309  78.651  27.152  0.00  0.00    +0.161 C 
BRANCH  36  37
ATOM     37  O   LIG    1      -32.338  78.691  25.720  0.00  0.00    -0.388 OA
ATOM     38  H   LIG    1      -32.615  79.590  25.465  0.00  0.00    +0.210 HD
ENDBRANCH  36  37
BRANCH  36  39
ATOM     39  C   LIG    1      -33.110  79.820  27.750  0.00  0.00    +0.192 C 
BRANCH  39  41
ATOM     40  C   LIG    1      -35.226  80.912  27.595  0.00  0.00    +0.194 C 
ATOM     41  O   LIG    1      -34.135  80.329  26.896  0.00  0.00    -0.380 OA
ENDBRANCH  39  41
ENDBRANCH  36  39
ENDBRANCH  35  36
ENDBRANCH  31  35
ENDBRANCH   1  32
TORSDOF 11
ENDMDL
MODEL 2
REMARK VINA RESULT:      -6.3      8.548     12.432
REMARK  Name = pdb/CHEMBL3912928.pdb
REMARK                            x       y       z     vdW  Elec       q    Type
REMARK                         _______ _______ _______ _____ _____    ______ ____
ROOT
ATOM      1  C   LIG    1      -31.129  87.018  31.155  0.00  0.00    +0.149 A 
ATOM      2  N   LIG    1      -32.133  87.865  30.886  0.00  0.00    -0.160 NA
ATOM      3  N   LIG    1      -33.003  87.166  30.115  0.00  0.00    -0.218 N 
ATOM      4  C   LIG    1      -32.626  85.820  30.016  0.00  0.00    +0.129 A 
ATOM      5  C   LIG    1      -31.457  85.714  30.736  0.00  0.00    +0.078 A 
ENDROOT
BRANCH   3   6
ATOM      6  C   LIG    1      -34.098  87.853  29.512  0.00  0.00    +0.067 A 
ATOM      7  C   LIG    1      -35.424  87.551  29.837  0.00  0.00    +0.028 A 
ATOM      8  C   LIG    1      -36.475  88.237  29.218  0.00  0.00    +0.002 A 
ATOM      9  C   LIG    1      -36.211  89.215  28.262  0.00  0.00    +0.000 A 
ATOM     10  C   LIG    1      -34.895  89.505  27.912  0.00  0.00    +0.002 A 
ATOM     11  C   LIG    1      -33.840  88.823  28.525  0.00  0.00    +0.028 A 
ENDBRANCH   3   6
BRANCH   4  12
ATOM     12  N   LIG    1      -33.287  84.768  29.361  0.00  0.00    -0.266 N 
ATOM     13  H   LIG    1      -33.028  84.576  28.409  0.00  0.00    +0.157 HD
ATOM     14  C   LIG    1      -34.342  83.993  29.958  0.00  0.00    +0.251 C 
ATOM     15  O   LIG    1      -34.765  84.239  31.089  0.00  0.00    -0.270 OA
BRANCH  14  16
ATOM     16  C   LIG    1      -34.930  82.879  29.190  0.00  0.00    +0.056 A 
ATOM     17  C   LIG    1      -36.133  82.989  28.492  0.00  0.00    +0.054 A 
ATOM     18 CL   LIG    1      -36.949  84.481  28.203  0.00  0.00    -0.083 Cl
ATOM     19  C   LIG    1      -36.740  81.840  28.000  0.00  0.00    +0.041 A 
ATOM     20  C   LIG    1      -36.123  80.583  28.118  0.00  0.00    +0.052 A 
ATOM     21 CL   LIG    1      -37.097  79.241  27.618  0.00  0.00    -0.083 Cl
ATOM     22  C   LIG    1      -34.834  80.444  28.676  0.00  0.00    +0.022 A 
ATOM     23  C   LIG    1      -34.285  81.619  29.248  0.00  0.00    +0.026 A 
BRANCH  22  24
ATOM     24  C   LIG    1      -34.065  79.167  28.654  0.00  0.00    +0.107 A 
ATOM     25  C   LIG    1      -33.145  78.825  27.660  0.00  0.00    +0.149 A 
ATOM     26  F   LIG    1      -32.833  79.676  26.673  0.00  0.00    -0.203 F 
ATOM     27  C   LIG    1      -32.520  77.579  27.680  0.00  0.00    +0.042 A 
ATOM     28  C   LIG    1      -32.789  76.700  28.718  0.00  0.00    +0.023 A 
ATOM     29  C   LIG    1      -33.694  77.102  29.684  0.00  0.00    +0.111 A 
ATOM     30  N   LIG    1      -34.354  78.287  29.651  0.00  0.00    -0.252 NA
ENDBRANCH  22  24
ENDBRANCH  14  16
ENDBRANCH   4  12
BRANCH   1  32
ATOM     31  N   LIG    1      -29.785  87.382  33.077  0.00  0.00    -0.246 NA
ATOM     32  C   LIG    1      -29.886  87.430  31.800  0.00  0.00    +0.236 C 
BRANCH  32  33
ATOM     33  O   LIG    1      -28.921  87.852  30.964  0.00  0.00    -0.491 OA
ATOM     34  H   LIG    1      -28.814  87.272  30.200  0.00  0.00    +0.294 HD
ENDBRANCH  32  33
BRANCH  31  35
ATOM     35  C   LIG    1      -28.573  87.806  33.783  0.00  0.00    +0.179 C 
BRANCH  35  36
ATOM     36  C   LIG    1      -27.851  86.588  34.379  0.00  0.00    +0.161 C 
BRANCH  36  37
ATOM     37  O   LIG    1      -26.763  87.030  35.199  0.00  0.00    -0.388 OA
ATOM     38  H   LIG    1      -26.356  87.792  34.750  0.00  0.00    +0.210 HD
ENDBRANCH  36  37
BRANCH  36  39
ATOM     39  C   LIG    1      -28.805  85.680  35.174  0.00  0.00    +0.192 C 
BRANCH  39  41
ATOM     40  C   LIG    1      -30.155  83.953  34.232  0.00  0.00    +0.194 C 
ATOM     41  O   LIG    1      -28.869  84.335  34.699  0.00  0.00    -0.380 OA
ENDBRANCH  39  41
ENDBRANCH  36  39
ENDBRANCH  35  36
ENDBRANCH  31  35
ENDBRANCH   1  32
TORSDOF 11
ENDMDL
MODEL 3
REMARK VINA RESULT:      -6.2      3.120      4.662
REMARK  Name = pdb/CHEMBL3912928.pdb
REMARK                            x       y       z     vdW  Elec       q    Type
REMARK                         _______ _______ _______ _____ _____    ______ ____
ROOT
ATOM      1  C   LIG    1      -35.977  71.869  26.938  0.00  0.00    +0.149 A 
ATOM      2  N   LIG    1      -37.075  72.610  26.734  0.00  0.00    -0.160 NA
ATOM      3  N   LIG    1      -37.510  72.281  25.491  0.00  0.00    -0.218 N 
ATOM      4  C   LIG    1      -36.772  71.216  24.959  0.00  0.00    +0.129 A 
ATOM      5  C   LIG    1      -35.830  70.911  25.916  0.00  0.00    +0.078 A 
ENDROOT
BRANCH   3   6
ATOM      6  C   LIG    1      -38.569  73.039  24.908  0.00  0.00    +0.067 A 
ATOM      7  C   LIG    1      -38.578  74.438  24.945  0.00  0.00    +0.028 A 
ATOM      8  C   LIG    1      -39.638  75.150  24.372  0.00  0.00    +0.002 A 
ATOM      9  C   LIG    1      -40.700  74.474  23.775  0.00  0.00    +0.000 A 
ATOM     10  C   LIG    1      -40.713  73.082  23.757  0.00  0.00    +0.002 A 
ATOM     11  C   LIG    1      -39.659  72.364  24.328  0.00  0.00    +0.028 A 
ENDBRANCH   3   6
BRANCH   4  12
ATOM     12  N   LIG    1      -36.946  70.552  23.734  0.00  0.00    -0.266 N 
ATOM     13  H   LIG    1      -36.495  70.943  22.924  0.00  0.00    +0.157 HD
ATOM     14  C   LIG    1      -37.770  69.384  23.568  0.00  0.00    +0.251 C 
ATOM     15  O   LIG    1      -38.418  68.912  24.503  0.00  0.00    -0.270 OA
BRANCH  14  16
ATOM     16  C   LIG    1      -37.838  68.743  22.241  0.00  0.00    +0.056 A 
ATOM     17  C   LIG    1      -38.983  68.765  21.444  0.00  0.00    +0.054 A 
ATOM     18 CL   LIG    1      -40.361  69.752  21.761  0.00  0.00    -0.083 Cl
ATOM     19  C   LIG    1      -39.049  67.940  20.328  0.00  0.00    +0.041 A 
ATOM     20  C   LIG    1      -37.953  67.151  19.940  0.00  0.00    +0.052 A 
ATOM     21 CL   LIG    1      -38.269  66.051  18.640  0.00  0.00    -0.083 Cl
ATOM     22  C   LIG    1      -36.720  67.215  20.624  0.00  0.00    +0.022 A 
ATOM     23  C   LIG    1      -36.715  67.994  21.807  0.00  0.00    +0.026 A 
BRANCH  22  24
ATOM     24  C   LIG    1      -35.479  66.542  20.142  0.00  0.00    +0.107 A 
ATOM     25  C   LIG    1      -34.848  66.839  18.931  0.00  0.00    +0.149 A 
ATOM     26  F   LIG    1      -35.288  67.824  18.136  0.00  0.00    -0.203 F 
ATOM     27  C   LIG    1      -33.730  66.112  18.526  0.00  0.00    +0.042 A 
ATOM     28  C   LIG    1      -33.226  65.121  19.354  0.00  0.00    +0.023 A 
ATOM     29  C   LIG    1      -33.882  64.885  20.549  0.00  0.00    +0.111 A 
ATOM     30  N   LIG    1      -35.004  65.543  20.934  0.00  0.00    -0.252 NA
ENDBRANCH  22  24
ENDBRANCH  14  16
ENDBRANCH   4  12
BRANCH   1  32
ATOM     31  N   LIG    1      -34.064  72.822  27.971  0.00  0.00    -0.246 NA
ATOM     32  C   LIG    1      -35.086  72.056  28.080  0.00  0.00    +0.236 C 
BRANCH  32  33
ATOM     33  O   LIG    1      -35.424  71.370  29.186  0.00  0.00    -0.491 OA
ATOM     34  H   LIG    1      -36.119  71.807  29.694  0.00  0.00    +0.294 HD
ENDBRANCH  32  33
BRANCH  31  35
ATOM     35  C   LIG    1      -33.121  73.028  29.073  0.00  0.00    +0.179 C 
BRANCH  35  36
ATOM     36  C   LIG    1      -32.904  74.530  29.312  0.00  0.00    +0.161 C 
BRANCH  36  37
ATOM     37  O   LIG    1      -31.510  74.787  29.521  0.00  0.00    -0.388 OA
ATOM     38  H   LIG    1      -31.046  74.529  28.704  0.00  0.00    +0.210 HD
ENDBRANCH  36  37
BRANCH  36  39
ATOM     39  C   LIG    1      -33.452  75.387  28.158  0.00  0.00    +0.192 C 
BRANCH  39  41
ATOM     40  C   LIG    1      -35.549  76.116  27.284  0.00  0.00    +0.194 C 
ATOM     41  O   LIG    1      -34.714  75.998  28.427  0.00  0.00    -0.380 OA
ENDBRANCH  39  41
ENDBRANCH  36  39
ENDBRANCH  35  36
ENDBRANCH  31  35
ENDBRANCH   1  32
TORSDOF 11
ENDMDL
MODEL 4
REMARK VINA RESULT:      -6.1     17.202     18.617
REMARK  Name = pdb/CHEMBL3912928.pdb
REMARK                            x       y       z     vdW  Elec       q    Type
REMARK                         _______ _______ _______ _____ _____    ______ ____
ROOT
ATOM      1  C   LIG    1      -23.188  81.554  15.267  0.00  0.00    +0.149 A 
ATOM      2  N   LIG    1      -24.274  81.474  14.486  0.00  0.00    -0.160 NA
ATOM      3  N   LIG    1      -24.544  80.149  14.374  0.00  0.00    -0.218 N 
ATOM      4  C   LIG    1      -23.715  79.388  15.208  0.00  0.00    +0.129 A 
ATOM      5  C   LIG    1      -22.888  80.298  15.829  0.00  0.00    +0.078 A 
ENDROOT
BRANCH   3   6
ATOM      6  C   LIG    1      -25.545  79.725  13.451  0.00  0.00    +0.067 A 
ATOM      7  C   LIG    1      -26.458  78.713  13.770  0.00  0.00    +0.028 A 
ATOM      8  C   LIG    1      -27.420  78.313  12.836  0.00  0.00    +0.002 A 
ATOM      9  C   LIG    1      -27.470  78.907  11.577  0.00  0.00    +0.000 A 
ATOM     10  C   LIG    1      -26.549  79.896  11.240  0.00  0.00    +0.002 A 
ATOM     11  C   LIG    1      -25.584  80.299  12.166  0.00  0.00    +0.028 A 
ENDBRANCH   3   6
BRANCH   4  12
ATOM     12  N   LIG    1      -23.718  78.001  15.421  0.00  0.00    -0.266 N 
ATOM     13  H   LIG    1      -24.105  77.661  16.285  0.00  0.00    +0.157 HD
ATOM     14  C   LIG    1      -23.153  77.050  14.500  0.00  0.00    +0.251 C 
ATOM     15  O   LIG    1      -22.585  77.409  13.467  0.00  0.00    -0.270 OA
BRANCH  14  16
ATOM     16  C   LIG    1      -23.257  75.611  14.807  0.00  0.00    +0.056 A 
ATOM     17  C   LIG    1      -24.262  74.795  14.287  0.00  0.00    +0.054 A 
ATOM     18 CL   LIG    1      -25.341  75.271  13.029  0.00  0.00    -0.083 Cl
ATOM     19  C   LIG    1      -24.437  73.518  14.809  0.00  0.00    +0.041 A 
ATOM     20  C   LIG    1      -23.567  73.005  15.786  0.00  0.00    +0.052 A 
ATOM     21 CL   LIG    1      -24.037  71.478  16.454  0.00  0.00    -0.083 Cl
ATOM     22  C   LIG    1      -22.442  73.735  16.227  0.00  0.00    +0.022 A 
ATOM     23  C   LIG    1      -22.346  75.064  15.744  0.00  0.00    +0.026 A 
BRANCH  22  24
ATOM     24  C   LIG    1      -21.392  73.163  17.118  0.00  0.00    +0.107 A 
ATOM     25  C   LIG    1      -21.565  72.934  18.486  0.00  0.00    +0.149 A 
ATOM     26  F   LIG    1      -22.743  73.152  19.087  0.00  0.00    -0.203 F 
ATOM     27  C   LIG    1      -20.506  72.460  19.258  0.00  0.00    +0.042 A 
ATOM     28  C   LIG    1      -19.292  72.181  18.649  0.00  0.00    +0.023 A 
ATOM     29  C   LIG    1      -19.186  72.411  17.289  0.00  0.00    +0.111 A 
ATOM     30  N   LIG    1      -20.187  72.923  16.531  0.00  0.00    -0.252 NA
ENDBRANCH  22  24
ENDBRANCH  14  16
ENDBRANCH   4  12
BRANCH   1  32
ATOM     31  N   LIG    1      -22.351  83.653  14.538  0.00  0.00    -0.246 NA
ATOM     32  C   LIG    1      -22.449  82.795  15.485  0.00  0.00    +0.236 C 
BRANCH  32  33
ATOM     33  O   LIG    1      -21.904  82.928  16.708  0.00  0.00    -0.491 OA
ATOM     34  H   LIG    1      -21.326  83.698  16.773  0.00  0.00    +0.294 HD
ENDBRANCH  32  33
BRANCH  31  35
ATOM     35  C   LIG    1      -21.602  84.902  14.688  0.00  0.00    +0.179 C 
BRANCH  35  36
ATOM     36  C   LIG    1      -22.546  86.042  15.100  0.00  0.00    +0.161 C 
BRANCH  36  37
ATOM     37  O   LIG    1      -22.207  86.494  16.417  0.00  0.00    -0.388 OA
ATOM     38  H   LIG    1      -21.236  86.558  16.456  0.00  0.00    +0.210 HD
ENDBRANCH  36  37
BRANCH  36  39
ATOM     39  C   LIG    1      -22.522  87.208  14.096  0.00  0.00    +0.192 C 
BRANCH  39  41
ATOM     40  C   LIG    1      -21.139  88.933  13.201  0.00  0.00    +0.194 C 
ATOM     41  O   LIG    1      -21.507  88.179  14.348  0.00  0.00    -0.380 OA
ENDBRANCH  39  41
ENDBRANCH  36  39
ENDBRANCH  35  36
ENDBRANCH  31  35
ENDBRANCH   1  32
TORSDOF 11
ENDMDL
MODEL 5
REMARK VINA RESULT:      -6.1      5.522     11.243
REMARK  Name = pdb/CHEMBL3912928.pdb
REMARK                            x       y       z     vdW  Elec       q    Type
REMARK                         _______ _______ _______ _____ _____    ______ ____
ROOT
ATOM      1  C   LIG    1      -37.401  70.085  24.625  0.00  0.00    +0.149 A 
ATOM      2  N   LIG    1      -37.087  69.053  25.421  0.00  0.00    -0.160 NA
ATOM      3  N   LIG    1      -36.010  69.461  26.138  0.00  0.00    -0.218 N 
ATOM      4  C   LIG    1      -35.727  70.814  25.906  0.00  0.00    +0.129 A 
ATOM      5  C   LIG    1      -36.660  71.229  24.982  0.00  0.00    +0.078 A 
ENDROOT
BRANCH   3   6
ATOM      6  C   LIG    1      -35.324  68.513  26.954  0.00  0.00    +0.067 A 
ATOM      7  C   LIG    1      -34.561  67.481  26.398  0.00  0.00    +0.028 A 
ATOM      8  C   LIG    1      -33.910  66.561  27.227  0.00  0.00    +0.002 A 
ATOM      9  C   LIG    1      -34.029  66.654  28.612  0.00  0.00    +0.000 A 
ATOM     10  C   LIG    1      -34.807  67.662  29.175  0.00  0.00    +0.002 A 
ATOM     11  C   LIG    1      -35.462  68.583  28.353  0.00  0.00    +0.028 A 
ENDBRANCH   3   6
BRANCH   4  12
ATOM     12  N   LIG    1      -34.737  71.618  26.493  0.00  0.00    -0.266 N 
ATOM     13  H   LIG    1      -33.858  71.703  26.010  0.00  0.00    +0.157 HD
ATOM     14  C   LIG    1      -34.891  72.278  27.762  0.00  0.00    +0.251 C 
ATOM     15  O   LIG    1      -35.909  72.140  28.443  0.00  0.00    -0.270 OA
BRANCH  14  16
ATOM     16  C   LIG    1      -33.799  73.138  28.257  0.00  0.00    +0.056 A 
ATOM     17  C   LIG    1      -32.763  72.662  29.061  0.00  0.00    +0.054 A 
ATOM     18 CL   LIG    1      -32.462  70.991  29.362  0.00  0.00    -0.083 Cl
ATOM     19  C   LIG    1      -31.915  73.571  29.682  0.00  0.00    +0.041 A 
ATOM     20  C   LIG    1      -32.028  74.952  29.446  0.00  0.00    +0.052 A 
ATOM     21 CL   LIG    1      -31.016  75.948  30.438  0.00  0.00    -0.083 Cl
ATOM     22  C   LIG    1      -32.959  75.467  28.519  0.00  0.00    +0.022 A 
ATOM     23  C   LIG    1      -33.866  74.525  27.973  0.00  0.00    +0.026 A 
BRANCH  22  24
ATOM     24  C   LIG    1      -32.991  76.897  28.097  0.00  0.00    +0.107 A 
ATOM     25  C   LIG    1      -33.668  77.903  28.792  0.00  0.00    +0.149 A 
ATOM     26  F   LIG    1      -34.289  77.654  29.953  0.00  0.00    -0.203 F 
ATOM     27  C   LIG    1      -33.703  79.202  28.289  0.00  0.00    +0.042 A 
ATOM     28  C   LIG    1      -33.025  79.495  27.115  0.00  0.00    +0.023 A 
ATOM     29  C   LIG    1      -32.358  78.463  26.482  0.00  0.00    +0.111 A 
ATOM     30  N   LIG    1      -32.359  77.181  26.926  0.00  0.00    -0.252 NA
ENDBRANCH  22  24
ENDBRANCH  14  16
ENDBRANCH   4  12
BRANCH   1  32
ATOM     31  N   LIG    1      -38.209  69.164  22.591  0.00  0.00    -0.246 NA
ATOM     32  C   LIG    1      -38.386  69.996  23.551  0.00  0.00    +0.236 C 
BRANCH  32  33
ATOM     33  O   LIG    1      -39.430  70.837  23.662  0.00  0.00    -0.491 OA
ATOM     34  H   LIG    1      -39.550  71.382  22.874  0.00  0.00    +0.294 HD
ENDBRANCH  32  33
BRANCH  31  35
ATOM     35  C   LIG    1      -39.148  69.048  21.474  0.00  0.00    +0.179 C 
BRANCH  35  36
ATOM     36  C   LIG    1      -38.653  67.993  20.472  0.00  0.00    +0.161 C 
BRANCH  36  37
ATOM     37  O   LIG    1      -37.929  68.636  19.416  0.00  0.00    -0.388 OA
ATOM     38  H   LIG    1      -38.586  69.069  18.841  0.00  0.00    +0.210 HD
ENDBRANCH  36  37
BRANCH  36  39
ATOM     39  C   LIG    1      -37.794  66.910  21.146  0.00  0.00    +0.192 C 
BRANCH  39  41
ATOM     40  C   LIG    1      -35.423  66.654  21.077  0.00  0.00    +0.194 C 
ATOM     41  O   LIG    1      -36.656  66.504  20.386  0.00  0.00    -0.380 OA
ENDBRANCH  39  41
ENDBRANCH  36  39
ENDBRANCH  35  36
ENDBRANCH  31  35
ENDBRANCH   1  32
TORSDOF 11
ENDMDL
MODEL 6
REMARK VINA RESULT:      -6.1      6.970      9.076
REMARK  Name = pdb/CHEMBL3912928.pdb
REMARK                            x       y       z     vdW  Elec       q    Type
REMARK                         _______ _______ _______ _____ _____    ______ ____
ROOT
ATOM      1  C   LIG    1      -29.334  75.674  31.497  0.00  0.00    +0.149 A 
ATOM      2  N   LIG    1      -30.224  76.286  30.702  0.00  0.00    -0.160 NA
ATOM      3  N   LIG    1      -31.039  75.302  30.245  0.00  0.00    -0.218 N 
ATOM      4  C   LIG    1      -30.759  74.079  30.869  0.00  0.00    +0.129 A 
ATOM      5  C   LIG    1      -29.706  74.334  31.719  0.00  0.00    +0.078 A 
ENDROOT
BRANCH   3   6
ATOM      6  C   LIG    1      -31.988  75.610  29.226  0.00  0.00    +0.067 A 
ATOM      7  C   LIG    1      -31.914  76.794  28.486  0.00  0.00    +0.028 A 
ATOM      8  C   LIG    1      -32.868  77.070  27.501  0.00  0.00    +0.002 A 
ATOM      9  C   LIG    1      -33.910  76.178  27.259  0.00  0.00    +0.000 A 
ATOM     10  C   LIG    1      -34.008  75.008  28.008  0.00  0.00    +0.002 A 
ATOM     11  C   LIG    1      -33.060  74.726  28.995  0.00  0.00    +0.028 A 
ENDBRANCH   3   6
BRANCH   4  12
ATOM     12  N   LIG    1      -31.410  72.844  30.714  0.00  0.00    -0.266 N 
ATOM     13  H   LIG    1      -32.219  72.668  31.285  0.00  0.00    +0.157 HD
ATOM     14  C   LIG    1      -30.953  71.806  29.829  0.00  0.00    +0.251 C 
ATOM     15  O   LIG    1      -29.919  71.926  29.171  0.00  0.00    -0.270 OA
BRANCH  14  16
ATOM     16  C   LIG    1      -31.747  70.567  29.713  0.00  0.00    +0.056 A 
ATOM     17  C   LIG    1      -31.402  69.381  30.362  0.00  0.00    +0.054 A 
ATOM     18 CL   LIG    1      -30.187  69.263  31.579  0.00  0.00    -0.083 Cl
ATOM     19  C   LIG    1      -32.054  68.203  30.013  0.00  0.00    +0.041 A 
ATOM     20  C   LIG    1      -33.109  68.202  29.086  0.00  0.00    +0.052 A 
ATOM     21 CL   LIG    1      -33.681  66.631  28.634  0.00  0.00    -0.083 Cl
ATOM     22  C   LIG    1      -33.596  69.401  28.523  0.00  0.00    +0.022 A 
ATOM     23  C   LIG    1      -32.853  70.568  28.828  0.00  0.00    +0.026 A 
BRANCH  22  24
ATOM     24  C   LIG    1      -34.827  69.471  27.683  0.00  0.00    +0.107 A 
ATOM     25  C   LIG    1      -34.834  69.334  26.292  0.00  0.00    +0.149 A 
ATOM     26  F   LIG    1      -33.715  69.052  25.611  0.00  0.00    -0.203 F 
ATOM     27  C   LIG    1      -36.022  69.482  25.578  0.00  0.00    +0.042 A 
ATOM     28  C   LIG    1      -37.202  69.726  26.265  0.00  0.00    +0.023 A 
ATOM     29  C   LIG    1      -37.135  69.833  27.642  0.00  0.00    +0.111 A 
ATOM     30  N   LIG    1      -35.981  69.747  28.349  0.00  0.00    -0.252 NA
ENDBRANCH  22  24
ENDBRANCH  14  16
ENDBRANCH   4  12
BRANCH   1  32
ATOM     31  N   LIG    1      -27.104  76.470  31.321  0.00  0.00    -0.246 NA
ATOM     32  C   LIG    1      -28.156  76.344  32.042  0.00  0.00    +0.236 C 
BRANCH  32  33
ATOM     33  O   LIG    1      -28.282  76.778  33.309  0.00  0.00    -0.491 OA
ATOM     34  H   LIG    1      -27.507  77.269  33.610  0.00  0.00    +0.294 HD
ENDBRANCH  32  33
BRANCH  31  35
ATOM     35  C   LIG    1      -25.884  77.108  31.821  0.00  0.00    +0.179 C 
BRANCH  35  36
ATOM     36  C   LIG    1      -24.737  76.925  30.816  0.00  0.00    +0.161 C 
BRANCH  36  37
ATOM     37  O   LIG    1      -25.132  77.439  29.538  0.00  0.00    -0.388 OA
ATOM     38  H   LIG    1      -25.169  76.683  28.924  0.00  0.00    +0.210 HD
ENDBRANCH  36  37
BRANCH  36  39
ATOM     39  C   LIG    1      -23.434  77.588  31.295  0.00  0.00    +0.192 C 
BRANCH  39  41
ATOM     40  C   LIG    1      -22.318  78.320  33.272  0.00  0.00    +0.194 C 
ATOM     41  O   LIG    1      -23.541  78.253  32.554  0.00  0.00    -0.380 OA
ENDBRANCH  39  41
ENDBRANCH  36  39
ENDBRANCH  35  36
ENDBRANCH  31  35
ENDBRANCH   1  32
TORSDOF 11
ENDMDL
MODEL 7
REMARK VINA RESULT:      -6.0     14.156     16.065
REMARK  Name = pdb/CHEMBL3912928.pdb
REMARK                            x       y       z     vdW  Elec       q    Type
REMARK                         _______ _______ _______ _____ _____    ______ ____
ROOT
ATOM      1  C   LIG    1      -28.233  77.988  12.008  0.00  0.00    +0.149 A 
ATOM      2  N   LIG    1      -27.065  78.533  12.376  0.00  0.00    -0.160 NA
ATOM      3  N   LIG    1      -26.585  77.731  13.360  0.00  0.00    -0.218 N 
ATOM      4  C   LIG    1      -27.378  76.587  13.517  0.00  0.00    +0.129 A 
ATOM      5  C   LIG    1      -28.400  76.724  12.604  0.00  0.00    +0.078 A 
ENDROOT
BRANCH   3   6
ATOM      6  C   LIG    1      -25.431  78.148  14.088  0.00  0.00    +0.067 A 
ATOM      7  C   LIG    1      -24.244  77.408  14.071  0.00  0.00    +0.028 A 
ATOM      8  C   LIG    1      -23.135  77.839  14.806  0.00  0.00    +0.002 A 
ATOM      9  C   LIG    1      -23.205  79.000  15.572  0.00  0.00    +0.000 A 
ATOM     10  C   LIG    1      -24.390  79.730  15.617  0.00  0.00    +0.002 A 
ATOM     11  C   LIG    1      -25.503  79.305  14.887  0.00  0.00    +0.028 A 
ENDBRANCH   3   6
BRANCH   4  12
ATOM     12  N   LIG    1      -27.188  75.498  14.382  0.00  0.00    -0.266 N 
ATOM     13  H   LIG    1      -27.573  75.566  15.309  0.00  0.00    +0.157 HD
ATOM     14  C   LIG    1      -26.433  74.324  14.035  0.00  0.00    +0.251 C 
ATOM     15  O   LIG    1      -25.862  74.220  12.949  0.00  0.00    -0.270 OA
BRANCH  14  16
ATOM     16  C   LIG    1      -26.342  73.220  15.010  0.00  0.00    +0.056 A 
ATOM     17  C   LIG    1      -25.128  72.739  15.501  0.00  0.00    +0.054 A 
ATOM     18 CL   LIG    1      -23.610  73.521  15.260  0.00  0.00    -0.083 Cl
ATOM     19  C   LIG    1      -25.110  71.550  16.221  0.00  0.00    +0.041 A 
ATOM     20  C   LIG    1      -26.300  70.872  16.536  0.00  0.00    +0.052 A 
ATOM     21 CL   LIG    1      -26.083  69.321  17.275  0.00  0.00    -0.083 Cl
ATOM     22  C   LIG    1      -27.563  71.403  16.196  0.00  0.00    +0.022 A 
ATOM     23  C   LIG    1      -27.541  72.566  15.387  0.00  0.00    +0.026 A 
BRANCH  22  24
ATOM     24  C   LIG    1      -28.851  70.819  16.668  0.00  0.00    +0.107 A 
ATOM     25  C   LIG    1      -29.551  71.271  17.790  0.00  0.00    +0.149 A 
ATOM     26  F   LIG    1      -29.135  72.334  18.493  0.00  0.00    -0.203 F 
ATOM     27  C   LIG    1      -30.714  70.622  18.201  0.00  0.00    +0.042 A 
ATOM     28  C   LIG    1      -31.191  69.550  17.462  0.00  0.00    +0.023 A 
ATOM     29  C   LIG    1      -30.466  69.160  16.351  0.00  0.00    +0.111 A 
ATOM     30  N   LIG    1      -29.303  69.743  15.968  0.00  0.00    -0.252 NA
ENDBRANCH  22  24
ENDBRANCH  14  16
ENDBRANCH   4  12
BRANCH   1  32
ATOM     31  N   LIG    1      -30.422  78.367  11.170  0.00  0.00    -0.246 NA
ATOM     32  C   LIG    1      -29.173  78.647  11.104  0.00  0.00    +0.236 C 
BRANCH  32  33
ATOM     33  O   LIG    1      -28.620  79.516  10.239  0.00  0.00    -0.491 OA
ATOM     34  H   LIG    1      -28.352  80.340  10.663  0.00  0.00    +0.294 HD
ENDBRANCH  32  33
BRANCH  31  35
ATOM     35  C   LIG    1      -31.408  78.975  10.273  0.00  0.00    +0.179 C 
BRANCH  35  36
ATOM     36  C   LIG    1      -32.539  79.623  11.088  0.00  0.00    +0.161 C 
BRANCH  36  37
ATOM     37  O   LIG    1      -32.345  79.349  12.481  0.00  0.00    -0.388 OA
ATOM     38  H   LIG    1      -33.214  79.437  12.913  0.00  0.00    +0.210 HD
ENDBRANCH  36  37
BRANCH  36  39
ATOM     39  C   LIG    1      -32.642  81.137  10.834  0.00  0.00    +0.192 C 
BRANCH  39  41
ATOM     40  C   LIG    1      -33.995  83.072  11.177  0.00  0.00    +0.194 C 
ATOM     41  O   LIG    1      -33.961  81.667  10.969  0.00  0.00    -0.380 OA
ENDBRANCH  39  41
ENDBRANCH  36  39
ENDBRANCH  35  36
ENDBRANCH  31  35
ENDBRANCH   1  32
TORSDOF 11
ENDMDL
MODEL 8
REMARK VINA RESULT:      -6.0      1.683      2.185
REMARK  Name = pdb/CHEMBL3912928.pdb
REMARK                            x       y       z     vdW  Elec       q    Type
REMARK                         _______ _______ _______ _____ _____    ______ ____
ROOT
ATOM      1  C   LIG    1      -36.596  76.803  27.131  0.00  0.00    +0.149 A 
ATOM      2  N   LIG    1      -37.735  77.397  26.748  0.00  0.00    -0.160 NA
ATOM      3  N   LIG    1      -38.292  76.561  25.835  0.00  0.00    -0.218 N 
ATOM      4  C   LIG    1      -37.580  75.358  25.746  0.00  0.00    +0.129 A 
ATOM      5  C   LIG    1      -36.528  75.490  26.625  0.00  0.00    +0.078 A 
ENDROOT
BRANCH   3   6
ATOM      6  C   LIG    1      -39.433  77.002  25.102  0.00  0.00    +0.067 A 
ATOM      7  C   LIG    1      -39.341  78.005  24.131  0.00  0.00    +0.028 A 
ATOM      8  C   LIG    1      -40.484  78.421  23.438  0.00  0.00    +0.002 A 
ATOM      9  C   LIG    1      -41.724  77.854  23.719  0.00  0.00    +0.000 A 
ATOM     10  C   LIG    1      -41.831  76.874  24.703  0.00  0.00    +0.002 A 
ATOM     11  C   LIG    1      -40.695  76.454  25.400  0.00  0.00    +0.028 A 
ENDBRANCH   3   6
BRANCH   4  12
ATOM     12  N   LIG    1      -37.863  74.225  24.966  0.00  0.00    -0.266 N 
ATOM     13  H   LIG    1      -37.426  74.160  24.062  0.00  0.00    +0.157 HD
ATOM     14  C   LIG    1      -38.777  73.188  25.365  0.00  0.00    +0.251 C 
ATOM     15  O   LIG    1      -39.410  73.256  26.420  0.00  0.00    -0.270 OA
BRANCH  14  16
ATOM     16  C   LIG    1      -38.959  72.019  24.484  0.00  0.00    +0.056 A 
ATOM     17  C   LIG    1      -40.092  71.834  23.692  0.00  0.00    +0.054 A 
ATOM     18 CL   LIG    1      -41.292  73.044  23.423  0.00  0.00    -0.083 Cl
ATOM     19  C   LIG    1      -40.299  70.602  23.082  0.00  0.00    +0.041 A 
ATOM     20  C   LIG    1      -39.348  69.573  23.177  0.00  0.00    +0.052 A 
ATOM     21 CL   LIG    1      -39.848  68.053  22.514  0.00  0.00    -0.083 Cl
ATOM     22  C   LIG    1      -38.115  69.768  23.835  0.00  0.00    +0.022 A 
ATOM     23  C   LIG    1      -37.975  71.000  24.522  0.00  0.00    +0.026 A 
BRANCH  22  24
ATOM     24  C   LIG    1      -37.002  68.776  23.803  0.00  0.00    +0.107 A 
ATOM     25  C   LIG    1      -36.522  68.101  24.929  0.00  0.00    +0.149 A 
ATOM     26  F   LIG    1      -37.094  68.253  26.132  0.00  0.00    -0.203 F 
ATOM     27  C   LIG    1      -35.432  67.240  24.820  0.00  0.00    +0.042 A 
ATOM     28  C   LIG    1      -34.854  67.029  23.577  0.00  0.00    +0.023 A 
ATOM     29  C   LIG    1      -35.384  67.710  22.496  0.00  0.00    +0.111 A 
ATOM     30  N   LIG    1      -36.409  68.594  22.592  0.00  0.00    -0.252 NA
ENDBRANCH  22  24
ENDBRANCH  14  16
ENDBRANCH   4  12
BRANCH   1  32
ATOM     31  N   LIG    1      -35.033  76.809  28.918  0.00  0.00    -0.246 NA
ATOM     32  C   LIG    1      -35.593  77.459  27.965  0.00  0.00    +0.236 C 
BRANCH  32  33
ATOM     33  O   LIG    1      -35.343  78.744  27.654  0.00  0.00    -0.491 OA
ATOM     34  H   LIG    1      -36.093  79.322  27.843  0.00  0.00    +0.294 HD
ENDBRANCH  32  33
BRANCH  31  35
ATOM     35  C   LIG    1      -34.040  77.421  29.804  0.00  0.00    +0.179 C 
BRANCH  35  36
ATOM     36  C   LIG    1      -32.676  76.735  29.627  0.00  0.00    +0.161 C 
BRANCH  36  37
ATOM     37  O   LIG    1      -32.843  75.313  29.682  0.00  0.00    -0.388 OA
ATOM     38  H   LIG    1      -32.514  75.020  30.550  0.00  0.00    +0.210 HD
ENDBRANCH  36  37
BRANCH  36  39
ATOM     39  C   LIG    1      -31.980  77.156  28.321  0.00  0.00    +0.192 C 
BRANCH  39  41
ATOM     40  C   LIG    1      -32.240  78.673  26.498  0.00  0.00    +0.194 C 
ATOM     41  O   LIG    1      -32.265  78.493  27.907  0.00  0.00    -0.380 OA
ENDBRANCH  39  41
ENDBRANCH  36  39
ENDBRANCH  35  36
ENDBRANCH  31  35
ENDBRANCH   1  32
TORSDOF 11
ENDMDL
MODEL 9
REMARK VINA RESULT:      -6.0      2.894      5.049
REMARK  Name = pdb/CHEMBL3912928.pdb
REMARK                            x       y       z     vdW  Elec       q    Type
REMARK                         _______ _______ _______ _____ _____    ______ ____
ROOT
ATOM      1  C   LIG    1      -37.139  79.867  27.639  0.00  0.00    +0.149 A 
ATOM      2  N   LIG    1      -36.050  79.198  28.042  0.00  0.00    -0.160 NA
ATOM      3  N   LIG    1      -36.308  77.892  27.781  0.00  0.00    -0.218 N 
ATOM      4  C   LIG    1      -37.506  77.742  27.071  0.00  0.00    +0.129 A 
ATOM      5  C   LIG    1      -38.006  79.017  26.925  0.00  0.00    +0.078 A 
ENDROOT
BRANCH   3   6
ATOM      6  C   LIG    1      -35.405  76.899  28.265  0.00  0.00    +0.067 A 
ATOM      7  C   LIG    1      -35.218  76.682  29.635  0.00  0.00    +0.028 A 
ATOM      8  C   LIG    1      -34.315  75.708  30.076  0.00  0.00    +0.002 A 
ATOM      9  C   LIG    1      -33.585  74.957  29.158  0.00  0.00    +0.000 A 
ATOM     10  C   LIG    1      -33.744  75.184  27.793  0.00  0.00    +0.002 A 
ATOM     11  C   LIG    1      -34.642  76.156  27.345  0.00  0.00    +0.028 A 
ENDBRANCH   3   6
BRANCH   4  12
ATOM     12  N   LIG    1      -38.090  76.568  26.568  0.00  0.00    -0.266 N 
ATOM     13  H   LIG    1      -38.658  76.024  27.195  0.00  0.00    +0.157 HD
ATOM     14  C   LIG    1      -37.876  76.078  25.233  0.00  0.00    +0.251 C 
ATOM     15  O   LIG    1      -37.119  76.651  24.447  0.00  0.00    -0.270 OA
BRANCH  14  16
ATOM     16  C   LIG    1      -38.581  74.856  24.799  0.00  0.00    +0.056 A 
ATOM     17  C   LIG    1      -39.819  74.882  24.156  0.00  0.00    +0.054 A 
ATOM     18 CL   LIG    1      -40.560  76.314  23.543  0.00  0.00    -0.083 Cl
ATOM     19  C   LIG    1      -40.527  73.696  24.000  0.00  0.00    +0.041 A 
ATOM     20  C   LIG    1      -39.981  72.464  24.398  0.00  0.00    +0.052 A 
ATOM     21 CL   LIG    1      -41.067  71.119  24.300  0.00  0.00    -0.083 Cl
ATOM     22  C   LIG    1      -38.669  72.371  24.909  0.00  0.00    +0.022 A 
ATOM     23  C   LIG    1      -38.011  73.605  25.139  0.00  0.00    +0.026 A 
BRANCH  22  24
ATOM     24  C   LIG    1      -37.982  71.073  25.170  0.00  0.00    +0.107 A 
ATOM     25  C   LIG    1      -37.707  70.121  24.185  0.00  0.00    +0.149 A 
ATOM     26  F   LIG    1      -37.985  70.349  22.894  0.00  0.00    -0.203 F 
ATOM     27  C   LIG    1      -37.122  68.904  24.529  0.00  0.00    +0.042 A 
ATOM     28  C   LIG    1      -36.779  68.663  25.851  0.00  0.00    +0.023 A 
ATOM     29  C   LIG    1      -37.059  69.650  26.778  0.00  0.00    +0.111 A 
ATOM     30  N   LIG    1      -37.678  70.818  26.472  0.00  0.00    -0.252 NA
ENDBRANCH  22  24
ENDBRANCH  14  16
ENDBRANCH   4  12
BRANCH   1  32
ATOM     31  N   LIG    1      -37.015  82.163  27.048  0.00  0.00    -0.246 NA
ATOM     32  C   LIG    1      -37.356  81.284  27.917  0.00  0.00    +0.236 C 
BRANCH  32  33
ATOM     33  O   LIG    1      -37.905  81.554  29.115  0.00  0.00    -0.491 OA
ATOM     34  H   LIG    1      -38.455  82.347  29.098  0.00  0.00    +0.294 HD
ENDBRANCH  32  33
BRANCH  31  35
ATOM     35  C   LIG    1      -37.183  83.599  27.280  0.00  0.00    +0.179 C 
BRANCH  35  36
ATOM     36  C   LIG    1      -36.572  84.400  26.119  0.00  0.00    +0.161 C 
BRANCH  36  37
ATOM     37  O   LIG    1      -35.517  83.642  25.515  0.00  0.00    -0.388 OA
ATOM     38  H   LIG    1      -34.991  84.261  24.978  0.00  0.00    +0.210 HD
ENDBRANCH  36  37
BRANCH  36  39
ATOM     39  C   LIG    1      -37.627  84.802  25.074  0.00  0.00    +0.192 C 
BRANCH  39  41
ATOM     40  C   LIG    1      -38.722  83.010  23.943  0.00  0.00    +0.194 C 
ATOM     41  O   LIG    1      -37.666  83.959  23.923  0.00  0.00    -0.380 OA
ENDBRANCH  39  41
ENDBRANCH  36  39
ENDBRANCH  35  36
ENDBRANCH  31  35
ENDBRANCH   1  32
TORSDOF 11
ENDMDL
