MODEL 1
REMARK VINA RESULT:      -6.2      0.000      0.000
REMARK  Name = pdb/CHEMBL3903796.pdb
REMARK                            x       y       z     vdW  Elec       q    Type
REMARK                         _______ _______ _______ _____ _____    ______ ____
ROOT
ATOM      1  C   LIG    1      -40.373  73.374  23.912  0.00  0.00    +0.149 A 
ATOM      2  N   LIG    1      -40.761  74.652  24.063  0.00  0.00    -0.160 NA
ATOM      3  N   LIG    1      -39.655  75.316  24.482  0.00  0.00    -0.218 N 
ATOM      4  C   LIG    1      -38.628  74.425  24.827  0.00  0.00    +0.129 A 
ATOM      5  C   LIG    1      -39.048  73.196  24.378  0.00  0.00    +0.078 A 
ENDROOT
BRANCH   3   6
ATOM      6  C   LIG    1      -39.683  76.733  24.606  0.00  0.00    +0.067 A 
ATOM      7  C   LIG    1      -39.735  77.312  25.884  0.00  0.00    +0.028 A 
ATOM      8  C   LIG    1      -39.755  78.702  26.025  0.00  0.00    +0.002 A 
ATOM      9  C   LIG    1      -39.739  79.522  24.899  0.00  0.00    +0.000 A 
ATOM     10  C   LIG    1      -39.711  78.955  23.628  0.00  0.00    +0.002 A 
ATOM     11  C   LIG    1      -39.698  77.565  23.479  0.00  0.00    +0.028 A 
ENDBRANCH   3   6
BRANCH   4  12
ATOM     12  N   LIG    1      -37.453  74.722  25.530  0.00  0.00    -0.266 N 
ATOM     13  H   LIG    1      -36.676  75.092  25.023  0.00  0.00    +0.157 HD
ATOM     14  C   LIG    1      -37.344  74.666  26.967  0.00  0.00    +0.251 C 
ATOM     15  O   LIG    1      -38.318  74.367  27.660  0.00  0.00    -0.270 OA
BRANCH  14  16
ATOM     16  C   LIG    1      -36.072  75.067  27.597  0.00  0.00    +0.056 A 
ATOM     17  C   LIG    1      -35.074  74.167  27.955  0.00  0.00    +0.054 A 
ATOM     18 CL   LIG    1      -35.218  72.455  27.795  0.00  0.00    -0.083 Cl
ATOM     19  C   LIG    1      -33.890  74.641  28.520  0.00  0.00    +0.041 A 
ATOM     20  C   LIG    1      -33.689  76.011  28.746  0.00  0.00    +0.052 A 
ATOM     21 CL   LIG    1      -32.130  76.410  29.385  0.00  0.00    -0.083 Cl
ATOM     22  C   LIG    1      -34.684  76.956  28.430  0.00  0.00    +0.019 A 
ATOM     23  C   LIG    1      -35.871  76.437  27.834  0.00  0.00    +0.026 A 
BRANCH  22  24
ATOM     24  C   LIG    1      -34.602  78.426  28.658  0.00  0.00    +0.072 A 
ATOM     25  N   LIG    1      -34.419  79.168  27.533  0.00  0.00    -0.255 NA
ATOM     26  C   LIG    1      -34.404  80.519  27.644  0.00  0.00    +0.111 A 
ATOM     27  C   LIG    1      -34.557  81.194  28.840  0.00  0.00    +0.020 A 
ATOM     28  C   LIG    1      -34.737  80.440  29.987  0.00  0.00    +0.004 A 
ATOM     29  C   LIG    1      -34.775  79.048  29.894  0.00  0.00    +0.028 A 
ENDBRANCH  22  24
ENDBRANCH  14  16
ENDBRANCH   4  12
BRANCH   1  30
ATOM     30  C   LIG    1      -41.252  72.336  23.371  0.00  0.00    +0.236 C 
ATOM     31  N   LIG    1      -42.076  72.632  22.419  0.00  0.00    -0.246 NA
BRANCH  31  32
ATOM     32  C   LIG    1      -42.961  71.675  21.836  0.00  0.00    +0.109 C 
ATOM     33  C   LIG    1      -42.446  70.993  20.594  0.00  0.00    +0.029 C 
ATOM     34  C   LIG    1      -43.517  72.027  20.479  0.00  0.00    +0.029 C 
ENDBRANCH  31  32
BRANCH  30  35
ATOM     35  O   LIG    1      -41.104  71.119  23.932  0.00  0.00    -0.491 OA
ATOM     36  H   LIG    1      -41.200  71.145  24.890  0.00  0.00    +0.294 HD
ENDBRANCH  30  35
ENDBRANCH   1  30
TORSDOF 7
ENDMDL
MODEL 2
REMARK VINA RESULT:      -6.2     11.490     15.880
REMARK  Name = pdb/CHEMBL3903796.pdb
REMARK                            x       y       z     vdW  Elec       q    Type
REMARK                         _______ _______ _______ _____ _____    ______ ____
ROOT
ATOM      1  C   LIG    1      -27.176  76.320  32.010  0.00  0.00    +0.149 A 
ATOM      2  N   LIG    1      -26.164  76.043  31.171  0.00  0.00    -0.160 NA
ATOM      3  N   LIG    1      -25.082  76.674  31.693  0.00  0.00    -0.218 N 
ATOM      4  C   LIG    1      -25.453  77.544  32.728  0.00  0.00    +0.129 A 
ATOM      5  C   LIG    1      -26.769  77.253  32.994  0.00  0.00    +0.078 A 
ENDROOT
BRANCH   3   6
ATOM      6  C   LIG    1      -23.797  76.471  31.117  0.00  0.00    +0.067 A 
ATOM      7  C   LIG    1      -22.865  75.659  31.782  0.00  0.00    +0.028 A 
ATOM      8  C   LIG    1      -21.601  75.442  31.228  0.00  0.00    +0.002 A 
ATOM      9  C   LIG    1      -21.252  76.043  30.021  0.00  0.00    +0.000 A 
ATOM     10  C   LIG    1      -22.162  76.869  29.367  0.00  0.00    +0.002 A 
ATOM     11  C   LIG    1      -23.426  77.096  29.919  0.00  0.00    +0.028 A 
ENDBRANCH   3   6
BRANCH   4  12
ATOM     12  N   LIG    1      -24.662  78.537  33.320  0.00  0.00    -0.266 N 
ATOM     13  H   LIG    1      -24.813  79.489  33.054  0.00  0.00    +0.157 HD
ATOM     14  C   LIG    1      -23.743  78.289  34.404  0.00  0.00    +0.251 C 
ATOM     15  O   LIG    1      -23.627  77.159  34.883  0.00  0.00    -0.270 OA
BRANCH  14  16
ATOM     16  C   LIG    1      -23.014  79.430  34.991  0.00  0.00    +0.056 A 
ATOM     17  C   LIG    1      -21.647  79.631  34.837  0.00  0.00    +0.054 A 
ATOM     18 CL   LIG    1      -20.599  78.533  34.016  0.00  0.00    -0.083 Cl
ATOM     19  C   LIG    1      -21.048  80.754  35.404  0.00  0.00    +0.041 A 
ATOM     20  C   LIG    1      -21.798  81.685  36.141  0.00  0.00    +0.052 A 
ATOM     21 CL   LIG    1      -20.892  83.050  36.702  0.00  0.00    -0.083 Cl
ATOM     22  C   LIG    1      -23.179  81.506  36.351  0.00  0.00    +0.019 A 
ATOM     23  C   LIG    1      -23.760  80.358  35.737  0.00  0.00    +0.026 A 
BRANCH  22  24
ATOM     24  C   LIG    1      -24.068  82.401  37.143  0.00  0.00    +0.072 A 
ATOM     25  N   LIG    1      -25.220  82.760  36.515  0.00  0.00    -0.255 NA
ATOM     26  C   LIG    1      -26.119  83.515  37.193  0.00  0.00    +0.111 A 
ATOM     27  C   LIG    1      -25.932  83.952  38.491  0.00  0.00    +0.020 A 
ATOM     28  C   LIG    1      -24.757  83.593  39.129  0.00  0.00    +0.004 A 
ATOM     29  C   LIG    1      -23.826  82.800  38.457  0.00  0.00    +0.028 A 
ENDBRANCH  22  24
ENDBRANCH  14  16
ENDBRANCH   4  12
BRANCH   1  30
ATOM     30  C   LIG    1      -28.512  75.739  31.861  0.00  0.00    +0.236 C 
ATOM     31  N   LIG    1      -29.378  76.321  31.098  0.00  0.00    -0.246 NA
BRANCH  31  32
ATOM     32  C   LIG    1      -30.699  75.814  30.898  0.00  0.00    +0.109 C 
ATOM     33  C   LIG    1      -30.837  74.792  29.800  0.00  0.00    +0.029 C 
ATOM     34  C   LIG    1      -31.356  76.176  29.590  0.00  0.00    +0.029 C 
ENDBRANCH  31  32
BRANCH  30  35
ATOM     35  O   LIG    1      -28.714  74.599  32.554  0.00  0.00    -0.491 OA
ATOM     36  H   LIG    1      -27.963  74.373  33.111  0.00  0.00    +0.294 HD
ENDBRANCH  30  35
ENDBRANCH   1  30
TORSDOF 7
ENDMDL
MODEL 3
REMARK VINA RESULT:      -6.1      7.412     13.296
REMARK  Name = pdb/CHEMBL3903796.pdb
REMARK                            x       y       z     vdW  Elec       q    Type
REMARK                         _______ _______ _______ _____ _____    ______ ____
ROOT
ATOM      1  C   LIG    1      -31.708  87.122  30.228  0.00  0.00    +0.149 A 
ATOM      2  N   LIG    1      -32.723  87.895  29.804  0.00  0.00    -0.160 NA
ATOM      3  N   LIG    1      -33.742  87.038  29.545  0.00  0.00    -0.218 N 
ATOM      4  C   LIG    1      -33.306  85.706  29.574  0.00  0.00    +0.129 A 
ATOM      5  C   LIG    1      -32.037  85.751  30.098  0.00  0.00    +0.078 A 
ENDROOT
BRANCH   3   6
ATOM      6  C   LIG    1      -35.027  87.547  29.206  0.00  0.00    +0.067 A 
ATOM      7  C   LIG    1      -35.161  88.396  28.097  0.00  0.00    +0.028 A 
ATOM      8  C   LIG    1      -36.417  88.898  27.744  0.00  0.00    +0.002 A 
ATOM      9  C   LIG    1      -37.540  88.572  28.501  0.00  0.00    +0.000 A 
ATOM     10  C   LIG    1      -37.411  87.750  29.616  0.00  0.00    +0.002 A 
ATOM     11  C   LIG    1      -36.158  87.250  29.979  0.00  0.00    +0.028 A 
ENDBRANCH   3   6
BRANCH   4  12
ATOM     12  N   LIG    1      -33.999  84.580  29.112  0.00  0.00    -0.266 N 
ATOM     13  H   LIG    1      -33.845  84.279  28.172  0.00  0.00    +0.157 HD
ATOM     14  C   LIG    1      -34.809  83.736  29.956  0.00  0.00    +0.251 C 
ATOM     15  O   LIG    1      -34.912  83.967  31.162  0.00  0.00    -0.270 OA
BRANCH  14  16
ATOM     16  C   LIG    1      -35.436  82.537  29.366  0.00  0.00    +0.056 A 
ATOM     17  C   LIG    1      -36.811  82.373  29.239  0.00  0.00    +0.054 A 
ATOM     18 CL   LIG    1      -37.975  83.502  29.828  0.00  0.00    -0.083 Cl
ATOM     19  C   LIG    1      -37.313  81.217  28.642  0.00  0.00    +0.041 A 
ATOM     20  C   LIG    1      -36.457  80.207  28.176  0.00  0.00    +0.052 A 
ATOM     21 CL   LIG    1      -37.263  78.886  27.399  0.00  0.00    -0.083 Cl
ATOM     22  C   LIG    1      -35.059  80.315  28.313  0.00  0.00    +0.019 A 
ATOM     23  C   LIG    1      -34.582  81.520  28.908  0.00  0.00    +0.026 A 
BRANCH  22  24
ATOM     24  C   LIG    1      -34.056  79.297  27.895  0.00  0.00    +0.072 A 
ATOM     25  N   LIG    1      -33.373  79.604  26.759  0.00  0.00    -0.255 NA
ATOM     26  C   LIG    1      -32.391  78.765  26.347  0.00  0.00    +0.111 A 
ATOM     27  C   LIG    1      -32.043  77.604  27.011  0.00  0.00    +0.020 A 
ATOM     28  C   LIG    1      -32.743  77.287  28.164  0.00  0.00    +0.004 A 
ATOM     29  C   LIG    1      -33.744  78.146  28.617  0.00  0.00    +0.028 A 
ENDBRANCH  22  24
ENDBRANCH  14  16
ENDBRANCH   4  12
BRANCH   1  30
ATOM     30  C   LIG    1      -30.440  87.672  30.711  0.00  0.00    +0.236 C 
ATOM     31  N   LIG    1      -30.210  87.720  31.982  0.00  0.00    -0.246 NA
BRANCH  31  32
ATOM     32  C   LIG    1      -28.997  88.237  32.531  0.00  0.00    +0.109 C 
ATOM     33  C   LIG    1      -28.416  87.444  33.673  0.00  0.00    +0.029 C 
ATOM     34  C   LIG    1      -29.077  88.756  33.945  0.00  0.00    +0.029 C 
ENDBRANCH  31  32
BRANCH  30  35
ATOM     35  O   LIG    1      -29.594  88.080  29.743  0.00  0.00    -0.491 OA
ATOM     36  H   LIG    1      -28.689  87.797  29.907  0.00  0.00    +0.294 HD
ENDBRANCH  30  35
ENDBRANCH   1  30
TORSDOF 7
ENDMDL
MODEL 4
REMARK VINA RESULT:      -6.0      3.480      8.948
REMARK  Name = pdb/CHEMBL3903796.pdb
REMARK                            x       y       z     vdW  Elec       q    Type
REMARK                         _______ _______ _______ _____ _____    ______ ____
ROOT
ATOM      1  C   LIG    1      -33.088  73.809  28.903  0.00  0.00    +0.149 A 
ATOM      2  N   LIG    1      -32.653  75.075  28.788  0.00  0.00    -0.160 NA
ATOM      3  N   LIG    1      -33.673  75.754  28.206  0.00  0.00    -0.218 N 
ATOM      4  C   LIG    1      -34.661  74.878  27.734  0.00  0.00    +0.129 A 
ATOM      5  C   LIG    1      -34.337  73.650  28.257  0.00  0.00    +0.078 A 
ENDROOT
BRANCH   3   6
ATOM      6  C   LIG    1      -33.594  77.168  28.064  0.00  0.00    +0.067 A 
ATOM      7  C   LIG    1      -32.672  77.719  27.161  0.00  0.00    +0.028 A 
ATOM      8  C   LIG    1      -32.587  79.105  27.003  0.00  0.00    +0.002 A 
ATOM      9  C   LIG    1      -33.406  79.948  27.751  0.00  0.00    +0.000 A 
ATOM     10  C   LIG    1      -34.306  79.409  28.666  0.00  0.00    +0.002 A 
ATOM     11  C   LIG    1      -34.392  78.024  28.835  0.00  0.00    +0.028 A 
ENDBRANCH   3   6
BRANCH   4  12
ATOM     12  N   LIG    1      -35.718  75.185  26.867  0.00  0.00    -0.266 N 
ATOM     13  H   LIG    1      -35.621  74.956  25.899  0.00  0.00    +0.157 HD
ATOM     14  C   LIG    1      -37.000  75.677  27.309  0.00  0.00    +0.251 C 
ATOM     15  O   LIG    1      -37.232  75.832  28.509  0.00  0.00    -0.270 OA
BRANCH  14  16
ATOM     16  C   LIG    1      -38.058  75.900  26.306  0.00  0.00    +0.056 A 
ATOM     17  C   LIG    1      -38.548  77.158  25.972  0.00  0.00    +0.054 A 
ATOM     18 CL   LIG    1      -38.053  78.620  26.742  0.00  0.00    -0.083 Cl
ATOM     19  C   LIG    1      -39.530  77.275  24.989  0.00  0.00    +0.041 A 
ATOM     20  C   LIG    1      -40.045  76.144  24.335  0.00  0.00    +0.052 A 
ATOM     21 CL   LIG    1      -41.200  76.497  23.096  0.00  0.00    -0.083 Cl
ATOM     22  C   LIG    1      -39.602  74.848  24.664  0.00  0.00    +0.019 A 
ATOM     23  C   LIG    1      -38.582  74.769  25.657  0.00  0.00    +0.026 A 
BRANCH  22  24
ATOM     24  C   LIG    1      -40.099  73.575  24.070  0.00  0.00    +0.072 A 
ATOM     25  N   LIG    1      -39.287  72.501  24.266  0.00  0.00    -0.255 NA
ATOM     26  C   LIG    1      -39.699  71.289  23.819  0.00  0.00    +0.111 A 
ATOM     27  C   LIG    1      -40.898  71.077  23.165  0.00  0.00    +0.020 A 
ATOM     28  C   LIG    1      -41.721  72.171  22.960  0.00  0.00    +0.004 A 
ATOM     29  C   LIG    1      -41.328  73.425  23.428  0.00  0.00    +0.028 A 
ENDBRANCH  22  24
ENDBRANCH  14  16
ENDBRANCH   4  12
BRANCH   1  30
ATOM     30  C   LIG    1      -32.318  72.763  29.580  0.00  0.00    +0.236 C 
ATOM     31  N   LIG    1      -32.893  71.646  29.887  0.00  0.00    -0.246 NA
BRANCH  31  32
ATOM     32  C   LIG    1      -32.209  70.578  30.544  0.00  0.00    +0.109 C 
ATOM     33  C   LIG    1      -31.832  69.416  29.661  0.00  0.00    +0.029 C 
ATOM     34  C   LIG    1      -32.955  69.270  30.634  0.00  0.00    +0.029 C 
ENDBRANCH  31  32
BRANCH  30  35
ATOM     35  O   LIG    1      -31.027  73.074  29.817  0.00  0.00    -0.491 OA
ATOM     36  H   LIG    1      -30.597  72.431  30.390  0.00  0.00    +0.294 HD
ENDBRANCH  30  35
ENDBRANCH   1  30
TORSDOF 7
ENDMDL
MODEL 5
REMARK VINA RESULT:      -5.9     13.782     17.609
REMARK  Name = pdb/CHEMBL3903796.pdb
REMARK                            x       y       z     vdW  Elec       q    Type
REMARK                         _______ _______ _______ _____ _____    ______ ____
ROOT
ATOM      1  C   LIG    1      -24.040  78.614  34.468  0.00  0.00    +0.149 A 
ATOM      2  N   LIG    1      -23.004  78.555  33.613  0.00  0.00    -0.160 NA
ATOM      3  N   LIG    1      -23.250  77.478  32.826  0.00  0.00    -0.218 N 
ATOM      4  C   LIG    1      -24.312  76.713  33.329  0.00  0.00    +0.129 A 
ATOM      5  C   LIG    1      -24.876  77.482  34.318  0.00  0.00    +0.078 A 
ENDROOT
BRANCH   3   6
ATOM      6  C   LIG    1      -22.408  77.207  31.711  0.00  0.00    +0.067 A 
ATOM      7  C   LIG    1      -21.019  77.136  31.898  0.00  0.00    +0.028 A 
ATOM      8  C   LIG    1      -20.177  76.863  30.816  0.00  0.00    +0.002 A 
ATOM      9  C   LIG    1      -20.711  76.677  29.543  0.00  0.00    +0.000 A 
ATOM     10  C   LIG    1      -22.086  76.769  29.345  0.00  0.00    +0.002 A 
ATOM     11  C   LIG    1      -22.933  77.049  30.422  0.00  0.00    +0.028 A 
ENDBRANCH   3   6
BRANCH   4  12
ATOM     12  N   LIG    1      -24.680  75.419  32.939  0.00  0.00    -0.266 N 
ATOM     13  H   LIG    1      -24.384  74.650  33.505  0.00  0.00    +0.157 HD
ATOM     14  C   LIG    1      -25.587  75.136  31.854  0.00  0.00    +0.251 C 
ATOM     15  O   LIG    1      -26.110  76.053  31.217  0.00  0.00    -0.270 OA
BRANCH  14  16
ATOM     16  C   LIG    1      -25.952  73.732  31.583  0.00  0.00    +0.056 A 
ATOM     17  C   LIG    1      -27.193  73.187  31.893  0.00  0.00    +0.054 A 
ATOM     18 CL   LIG    1      -28.444  74.045  32.715  0.00  0.00    -0.083 Cl
ATOM     19  C   LIG    1      -27.459  71.856  31.573  0.00  0.00    +0.041 A 
ATOM     20  C   LIG    1      -26.493  71.049  30.952  0.00  0.00    +0.052 A 
ATOM     21 CL   LIG    1      -27.035  69.450  30.567  0.00  0.00    -0.083 Cl
ATOM     22  C   LIG    1      -25.212  71.549  30.648  0.00  0.00    +0.019 A 
ATOM     23  C   LIG    1      -24.984  72.920  30.970  0.00  0.00    +0.026 A 
BRANCH  22  24
ATOM     24  C   LIG    1      -24.096  70.782  30.028  0.00  0.00    +0.072 A 
ATOM     25  N   LIG    1      -23.132  70.375  30.898  0.00  0.00    -0.255 NA
ATOM     26  C   LIG    1      -22.116  69.611  30.427  0.00  0.00    +0.111 A 
ATOM     27  C   LIG    1      -21.994  69.222  29.106  0.00  0.00    +0.020 A 
ATOM     28  C   LIG    1      -22.971  69.641  28.219  0.00  0.00    +0.004 A 
ATOM     29  C   LIG    1      -24.036  70.413  28.685  0.00  0.00    +0.028 A 
ENDBRANCH  22  24
ENDBRANCH  14  16
ENDBRANCH   4  12
BRANCH   1  30
ATOM     30  C   LIG    1      -24.213  79.703  35.431  0.00  0.00    +0.236 C 
ATOM     31  N   LIG    1      -23.172  80.310  35.900  0.00  0.00    -0.246 NA
BRANCH  31  32
ATOM     32  C   LIG    1      -23.258  81.384  36.838  0.00  0.00    +0.109 C 
ATOM     33  C   LIG    1      -23.287  82.765  36.235  0.00  0.00    +0.029 C 
ATOM     34  C   LIG    1      -22.053  82.286  36.926  0.00  0.00    +0.029 C 
ENDBRANCH  31  32
BRANCH  30  35
ATOM     35  O   LIG    1      -25.494  79.989  35.739  0.00  0.00    -0.491 OA
ATOM     36  H   LIG    1      -25.594  80.876  36.099  0.00  0.00    +0.294 HD
ENDBRANCH  30  35
ENDBRANCH   1  30
TORSDOF 7
ENDMDL
MODEL 6
REMARK VINA RESULT:      -5.9     16.687     20.474
REMARK  Name = pdb/CHEMBL3903796.pdb
REMARK                            x       y       z     vdW  Elec       q    Type
REMARK                         _______ _______ _______ _____ _____    ______ ____
ROOT
ATOM      1  C   LIG    1      -24.752  82.864  37.154  0.00  0.00    +0.149 A 
ATOM      2  N   LIG    1      -23.805  83.138  38.068  0.00  0.00    -0.160 NA
ATOM      3  N   LIG    1      -22.713  82.438  37.674  0.00  0.00    -0.218 N 
ATOM      4  C   LIG    1      -23.030  81.535  36.649  0.00  0.00    +0.129 A 
ATOM      5  C   LIG    1      -24.303  81.869  36.253  0.00  0.00    +0.078 A 
ENDROOT
BRANCH   3   6
ATOM      6  C   LIG    1      -21.474  82.614  38.353  0.00  0.00    +0.067 A 
ATOM      7  C   LIG    1      -20.652  83.700  38.015  0.00  0.00    +0.028 A 
ATOM      8  C   LIG    1      -19.437  83.893  38.677  0.00  0.00    +0.002 A 
ATOM      9  C   LIG    1      -19.026  83.000  39.665  0.00  0.00    +0.000 A 
ATOM     10  C   LIG    1      -19.825  81.907  39.988  0.00  0.00    +0.002 A 
ATOM     11  C   LIG    1      -21.039  81.704  39.325  0.00  0.00    +0.028 A 
ENDBRANCH   3   6
BRANCH   4  12
ATOM     12  N   LIG    1      -22.237  80.482  36.174  0.00  0.00    -0.266 N 
ATOM     13  H   LIG    1      -22.547  79.545  36.330  0.00  0.00    +0.157 HD
ATOM     14  C   LIG    1      -21.074  80.668  35.342  0.00  0.00    +0.251 C 
ATOM     15  O   LIG    1      -20.731  81.796  34.985  0.00  0.00    -0.270 OA
BRANCH  14  16
ATOM     16  C   LIG    1      -20.358  79.476  34.847  0.00  0.00    +0.056 A 
ATOM     17  C   LIG    1      -19.279  78.898  35.508  0.00  0.00    +0.054 A 
ATOM     18 CL   LIG    1      -18.572  79.542  36.943  0.00  0.00    -0.083 Cl
ATOM     19  C   LIG    1      -18.683  77.754  34.980  0.00  0.00    +0.041 A 
ATOM     20  C   LIG    1      -19.143  77.177  33.786  0.00  0.00    +0.052 A 
ATOM     21 CL   LIG    1      -18.324  75.720  33.333  0.00  0.00    -0.083 Cl
ATOM     22  C   LIG    1      -20.212  77.745  33.067  0.00  0.00    +0.019 A 
ATOM     23  C   LIG    1      -20.811  78.901  33.648  0.00  0.00    +0.026 A 
BRANCH  22  24
ATOM     24  C   LIG    1      -20.761  77.249  31.775  0.00  0.00    +0.072 A 
ATOM     25  N   LIG    1      -22.052  76.822  31.831  0.00  0.00    -0.255 NA
ATOM     26  C   LIG    1      -22.651  76.420  30.683  0.00  0.00    +0.111 A 
ATOM     27  C   LIG    1      -22.025  76.410  29.451  0.00  0.00    +0.020 A 
ATOM     28  C   LIG    1      -20.710  76.838  29.394  0.00  0.00    +0.004 A 
ATOM     29  C   LIG    1      -20.078  77.274  30.559  0.00  0.00    +0.028 A 
ENDBRANCH  22  24
ENDBRANCH  14  16
ENDBRANCH   4  12
BRANCH   1  30
ATOM     30  C   LIG    1      -26.067  83.507  37.156  0.00  0.00    +0.236 C 
ATOM     31  N   LIG    1      -26.334  84.414  36.274  0.00  0.00    -0.246 NA
BRANCH  31  32
ATOM     32  C   LIG    1      -27.595  85.083  36.209  0.00  0.00    +0.109 C 
ATOM     33  C   LIG    1      -28.414  84.795  34.977  0.00  0.00    +0.029 C 
ATOM     34  C   LIG    1      -27.739  86.120  35.123  0.00  0.00    +0.029 C 
ENDBRANCH  31  32
BRANCH  30  35
ATOM     35  O   LIG    1      -26.912  83.065  38.110  0.00  0.00    -0.491 OA
ATOM     36  H   LIG    1      -26.600  83.272  38.997  0.00  0.00    +0.294 HD
ENDBRANCH  30  35
ENDBRANCH   1  30
TORSDOF 7
ENDMDL
MODEL 7
REMARK VINA RESULT:      -5.9      3.646      8.906
REMARK  Name = pdb/CHEMBL3903796.pdb
REMARK                            x       y       z     vdW  Elec       q    Type
REMARK                         _______ _______ _______ _____ _____    ______ ____
ROOT
ATOM      1  C   LIG    1      -31.970  73.943  29.857  0.00  0.00    +0.149 A 
ATOM      2  N   LIG    1      -31.713  75.195  29.441  0.00  0.00    -0.160 NA
ATOM      3  N   LIG    1      -32.797  75.560  28.713  0.00  0.00    -0.218 N 
ATOM      4  C   LIG    1      -33.636  74.465  28.465  0.00  0.00    +0.129 A 
ATOM      5  C   LIG    1      -33.162  73.456  29.269  0.00  0.00    +0.078 A 
ENDROOT
BRANCH   3   6
ATOM      6  C   LIG    1      -32.913  76.896  28.235  0.00  0.00    +0.067 A 
ATOM      7  C   LIG    1      -33.735  77.803  28.920  0.00  0.00    +0.028 A 
ATOM      8  C   LIG    1      -33.855  79.121  28.470  0.00  0.00    +0.002 A 
ATOM      9  C   LIG    1      -33.171  79.538  27.330  0.00  0.00    +0.000 A 
ATOM     10  C   LIG    1      -32.372  78.637  26.632  0.00  0.00    +0.002 A 
ATOM     11  C   LIG    1      -32.253  77.316  27.072  0.00  0.00    +0.028 A 
ENDBRANCH   3   6
BRANCH   4  12
ATOM     12  N   LIG    1      -34.695  74.401  27.550  0.00  0.00    -0.266 N 
ATOM     13  H   LIG    1      -34.491  74.156  26.603  0.00  0.00    +0.157 HD
ATOM     14  C   LIG    1      -36.084  74.520  27.922  0.00  0.00    +0.251 C 
ATOM     15  O   LIG    1      -36.407  74.666  29.102  0.00  0.00    -0.270 OA
BRANCH  14  16
ATOM     16  C   LIG    1      -37.113  74.367  26.876  0.00  0.00    +0.056 A 
ATOM     17  C   LIG    1      -37.474  73.142  26.326  0.00  0.00    +0.054 A 
ATOM     18 CL   LIG    1      -36.711  71.646  26.722  0.00  0.00    -0.083 Cl
ATOM     19  C   LIG    1      -38.479  73.090  25.361  0.00  0.00    +0.041 A 
ATOM     20  C   LIG    1      -39.130  74.255  24.924  0.00  0.00    +0.052 A 
ATOM     21 CL   LIG    1      -40.399  73.980  23.779  0.00  0.00    -0.083 Cl
ATOM     22  C   LIG    1      -38.775  75.521  25.430  0.00  0.00    +0.019 A 
ATOM     23  C   LIG    1      -37.759  75.532  26.430  0.00  0.00    +0.026 A 
BRANCH  22  24
ATOM     24  C   LIG    1      -39.363  76.826  25.017  0.00  0.00    +0.072 A 
ATOM     25  N   LIG    1      -40.032  77.486  26.001  0.00  0.00    -0.255 NA
ATOM     26  C   LIG    1      -40.537  78.714  25.729  0.00  0.00    +0.111 A 
ATOM     27  C   LIG    1      -40.421  79.339  24.502  0.00  0.00    +0.020 A 
ATOM     28  C   LIG    1      -39.747  78.665  23.498  0.00  0.00    +0.004 A 
ATOM     29  C   LIG    1      -39.201  77.408  23.760  0.00  0.00    +0.028 A 
ENDBRANCH  22  24
ENDBRANCH  14  16
ENDBRANCH   4  12
BRANCH   1  30
ATOM     30  C   LIG    1      -31.085  73.211  30.765  0.00  0.00    +0.236 C 
ATOM     31  N   LIG    1      -30.563  72.091  30.382  0.00  0.00    -0.246 NA
BRANCH  31  32
ATOM     32  C   LIG    1      -29.688  71.322  31.208  0.00  0.00    +0.109 C 
ATOM     33  C   LIG    1      -28.223  71.646  31.070  0.00  0.00    +0.029 C 
ATOM     34  C   LIG    1      -28.758  70.378  30.489  0.00  0.00    +0.029 C 
ENDBRANCH  31  32
BRANCH  30  35
ATOM     35  O   LIG    1      -30.882  73.805  31.959  0.00  0.00    -0.491 OA
ATOM     36  H   LIG    1      -30.964  73.187  32.692  0.00  0.00    +0.294 HD
ENDBRANCH  30  35
ENDBRANCH   1  30
TORSDOF 7
ENDMDL
MODEL 8
REMARK VINA RESULT:      -5.8      3.557      8.811
REMARK  Name = pdb/CHEMBL3903796.pdb
REMARK                            x       y       z     vdW  Elec       q    Type
REMARK                         _______ _______ _______ _____ _____    ______ ____
ROOT
ATOM      1  C   LIG    1      -38.284  76.743  25.843  0.00  0.00    +0.149 A 
ATOM      2  N   LIG    1      -39.345  76.469  25.065  0.00  0.00    -0.160 NA
ATOM      3  N   LIG    1      -39.261  75.142  24.798  0.00  0.00    -0.218 N 
ATOM      4  C   LIG    1      -38.025  74.620  25.204  0.00  0.00    +0.129 A 
ATOM      5  C   LIG    1      -37.439  75.613  25.951  0.00  0.00    +0.078 A 
ENDROOT
BRANCH   3   6
ATOM      6  C   LIG    1      -40.318  74.490  24.104  0.00  0.00    +0.067 A 
ATOM      7  C   LIG    1      -40.265  73.100  23.918  0.00  0.00    +0.028 A 
ATOM      8  C   LIG    1      -41.299  72.441  23.246  0.00  0.00    +0.002 A 
ATOM      9  C   LIG    1      -42.379  73.162  22.743  0.00  0.00    +0.000 A 
ATOM     10  C   LIG    1      -42.427  74.544  22.903  0.00  0.00    +0.002 A 
ATOM     11  C   LIG    1      -41.394  75.210  23.568  0.00  0.00    +0.028 A 
ENDBRANCH   3   6
BRANCH   4  12
ATOM     12  N   LIG    1      -37.483  73.372  24.868  0.00  0.00    -0.266 N 
ATOM     13  H   LIG    1      -36.944  73.298  24.031  0.00  0.00    +0.157 HD
ATOM     14  C   LIG    1      -37.530  72.219  25.734  0.00  0.00    +0.251 C 
ATOM     15  O   LIG    1      -38.046  72.293  26.850  0.00  0.00    -0.270 OA
BRANCH  14  16
ATOM     16  C   LIG    1      -36.863  70.977  25.297  0.00  0.00    +0.056 A 
ATOM     17  C   LIG    1      -35.740  70.447  25.922  0.00  0.00    +0.054 A 
ATOM     18 CL   LIG    1      -34.918  71.208  27.235  0.00  0.00    -0.083 Cl
ATOM     19  C   LIG    1      -35.194  69.251  25.458  0.00  0.00    +0.041 A 
ATOM     20  C   LIG    1      -35.750  68.575  24.360  0.00  0.00    +0.052 A 
ATOM     21 CL   LIG    1      -34.979  67.072  23.980  0.00  0.00    -0.083 Cl
ATOM     22  C   LIG    1      -36.867  69.091  23.676  0.00  0.00    +0.019 A 
ATOM     23  C   LIG    1      -37.411  70.303  24.193  0.00  0.00    +0.026 A 
BRANCH  22  24
ATOM     24  C   LIG    1      -37.519  68.487  22.480  0.00  0.00    +0.072 A 
ATOM     25  N   LIG    1      -38.427  67.514  22.758  0.00  0.00    -0.255 NA
ATOM     26  C   LIG    1      -39.118  66.961  21.731  0.00  0.00    +0.111 A 
ATOM     27  C   LIG    1      -38.950  67.323  20.408  0.00  0.00    +0.020 A 
ATOM     28  C   LIG    1      -38.020  68.309  20.124  0.00  0.00    +0.004 A 
ATOM     29  C   LIG    1      -37.312  68.906  21.166  0.00  0.00    +0.028 A 
ENDBRANCH  22  24
ENDBRANCH  14  16
ENDBRANCH   4  12
BRANCH   1  30
ATOM     30  C   LIG    1      -38.057  78.061  26.440  0.00  0.00    +0.236 C 
ATOM     31  N   LIG    1      -37.039  78.241  27.218  0.00  0.00    -0.246 NA
BRANCH  31  32
ATOM     32  C   LIG    1      -36.749  79.496  27.835  0.00  0.00    +0.109 C 
ATOM     33  C   LIG    1      -35.284  79.833  27.950  0.00  0.00    +0.029 C 
ATOM     34  C   LIG    1      -36.049  79.432  29.169  0.00  0.00    +0.029 C 
ENDBRANCH  31  32
BRANCH  30  35
ATOM     35  O   LIG    1      -38.962  79.001  26.099  0.00  0.00    -0.491 OA
ATOM     36  H   LIG    1      -39.756  78.955  26.641  0.00  0.00    +0.294 HD
ENDBRANCH  30  35
ENDBRANCH   1  30
TORSDOF 7
ENDMDL
MODEL 9
REMARK VINA RESULT:      -5.8      3.828      8.885
REMARK  Name = pdb/CHEMBL3903796.pdb
REMARK                            x       y       z     vdW  Elec       q    Type
REMARK                         _______ _______ _______ _____ _____    ______ ____
ROOT
ATOM      1  C   LIG    1      -36.498  76.733  26.925  0.00  0.00    +0.149 A 
ATOM      2  N   LIG    1      -37.541  77.383  26.379  0.00  0.00    -0.160 NA
ATOM      3  N   LIG    1      -38.281  76.425  25.769  0.00  0.00    -0.218 N 
ATOM      4  C   LIG    1      -37.592  75.204  25.721  0.00  0.00    +0.129 A 
ATOM      5  C   LIG    1      -36.499  75.373  26.535  0.00  0.00    +0.078 A 
ENDROOT
BRANCH   3   6
ATOM      6  C   LIG    1      -39.545  76.757  25.204  0.00  0.00    +0.067 A 
ATOM      7  C   LIG    1      -40.713  76.520  25.943  0.00  0.00    +0.028 A 
ATOM      8  C   LIG    1      -41.962  76.847  25.408  0.00  0.00    +0.002 A 
ATOM      9  C   LIG    1      -42.055  77.396  24.131  0.00  0.00    +0.000 A 
ATOM     10  C   LIG    1      -40.902  77.612  23.382  0.00  0.00    +0.002 A 
ATOM     11  C   LIG    1      -39.650  77.281  23.909  0.00  0.00    +0.028 A 
ENDBRANCH   3   6
BRANCH   4  12
ATOM     12  N   LIG    1      -37.923  74.077  24.957  0.00  0.00    -0.266 N 
ATOM     13  H   LIG    1      -37.416  73.910  24.112  0.00  0.00    +0.157 HD
ATOM     14  C   LIG    1      -38.848  73.059  25.391  0.00  0.00    +0.251 C 
ATOM     15  O   LIG    1      -39.388  73.131  26.496  0.00  0.00    -0.270 OA
BRANCH  14  16
ATOM     16  C   LIG    1      -39.063  71.882  24.527  0.00  0.00    +0.056 A 
ATOM     17  C   LIG    1      -40.170  71.729  23.699  0.00  0.00    +0.054 A 
ATOM     18 CL   LIG    1      -41.484  72.845  23.631  0.00  0.00    -0.083 Cl
ATOM     19  C   LIG    1      -40.275  70.595  22.894  0.00  0.00    +0.041 A 
ATOM     20  C   LIG    1      -39.289  69.596  22.911  0.00  0.00    +0.052 A 
ATOM     21 CL   LIG    1      -39.559  68.305  21.790  0.00  0.00    -0.083 Cl
ATOM     22  C   LIG    1      -38.168  69.693  23.758  0.00  0.00    +0.019 A 
ATOM     23  C   LIG    1      -38.083  70.877  24.549  0.00  0.00    +0.026 A 
BRANCH  22  24
ATOM     24  C   LIG    1      -37.080  68.684  23.892  0.00  0.00    +0.072 A 
ATOM     25  N   LIG    1      -36.287  68.553  22.794  0.00  0.00    -0.255 NA
ATOM     26  C   LIG    1      -35.230  67.706  22.858  0.00  0.00    +0.111 A 
ATOM     27  C   LIG    1      -34.910  66.957  23.974  0.00  0.00    +0.020 A 
ATOM     28  C   LIG    1      -35.721  67.085  25.089  0.00  0.00    +0.004 A 
ATOM     29  C   LIG    1      -36.803  67.965  25.054  0.00  0.00    +0.028 A 
ENDBRANCH  22  24
ENDBRANCH  14  16
ENDBRANCH   4  12
BRANCH   1  30
ATOM     30  C   LIG    1      -35.502  77.397  27.768  0.00  0.00    +0.236 C 
ATOM     31  N   LIG    1      -34.380  77.777  27.250  0.00  0.00    -0.246 NA
BRANCH  31  32
ATOM     32  C   LIG    1      -33.361  78.434  28.006  0.00  0.00    +0.109 C 
ATOM     33  C   LIG    1      -32.257  79.058  27.192  0.00  0.00    +0.029 C 
ATOM     34  C   LIG    1      -31.991  77.805  27.959  0.00  0.00    +0.029 C 
ENDBRANCH  31  32
BRANCH  30  35
ATOM     35  O   LIG    1      -35.872  77.567  29.054  0.00  0.00    -0.491 OA
ATOM     36  H   LIG    1      -36.823  77.480  29.174  0.00  0.00    +0.294 HD
ENDBRANCH  30  35
ENDBRANCH   1  30
TORSDOF 7
ENDMDL
