MODEL 1
REMARK VINA RESULT:      -6.0      0.000      0.000
REMARK  Name = pdb/CHEMBL3676078.pdb
REMARK                            x       y       z     vdW  Elec       q    Type
REMARK                         _______ _______ _______ _____ _____    ______ ____
ROOT
ATOM      1  C   LIG    1      -18.925  85.256  12.704  0.00  0.00    +0.100 A 
ATOM      2  C   LIG    1      -19.225  83.923  12.912  0.00  0.00    +0.170 A 
ATOM      3  N   LIG    1      -19.972  83.274  13.874  0.00  0.00    -0.212 NA
ATOM      4  C   LIG    1      -20.089  81.963  13.795  0.00  0.00    +0.126 A 
ATOM      5  C   LIG    1      -19.423  81.185  12.680  0.00  0.00    +0.063 A 
ATOM      6  C   LIG    1      -18.689  81.859  11.793  0.00  0.00    +0.118 A 
ATOM      7  N   LIG    1      -18.580  83.230  11.886  0.00  0.00    -0.221 N 
ATOM      8  N   LIG    1      -17.893  84.047  11.059  0.00  0.00    -0.173 NA
ATOM      9  C   LIG    1      -18.103  85.268  11.560  0.00  0.00    +0.150 A 
ENDROOT
BRANCH   4  10
ATOM     10  N   LIG    1      -20.829  81.284  14.761  0.00  0.00    -0.303 N 
ATOM     11  C   LIG    1      -22.048  81.788  15.415  0.00  0.00    +0.107 C 
ATOM     12  C   LIG    1      -22.341  80.782  16.534  0.00  0.00    +0.029 C 
ATOM     13  C   LIG    1      -21.685  79.498  16.051  0.00  0.00    +0.027 C 
ATOM     14  C   LIG    1      -20.412  79.997  15.348  0.00  0.00    +0.101 C 
BRANCH  11  15
ATOM     15  C   LIG    1      -23.213  81.932  14.459  0.00  0.00    -0.006 A 
ATOM     16  C   LIG    1      -23.198  82.907  13.449  0.00  0.00    +0.046 A 
ATOM     17  C   LIG    1      -24.242  82.957  12.534  0.00  0.00    +0.142 A 
ATOM     18  F   LIG    1      -24.230  83.861  11.546  0.00  0.00    -0.204 F 
ATOM     19  C   LIG    1      -25.282  82.055  12.650  0.00  0.00    +0.149 A 
ATOM     20  N   LIG    1      -25.347  81.117  13.622  0.00  0.00    -0.260 NA
ATOM     21  C   LIG    1      -24.318  81.079  14.499  0.00  0.00    +0.116 A 
ENDBRANCH  11  15
BRANCH  14  22
ATOM     22  C   LIG    1      -19.245  80.187  16.336  0.00  0.00    +0.178 C 
BRANCH  22  23
ATOM     23  O   LIG    1      -19.091  79.056  17.189  0.00  0.00    -0.393 OA
ATOM     24  H   LIG    1      -19.955  78.857  17.588  0.00  0.00    +0.209 HD
ENDBRANCH  22  23
ENDBRANCH  14  22
ENDBRANCH   4  10
BRANCH   1  27
ATOM     25  N   LIG    1      -20.528  86.291  14.128  0.00  0.00    -0.300 N 
ATOM     26  H   LIG    1      -21.003  85.394  14.074  0.00  0.00    +0.150 HD
ATOM     27  C   LIG    1      -19.325  86.418  13.467  0.00  0.00    +0.250 C 
ATOM     28  O   LIG    1      -18.648  87.426  13.524  0.00  0.00    -0.270 OA
BRANCH  25  30
ATOM     29  C   LIG    1      -21.842  86.791  16.124  0.00  0.00    +0.037 C 
ATOM     30  C   LIG    1      -21.047  87.380  14.959  0.00  0.00    +0.174 C 
BRANCH  30  31
ATOM     31  C   LIG    1      -21.878  88.453  14.198  0.00  0.00    +0.407 C 
ATOM     32  F   LIG    1      -21.115  89.448  13.691  0.00  0.00    -0.169 F 
ATOM     33  F   LIG    1      -22.806  89.011  15.011  0.00  0.00    -0.169 F 
ATOM     34  F   LIG    1      -22.550  87.916  13.150  0.00  0.00    -0.169 F 
ENDBRANCH  30  31
ENDBRANCH  25  30
ENDBRANCH   1  27
TORSDOF 7
ENDMDL
MODEL 2
REMARK VINA RESULT:      -5.9      2.441      4.022
REMARK  Name = pdb/CHEMBL3676078.pdb
REMARK                            x       y       z     vdW  Elec       q    Type
REMARK                         _______ _______ _______ _____ _____    ______ ____
ROOT
ATOM      1  C   LIG    1      -18.753  85.067  13.189  0.00  0.00    +0.100 A 
ATOM      2  C   LIG    1      -19.134  83.760  13.429  0.00  0.00    +0.170 A 
ATOM      3  N   LIG    1      -20.142  83.208  14.193  0.00  0.00    -0.212 NA
ATOM      4  C   LIG    1      -20.265  81.895  14.210  0.00  0.00    +0.126 A 
ATOM      5  C   LIG    1      -19.327  81.012  13.416  0.00  0.00    +0.063 A 
ATOM      6  C   LIG    1      -18.352  81.597  12.718  0.00  0.00    +0.118 A 
ATOM      7  N   LIG    1      -18.239  82.970  12.705  0.00  0.00    -0.221 N 
ATOM      8  N   LIG    1      -17.324  83.703  12.036  0.00  0.00    -0.173 NA
ATOM      9  C   LIG    1      -17.638  84.968  12.335  0.00  0.00    +0.150 A 
ENDROOT
BRANCH   4  10
ATOM     10  N   LIG    1      -21.267  81.313  14.983  0.00  0.00    -0.303 N 
ATOM     11  C   LIG    1      -21.620  79.883  14.990  0.00  0.00    +0.107 C 
ATOM     12  C   LIG    1      -22.906  79.796  15.821  0.00  0.00    +0.029 C 
ATOM     13  C   LIG    1      -22.838  81.016  16.726  0.00  0.00    +0.027 C 
ATOM     14  C   LIG    1      -22.199  82.087  15.825  0.00  0.00    +0.101 C 
BRANCH  11  15
ATOM     15  C   LIG    1      -20.519  79.007  15.549  0.00  0.00    -0.006 A 
ATOM     16  C   LIG    1      -20.240  77.754  14.982  0.00  0.00    +0.046 A 
ATOM     17  C   LIG    1      -19.169  77.012  15.462  0.00  0.00    +0.142 A 
ATOM     18  F   LIG    1      -18.869  75.827  14.914  0.00  0.00    -0.204 F 
ATOM     19  C   LIG    1      -18.411  77.518  16.500  0.00  0.00    +0.149 A 
ATOM     20  N   LIG    1      -18.661  78.709  17.090  0.00  0.00    -0.260 NA
ATOM     21  C   LIG    1      -19.704  79.420  16.604  0.00  0.00    +0.116 A 
ENDBRANCH  11  15
BRANCH  14  22
ATOM     22  C   LIG    1      -23.249  82.819  14.967  0.00  0.00    +0.178 C 
BRANCH  22  23
ATOM     23  O   LIG    1      -22.884  84.177  14.739  0.00  0.00    -0.393 OA
ATOM     24  H   LIG    1      -22.177  84.195  14.072  0.00  0.00    +0.209 HD
ENDBRANCH  22  23
ENDBRANCH  14  22
ENDBRANCH   4  10
BRANCH   1  27
ATOM     25  N   LIG    1      -20.533  86.153  14.339  0.00  0.00    -0.300 N 
ATOM     26  H   LIG    1      -20.892  85.210  14.463  0.00  0.00    +0.150 HD
ATOM     27  C   LIG    1      -19.327  86.297  13.688  0.00  0.00    +0.250 C 
ATOM     28  O   LIG    1      -18.782  87.375  13.548  0.00  0.00    -0.270 OA
BRANCH  25  30
ATOM     29  C   LIG    1      -21.749  86.944  16.303  0.00  0.00    +0.037 C 
ATOM     30  C   LIG    1      -21.219  87.311  14.917  0.00  0.00    +0.174 C 
BRANCH  30  31
ATOM     31  C   LIG    1      -22.340  87.925  14.032  0.00  0.00    +0.407 C 
ATOM     32  F   LIG    1      -23.203  86.997  13.558  0.00  0.00    -0.169 F 
ATOM     33  F   LIG    1      -21.814  88.584  12.972  0.00  0.00    -0.169 F 
ATOM     34  F   LIG    1      -23.087  88.824  14.719  0.00  0.00    -0.169 F 
ENDBRANCH  30  31
ENDBRANCH  25  30
ENDBRANCH   1  27
TORSDOF 7
ENDMDL
MODEL 3
REMARK VINA RESULT:      -5.8     16.583     19.741
REMARK  Name = pdb/CHEMBL3676078.pdb
REMARK                            x       y       z     vdW  Elec       q    Type
REMARK                         _______ _______ _______ _____ _____    ______ ____
ROOT
ATOM      1  C   LIG    1      -33.805  66.991  15.469  0.00  0.00    +0.100 A 
ATOM      2  C   LIG    1      -32.988  67.408  16.504  0.00  0.00    +0.170 A 
ATOM      3  N   LIG    1      -32.055  68.419  16.606  0.00  0.00    -0.212 NA
ATOM      4  C   LIG    1      -31.435  68.582  17.758  0.00  0.00    +0.126 A 
ATOM      5  C   LIG    1      -31.734  67.686  18.940  0.00  0.00    +0.063 A 
ATOM      6  C   LIG    1      -32.624  66.705  18.778  0.00  0.00    +0.118 A 
ATOM      7  N   LIG    1      -33.268  66.550  17.570  0.00  0.00    -0.221 N 
ATOM      8  N   LIG    1      -34.201  65.624  17.260  0.00  0.00    -0.173 NA
ATOM      9  C   LIG    1      -34.518  65.894  15.990  0.00  0.00    +0.150 A 
ENDROOT
BRANCH   4  10
ATOM     10  N   LIG    1      -30.479  69.589  17.883  0.00  0.00    -0.303 N 
ATOM     11  C   LIG    1      -29.303  69.546  18.768  0.00  0.00    +0.107 C 
ATOM     12  C   LIG    1      -28.707  70.957  18.703  0.00  0.00    +0.029 C 
ATOM     13  C   LIG    1      -29.173  71.488  17.356  0.00  0.00    +0.027 C 
ATOM     14  C   LIG    1      -30.588  70.900  17.218  0.00  0.00    +0.101 C 
BRANCH  11  15
ATOM     15  C   LIG    1      -28.300  68.485  18.365  0.00  0.00    -0.006 A 
ATOM     16  C   LIG    1      -27.780  67.592  19.314  0.00  0.00    +0.046 A 
ATOM     17  C   LIG    1      -26.930  66.575  18.899  0.00  0.00    +0.142 A 
ATOM     18  F   LIG    1      -26.446  65.695  19.785  0.00  0.00    -0.204 F 
ATOM     19  C   LIG    1      -26.603  66.477  17.560  0.00  0.00    +0.149 A 
ATOM     20  N   LIG    1      -27.062  67.331  16.618  0.00  0.00    -0.260 NA
ATOM     21  C   LIG    1      -27.895  68.310  17.041  0.00  0.00    +0.116 A 
ENDBRANCH  11  15
BRANCH  14  22
ATOM     22  C   LIG    1      -31.648  71.786  17.900  0.00  0.00    +0.178 C 
BRANCH  22  23
ATOM     23  O   LIG    1      -32.774  72.001  17.054  0.00  0.00    -0.393 OA
ATOM     24  H   LIG    1      -32.453  72.335  16.200  0.00  0.00    +0.209 HD
ENDBRANCH  22  23
ENDBRANCH  14  22
ENDBRANCH   4  10
BRANCH   1  27
ATOM     25  N   LIG    1      -34.069  68.886  14.053  0.00  0.00    -0.300 N 
ATOM     26  H   LIG    1      -34.022  69.414  14.920  0.00  0.00    +0.150 HD
ATOM     27  C   LIG    1      -33.928  67.518  14.128  0.00  0.00    +0.250 C 
ATOM     28  O   LIG    1      -33.904  66.805  13.143  0.00  0.00    -0.270 OA
BRANCH  25  30
ATOM     29  C   LIG    1      -33.245  70.769  12.732  0.00  0.00    +0.037 C 
ATOM     30  C   LIG    1      -34.182  69.560  12.756  0.00  0.00    +0.174 C 
BRANCH  30  31
ATOM     31  C   LIG    1      -35.627  69.962  12.344  0.00  0.00    +0.407 C 
ATOM     32  F   LIG    1      -36.551  69.039  12.695  0.00  0.00    -0.169 F 
ATOM     33  F   LIG    1      -35.713  70.150  11.006  0.00  0.00    -0.169 F 
ATOM     34  F   LIG    1      -36.009  71.126  12.926  0.00  0.00    -0.169 F 
ENDBRANCH  30  31
ENDBRANCH  25  30
ENDBRANCH   1  27
TORSDOF 7
ENDMDL
MODEL 4
REMARK VINA RESULT:      -5.7      1.631      2.043
REMARK  Name = pdb/CHEMBL3676078.pdb
REMARK                            x       y       z     vdW  Elec       q    Type
REMARK                         _______ _______ _______ _____ _____    ______ ____
ROOT
ATOM      1  C   LIG    1      -18.708  85.011  13.407  0.00  0.00    +0.100 A 
ATOM      2  C   LIG    1      -19.252  83.742  13.483  0.00  0.00    +0.170 A 
ATOM      3  N   LIG    1      -20.485  83.279  13.895  0.00  0.00    -0.212 NA
ATOM      4  C   LIG    1      -20.717  81.982  13.833  0.00  0.00    +0.126 A 
ATOM      5  C   LIG    1      -19.662  81.023  13.327  0.00  0.00    +0.063 A 
ATOM      6  C   LIG    1      -18.477  81.521  12.968  0.00  0.00    +0.118 A 
ATOM      7  N   LIG    1      -18.251  82.879  13.033  0.00  0.00    -0.221 N 
ATOM      8  N   LIG    1      -17.119  83.530  12.690  0.00  0.00    -0.173 NA
ATOM      9  C   LIG    1      -17.401  84.816  12.921  0.00  0.00    +0.150 A 
ENDROOT
BRANCH   4  10
ATOM     10  N   LIG    1      -21.950  81.488  14.255  0.00  0.00    -0.303 N 
ATOM     11  C   LIG    1      -23.265  81.998  13.832  0.00  0.00    +0.107 C 
ATOM     12  C   LIG    1      -24.277  81.279  14.732  0.00  0.00    +0.029 C 
ATOM     13  C   LIG    1      -23.562  79.999  15.133  0.00  0.00    +0.027 C 
ATOM     14  C   LIG    1      -22.099  80.447  15.288  0.00  0.00    +0.101 C 
BRANCH  11  15
ATOM     15  C   LIG    1      -23.543  81.764  12.362  0.00  0.00    -0.006 A 
ATOM     16  C   LIG    1      -24.156  82.755  11.580  0.00  0.00    +0.046 A 
ATOM     17  C   LIG    1      -24.318  82.544  10.217  0.00  0.00    +0.142 A 
ATOM     18  F   LIG    1      -24.874  83.490   9.448  0.00  0.00    -0.204 F 
ATOM     19  C   LIG    1      -23.887  81.353   9.664  0.00  0.00    +0.149 A 
ATOM     20  N   LIG    1      -23.315  80.363  10.386  0.00  0.00    -0.260 NA
ATOM     21  C   LIG    1      -23.159  80.590  11.710  0.00  0.00    +0.116 A 
ENDBRANCH  11  15
BRANCH  14  22
ATOM     22  C   LIG    1      -21.814  81.010  16.693  0.00  0.00    +0.178 C 
BRANCH  22  23
ATOM     23  O   LIG    1      -21.582  82.416  16.657  0.00  0.00    -0.393 OA
ATOM     24  H   LIG    1      -22.125  82.831  17.348  0.00  0.00    +0.209 HD
ENDBRANCH  22  23
ENDBRANCH  14  22
ENDBRANCH   4  10
BRANCH   1  27
ATOM     25  N   LIG    1      -20.507  86.205  14.410  0.00  0.00    -0.300 N 
ATOM     26  H   LIG    1      -20.855  85.280  14.646  0.00  0.00    +0.150 HD
ATOM     27  C   LIG    1      -19.299  86.285  13.752  0.00  0.00    +0.250 C 
ATOM     28  O   LIG    1      -18.767  87.345  13.485  0.00  0.00    -0.270 OA
BRANCH  25  30
ATOM     29  C   LIG    1      -21.717  87.224  16.271  0.00  0.00    +0.037 C 
ATOM     30  C   LIG    1      -21.210  87.416  14.842  0.00  0.00    +0.174 C 
BRANCH  30  31
ATOM     31  C   LIG    1      -22.355  87.886  13.899  0.00  0.00    +0.407 C 
ATOM     32  F   LIG    1      -23.181  86.879  13.532  0.00  0.00    -0.169 F 
ATOM     33  F   LIG    1      -21.855  88.446  12.773  0.00  0.00    -0.169 F 
ATOM     34  F   LIG    1      -23.136  88.825  14.489  0.00  0.00    -0.169 F 
ENDBRANCH  30  31
ENDBRANCH  25  30
ENDBRANCH   1  27
TORSDOF 7
ENDMDL
MODEL 5
REMARK VINA RESULT:      -5.6     19.100     22.106
REMARK  Name = pdb/CHEMBL3676078.pdb
REMARK                            x       y       z     vdW  Elec       q    Type
REMARK                         _______ _______ _______ _____ _____    ______ ____
ROOT
ATOM      1  C   LIG    1      -38.015  80.585  27.128  0.00  0.00    +0.100 A 
ATOM      2  C   LIG    1      -36.772  80.208  27.604  0.00  0.00    +0.170 A 
ATOM      3  N   LIG    1      -36.128  78.989  27.666  0.00  0.00    -0.212 NA
ATOM      4  C   LIG    1      -34.911  78.952  28.173  0.00  0.00    +0.126 A 
ATOM      5  C   LIG    1      -34.235  80.210  28.676  0.00  0.00    +0.063 A 
ATOM      6  C   LIG    1      -34.915  81.356  28.618  0.00  0.00    +0.118 A 
ATOM      7  N   LIG    1      -36.184  81.381  28.081  0.00  0.00    -0.221 N 
ATOM      8  N   LIG    1      -36.983  82.459  27.938  0.00  0.00    -0.173 NA
ATOM      9  C   LIG    1      -38.088  81.971  27.365  0.00  0.00    +0.150 A 
ENDROOT
BRANCH   4  10
ATOM     10  N   LIG    1      -34.244  77.732  28.258  0.00  0.00    -0.303 N 
ATOM     11  C   LIG    1      -34.006  76.973  29.497  0.00  0.00    +0.107 C 
ATOM     12  C   LIG    1      -33.057  75.839  29.090  0.00  0.00    +0.029 C 
ATOM     13  C   LIG    1      -33.326  75.653  27.606  0.00  0.00    +0.027 C 
ATOM     14  C   LIG    1      -33.577  77.088  27.112  0.00  0.00    +0.101 C 
BRANCH  11  15
ATOM     15  C   LIG    1      -35.282  76.450  30.123  0.00  0.00    -0.006 A 
ATOM     16  C   LIG    1      -36.200  75.704  29.367  0.00  0.00    +0.046 A 
ATOM     17  C   LIG    1      -37.317  75.165  29.991  0.00  0.00    +0.142 A 
ATOM     18  F   LIG    1      -38.189  74.425  29.294  0.00  0.00    -0.204 F 
ATOM     19  C   LIG    1      -37.508  75.390  31.341  0.00  0.00    +0.149 A 
ATOM     20  N   LIG    1      -36.662  76.123  32.099  0.00  0.00    -0.260 NA
ATOM     21  C   LIG    1      -35.576  76.634  31.475  0.00  0.00    +0.116 A 
ENDBRANCH  11  15
BRANCH  14  22
ATOM     22  C   LIG    1      -32.264  77.811  26.753  0.00  0.00    +0.178 C 
BRANCH  22  23
ATOM     23  O   LIG    1      -32.434  78.681  25.637  0.00  0.00    -0.393 OA
ATOM     24  H   LIG    1      -31.656  79.263  25.585  0.00  0.00    +0.209 HD
ENDBRANCH  22  23
ENDBRANCH  14  22
ENDBRANCH   4  10
BRANCH   1  27
ATOM     25  N   LIG    1      -38.638  78.538  26.084  0.00  0.00    -0.300 N 
ATOM     26  H   LIG    1      -37.672  78.273  26.258  0.00  0.00    +0.150 HD
ATOM     27  C   LIG    1      -39.052  79.775  26.527  0.00  0.00    +0.250 C 
ATOM     28  O   LIG    1      -40.202  80.157  26.426  0.00  0.00    -0.270 OA
BRANCH  25  30
ATOM     29  C   LIG    1      -39.942  76.512  26.486  0.00  0.00    +0.037 C 
ATOM     30  C   LIG    1      -39.586  77.602  25.474  0.00  0.00    +0.174 C 
BRANCH  30  31
ATOM     31  C   LIG    1      -39.127  76.984  24.123  0.00  0.00    +0.407 C 
ATOM     32  F   LIG    1      -39.229  75.635  24.099  0.00  0.00    -0.169 F 
ATOM     33  F   LIG    1      -37.841  77.309  23.853  0.00  0.00    -0.169 F 
ATOM     34  F   LIG    1      -39.871  77.441  23.084  0.00  0.00    -0.169 F 
ENDBRANCH  30  31
ENDBRANCH  25  30
ENDBRANCH   1  27
TORSDOF 7
ENDMDL
MODEL 6
REMARK VINA RESULT:      -5.6     19.146     21.732
REMARK  Name = pdb/CHEMBL3676078.pdb
REMARK                            x       y       z     vdW  Elec       q    Type
REMARK                         _______ _______ _______ _____ _____    ______ ____
ROOT
ATOM      1  C   LIG    1      -23.003  80.567  35.661  0.00  0.00    +0.100 A 
ATOM      2  C   LIG    1      -23.297  79.620  34.698  0.00  0.00    +0.170 A 
ATOM      3  N   LIG    1      -22.539  79.034  33.705  0.00  0.00    -0.212 NA
ATOM      4  C   LIG    1      -23.112  78.129  32.935  0.00  0.00    +0.126 A 
ATOM      5  C   LIG    1      -24.562  77.741  33.131  0.00  0.00    +0.063 A 
ATOM      6  C   LIG    1      -25.256  78.360  34.087  0.00  0.00    +0.118 A 
ATOM      7  N   LIG    1      -24.643  79.300  34.887  0.00  0.00    -0.221 N 
ATOM      8  N   LIG    1      -25.204  79.992  35.901  0.00  0.00    -0.173 NA
ATOM      9  C   LIG    1      -24.210  80.758  36.362  0.00  0.00    +0.150 A 
ENDROOT
BRANCH   4  10
ATOM     10  N   LIG    1      -22.371  77.531  31.917  0.00  0.00    -0.303 N 
ATOM     11  C   LIG    1      -20.917  77.660  31.730  0.00  0.00    +0.107 C 
ATOM     12  C   LIG    1      -20.634  77.010  30.370  0.00  0.00    +0.029 C 
ATOM     13  C   LIG    1      -21.781  76.029  30.189  0.00  0.00    +0.027 C 
ATOM     14  C   LIG    1      -22.978  76.771  30.809  0.00  0.00    +0.101 C 
BRANCH  11  15
ATOM     15  C   LIG    1      -20.119  77.018  32.845  0.00  0.00    -0.006 A 
ATOM     16  C   LIG    1      -19.082  77.718  33.482  0.00  0.00    +0.046 A 
ATOM     17  C   LIG    1      -18.427  77.135  34.559  0.00  0.00    +0.142 A 
ATOM     18  F   LIG    1      -17.455  77.799  35.198  0.00  0.00    -0.204 F 
ATOM     19  C   LIG    1      -18.801  75.869  34.969  0.00  0.00    +0.149 A 
ATOM     20  N   LIG    1      -19.777  75.152  34.367  0.00  0.00    -0.260 NA
ATOM     21  C   LIG    1      -20.408  75.739  33.325  0.00  0.00    +0.116 A 
ENDBRANCH  11  15
BRANCH  14  22
ATOM     22  C   LIG    1      -23.660  77.711  29.796  0.00  0.00    +0.178 C 
BRANCH  22  23
ATOM     23  O   LIG    1      -25.034  77.378  29.616  0.00  0.00    -0.393 OA
ATOM     24  H   LIG    1      -25.565  78.172  29.798  0.00  0.00    +0.209 HD
ENDBRANCH  22  23
ENDBRANCH  14  22
ENDBRANCH   4  10
BRANCH   1  27
ATOM     25  N   LIG    1      -21.423  81.358  37.257  0.00  0.00    -0.300 N 
ATOM     26  H   LIG    1      -22.034  80.909  37.933  0.00  0.00    +0.150 HD
ATOM     27  C   LIG    1      -21.757  81.253  35.924  0.00  0.00    +0.250 C 
ATOM     28  O   LIG    1      -21.057  81.698  35.035  0.00  0.00    -0.270 OA
BRANCH  25  30
ATOM     29  C   LIG    1      -19.599  81.270  38.878  0.00  0.00    +0.037 C 
ATOM     30  C   LIG    1      -20.177  82.008  37.671  0.00  0.00    +0.174 C 
BRANCH  30  31
ATOM     31  C   LIG    1      -20.289  83.535  37.947  0.00  0.00    +0.407 C 
ATOM     32  F   LIG    1      -21.443  83.875  38.565  0.00  0.00    -0.169 F 
ATOM     33  F   LIG    1      -20.208  84.243  36.796  0.00  0.00    -0.169 F 
ATOM     34  F   LIG    1      -19.285  83.974  38.746  0.00  0.00    -0.169 F 
ENDBRANCH  30  31
ENDBRANCH  25  30
ENDBRANCH   1  27
TORSDOF 7
ENDMDL
MODEL 7
REMARK VINA RESULT:      -5.6     16.527     20.618
REMARK  Name = pdb/CHEMBL3676078.pdb
REMARK                            x       y       z     vdW  Elec       q    Type
REMARK                         _______ _______ _______ _____ _____    ______ ____
ROOT
ATOM      1  C   LIG    1      -34.479  66.877  17.561  0.00  0.00    +0.100 A 
ATOM      2  C   LIG    1      -33.370  67.566  17.104  0.00  0.00    +0.170 A 
ATOM      3  N   LIG    1      -32.444  68.368  17.738  0.00  0.00    -0.212 NA
ATOM      4  C   LIG    1      -31.467  68.883  17.018  0.00  0.00    +0.126 A 
ATOM      5  C   LIG    1      -31.360  68.605  15.534  0.00  0.00    +0.063 A 
ATOM      6  C   LIG    1      -32.299  67.847  14.966  0.00  0.00    +0.118 A 
ATOM      7  N   LIG    1      -33.311  67.311  15.733  0.00  0.00    -0.221 N 
ATOM      8  N   LIG    1      -34.316  66.515  15.309  0.00  0.00    -0.173 NA
ATOM      9  C   LIG    1      -35.018  66.259  16.417  0.00  0.00    +0.150 A 
ENDROOT
BRANCH   4  10
ATOM     10  N   LIG    1      -30.525  69.706  17.633  0.00  0.00    -0.303 N 
ATOM     11  C   LIG    1      -29.615  69.302  18.717  0.00  0.00    +0.107 C 
ATOM     12  C   LIG    1      -28.953  70.603  19.184  0.00  0.00    +0.029 C 
ATOM     13  C   LIG    1      -29.036  71.511  17.967  0.00  0.00    +0.027 C 
ATOM     14  C   LIG    1      -30.397  71.147  17.350  0.00  0.00    +0.101 C 
BRANCH  11  15
ATOM     15  C   LIG    1      -28.597  68.270  18.279  0.00  0.00    -0.006 A 
ATOM     16  C   LIG    1      -27.317  68.659  17.855  0.00  0.00    +0.046 A 
ATOM     17  C   LIG    1      -26.377  67.685  17.542  0.00  0.00    +0.142 A 
ATOM     18  F   LIG    1      -25.141  68.036  17.164  0.00  0.00    -0.204 F 
ATOM     19  C   LIG    1      -26.731  66.353  17.641  0.00  0.00    +0.149 A 
ATOM     20  N   LIG    1      -27.960  65.937  18.022  0.00  0.00    -0.260 NA
ATOM     21  C   LIG    1      -28.859  66.900  18.329  0.00  0.00    +0.116 A 
ENDBRANCH  11  15
BRANCH  14  22
ATOM     22  C   LIG    1      -31.550  71.946  17.987  0.00  0.00    +0.178 C 
BRANCH  22  23
ATOM     23  O   LIG    1      -32.656  72.071  17.097  0.00  0.00    -0.393 OA
ATOM     24  H   LIG    1      -32.856  73.017  16.994  0.00  0.00    +0.209 HD
ENDBRANCH  22  23
ENDBRANCH  14  22
ENDBRANCH   4  10
BRANCH   1  27
ATOM     25  N   LIG    1      -36.376  66.999  18.994  0.00  0.00    -0.300 N 
ATOM     26  H   LIG    1      -36.892  67.140  18.130  0.00  0.00    +0.150 HD
ATOM     27  C   LIG    1      -35.017  66.790  18.901  0.00  0.00    +0.250 C 
ATOM     28  O   LIG    1      -34.323  66.547  19.868  0.00  0.00    -0.270 OA
BRANCH  25  30
ATOM     29  C   LIG    1      -38.401  66.204  20.104  0.00  0.00    +0.037 C 
ATOM     30  C   LIG    1      -37.062  66.919  20.286  0.00  0.00    +0.174 C 
BRANCH  30  31
ATOM     31  C   LIG    1      -37.247  68.277  21.022  0.00  0.00    +0.407 C 
ATOM     32  F   LIG    1      -37.240  69.336  20.181  0.00  0.00    -0.169 F 
ATOM     33  F   LIG    1      -36.269  68.467  21.939  0.00  0.00    -0.169 F 
ATOM     34  F   LIG    1      -38.425  68.328  21.691  0.00  0.00    -0.169 F 
ENDBRANCH  30  31
ENDBRANCH  25  30
ENDBRANCH   1  27
TORSDOF 7
ENDMDL
MODEL 8
REMARK VINA RESULT:      -5.6     19.203     22.672
REMARK  Name = pdb/CHEMBL3676078.pdb
REMARK                            x       y       z     vdW  Elec       q    Type
REMARK                         _______ _______ _______ _____ _____    ______ ____
ROOT
ATOM      1  C   LIG    1      -35.059  72.224  28.090  0.00  0.00    +0.100 A 
ATOM      2  C   LIG    1      -34.296  73.342  28.371  0.00  0.00    +0.170 A 
ATOM      3  N   LIG    1      -34.507  74.690  28.166  0.00  0.00    -0.212 NA
ATOM      4  C   LIG    1      -33.577  75.535  28.567  0.00  0.00    +0.126 A 
ATOM      5  C   LIG    1      -32.309  75.045  29.232  0.00  0.00    +0.063 A 
ATOM      6  C   LIG    1      -32.144  73.729  29.379  0.00  0.00    +0.118 A 
ATOM      7  N   LIG    1      -33.126  72.858  28.960  0.00  0.00    -0.221 N 
ATOM      8  N   LIG    1      -33.112  71.512  29.057  0.00  0.00    -0.173 NA
ATOM      9  C   LIG    1      -34.280  71.135  28.527  0.00  0.00    +0.150 A 
ENDROOT
BRANCH   4  10
ATOM     10  N   LIG    1      -33.762  76.901  28.361  0.00  0.00    -0.303 N 
ATOM     11  C   LIG    1      -35.046  77.614  28.458  0.00  0.00    +0.107 C 
ATOM     12  C   LIG    1      -34.755  79.026  27.934  0.00  0.00    +0.029 C 
ATOM     13  C   LIG    1      -33.266  79.206  28.177  0.00  0.00    +0.027 C 
ATOM     14  C   LIG    1      -32.693  77.805  27.898  0.00  0.00    +0.101 C 
BRANCH  11  15
ATOM     15  C   LIG    1      -35.606  77.633  29.865  0.00  0.00    -0.006 A 
ATOM     16  C   LIG    1      -34.802  78.008  30.953  0.00  0.00    +0.046 A 
ATOM     17  C   LIG    1      -35.368  78.100  32.218  0.00  0.00    +0.142 A 
ATOM     18  F   LIG    1      -34.625  78.484  33.263  0.00  0.00    -0.204 F 
ATOM     19  C   LIG    1      -36.708  77.803  32.379  0.00  0.00    +0.149 A 
ATOM     20  N   LIG    1      -37.510  77.414  31.362  0.00  0.00    -0.260 NA
ATOM     21  C   LIG    1      -36.943  77.338  30.137  0.00  0.00    +0.116 A 
ENDBRANCH  11  15
BRANCH  14  22
ATOM     22  C   LIG    1      -32.393  77.594  26.402  0.00  0.00    +0.178 C 
BRANCH  22  23
ATOM     23  O   LIG    1      -32.343  78.831  25.697  0.00  0.00    -0.393 OA
ATOM     24  H   LIG    1      -31.843  78.693  24.875  0.00  0.00    +0.209 HD
ENDBRANCH  22  23
ENDBRANCH  14  22
ENDBRANCH   4  10
BRANCH   1  27
ATOM     25  N   LIG    1      -36.582  73.026  26.445  0.00  0.00    -0.300 N 
ATOM     26  H   LIG    1      -35.810  73.627  26.170  0.00  0.00    +0.150 HD
ATOM     27  C   LIG    1      -36.364  72.134  27.473  0.00  0.00    +0.250 C 
ATOM     28  O   LIG    1      -37.202  71.329  27.831  0.00  0.00    -0.270 OA
BRANCH  25  30
ATOM     29  C   LIG    1      -37.774  72.037  24.557  0.00  0.00    +0.037 C 
ATOM     30  C   LIG    1      -37.851  73.034  25.713  0.00  0.00    +0.174 C 
BRANCH  30  31
ATOM     31  C   LIG    1      -38.319  74.432  25.218  0.00  0.00    +0.407 C 
ATOM     32  F   LIG    1      -38.803  75.209  26.214  0.00  0.00    -0.169 F 
ATOM     33  F   LIG    1      -39.285  74.313  24.276  0.00  0.00    -0.169 F 
ATOM     34  F   LIG    1      -37.304  75.128  24.649  0.00  0.00    -0.169 F 
ENDBRANCH  30  31
ENDBRANCH  25  30
ENDBRANCH   1  27
TORSDOF 7
ENDMDL
MODEL 9
REMARK VINA RESULT:      -5.5      2.391      2.690
REMARK  Name = pdb/CHEMBL3676078.pdb
REMARK                            x       y       z     vdW  Elec       q    Type
REMARK                         _______ _______ _______ _____ _____    ______ ____
ROOT
ATOM      1  C   LIG    1      -21.670  84.387  11.047  0.00  0.00    +0.100 A 
ATOM      2  C   LIG    1      -21.595  83.124  11.606  0.00  0.00    +0.170 A 
ATOM      3  N   LIG    1      -21.587  82.683  12.914  0.00  0.00    -0.212 NA
ATOM      4  C   LIG    1      -21.522  81.384  13.133  0.00  0.00    +0.126 A 
ATOM      5  C   LIG    1      -21.458  80.400  11.985  0.00  0.00    +0.063 A 
ATOM      6  C   LIG    1      -21.440  80.883  10.742  0.00  0.00    +0.118 A 
ATOM      7  N   LIG    1      -21.513  82.242  10.528  0.00  0.00    -0.221 N 
ATOM      8  N   LIG    1      -21.525  82.876   9.336  0.00  0.00    -0.173 NA
ATOM      9  C   LIG    1      -21.616  84.171   9.657  0.00  0.00    +0.150 A 
ENDROOT
BRANCH   4  10
ATOM     10  N   LIG    1      -21.500  80.914  14.445  0.00  0.00    -0.303 N 
ATOM     11  C   LIG    1      -22.576  81.089  15.434  0.00  0.00    +0.107 C 
ATOM     12  C   LIG    1      -21.981  80.595  16.758  0.00  0.00    +0.029 C 
ATOM     13  C   LIG    1      -20.898  79.619  16.329  0.00  0.00    +0.027 C 
ATOM     14  C   LIG    1      -20.325  80.266  15.057  0.00  0.00    +0.101 C 
BRANCH  11  15
ATOM     15  C   LIG    1      -23.843  80.346  15.066  0.00  0.00    -0.006 A 
ATOM     16  C   LIG    1      -24.568  80.688  13.914  0.00  0.00    +0.046 A 
ATOM     17  C   LIG    1      -25.676  79.931  13.557  0.00  0.00    +0.142 A 
ATOM     18  F   LIG    1      -26.363  80.223  12.445  0.00  0.00    -0.204 F 
ATOM     19  C   LIG    1      -26.050  78.867  14.355  0.00  0.00    +0.149 A 
ATOM     20  N   LIG    1      -25.394  78.520  15.486  0.00  0.00    -0.260 NA
ATOM     21  C   LIG    1      -24.314  79.264  15.813  0.00  0.00    +0.116 A 
ENDBRANCH  11  15
BRANCH  14  22
ATOM     22  C   LIG    1      -19.226  81.297  15.380  0.00  0.00    +0.178 C 
BRANCH  22  23
ATOM     23  O   LIG    1      -18.420  80.877  16.478  0.00  0.00    -0.393 OA
ATOM     24  H   LIG    1      -17.613  80.468  16.123  0.00  0.00    +0.209 HD
ENDBRANCH  22  23
ENDBRANCH  14  22
ENDBRANCH   4  10
BRANCH   1  27
ATOM     25  N   LIG    1      -21.175  85.742  12.941  0.00  0.00    -0.300 N 
ATOM     26  H   LIG    1      -20.682  84.919  13.274  0.00  0.00    +0.150 HD
ATOM     27  C   LIG    1      -21.766  85.675  11.698  0.00  0.00    +0.250 C 
ATOM     28  O   LIG    1      -22.322  86.626  11.184  0.00  0.00    -0.270 OA
BRANCH  25  30
ATOM     29  C   LIG    1      -19.813  87.175  14.375  0.00  0.00    +0.037 C 
ATOM     30  C   LIG    1      -21.176  86.992  13.707  0.00  0.00    +0.174 C 
BRANCH  30  31
ATOM     31  C   LIG    1      -22.330  87.133  14.740  0.00  0.00    +0.407 C 
ATOM     32  F   LIG    1      -21.915  86.974  16.018  0.00  0.00    -0.169 F 
ATOM     33  F   LIG    1      -23.305  86.224  14.503  0.00  0.00    -0.169 F 
ATOM     34  F   LIG    1      -22.913  88.356  14.677  0.00  0.00    -0.169 F 
ENDBRANCH  30  31
ENDBRANCH  25  30
ENDBRANCH   1  27
TORSDOF 7
ENDMDL
