MODEL 1
REMARK VINA RESULT:      -6.6      0.000      0.000
REMARK  Name = pdb/CHEMBL3973508.pdb
REMARK                            x       y       z     vdW  Elec       q    Type
REMARK                         _______ _______ _______ _____ _____    ______ ____
ROOT
ATOM      1  C   LIG    1      -27.115  76.266  31.822  0.00  0.00    +0.131 C 
ATOM      2  N   LIG    1      -26.046  75.962  31.064  0.00  0.00    -0.141 NA
ATOM      3  N   LIG    1      -24.995  76.640  31.619  0.00  0.00    -0.201 N 
ATOM      4  C   LIG    1      -25.433  77.541  32.604  0.00  0.00    +0.185 C 
ATOM      5  C   LIG    1      -26.751  77.196  32.827  0.00  0.00    +0.056 C 
ENDROOT
BRANCH   3   6
ATOM      6  C   LIG    1      -23.667  76.426  31.124  0.00  0.00    +0.052 A 
ATOM      7  C   LIG    1      -22.787  75.591  31.837  0.00  0.00    +0.025 A 
ATOM      8  C   LIG    1      -21.495  75.337  31.353  0.00  0.00    +0.002 A 
ATOM      9  C   LIG    1      -21.058  75.938  30.176  0.00  0.00    +0.000 A 
ATOM     10  C   LIG    1      -21.904  76.805  29.489  0.00  0.00    +0.002 A 
ATOM     11  C   LIG    1      -23.204  77.051  29.959  0.00  0.00    +0.025 A 
ENDBRANCH   3   6
BRANCH   4  12
ATOM     12  N   LIG    1      -24.751  78.624  33.197  0.00  0.00    -0.282 N 
ATOM     13  H   LIG    1      -24.992  79.563  32.905  0.00  0.00    +0.152 HD
ATOM     14  C   LIG    1      -23.820  78.464  34.297  0.00  0.00    +0.247 C 
ATOM     15  O   LIG    1      -23.598  77.339  34.769  0.00  0.00    -0.270 OA
BRANCH  14  16
ATOM     16  C   LIG    1      -23.134  79.618  34.916  0.00  0.00    +0.056 A 
ATOM     17  C   LIG    1      -21.771  79.875  34.819  0.00  0.00    +0.054 A 
ATOM     18 CL   LIG    1      -20.684  78.914  33.896  0.00  0.00    -0.083 Cl
ATOM     19  C   LIG    1      -21.225  80.954  35.522  0.00  0.00    +0.041 A 
ATOM     20  C   LIG    1      -22.016  81.797  36.326  0.00  0.00    +0.052 A 
ATOM     21 CL   LIG    1      -21.145  83.097  37.059  0.00  0.00    -0.083 Cl
ATOM     22  C   LIG    1      -23.402  81.590  36.447  0.00  0.00    +0.022 A 
ATOM     23  C   LIG    1      -23.916  80.477  35.728  0.00  0.00    +0.026 A 
BRANCH  22  24
ATOM     24  C   LIG    1      -24.369  82.457  37.185  0.00  0.00    +0.107 A 
ATOM     25  C   LIG    1      -24.394  82.695  38.560  0.00  0.00    +0.149 A 
ATOM     26  F   LIG    1      -23.569  82.075  39.413  0.00  0.00    -0.203 F 
ATOM     27  C   LIG    1      -25.336  83.567  39.105  0.00  0.00    +0.042 A 
ATOM     28  C   LIG    1      -26.282  84.156  38.278  0.00  0.00    +0.023 A 
ATOM     29  C   LIG    1      -26.241  83.847  36.933  0.00  0.00    +0.111 A 
ATOM     30  N   LIG    1      -25.312  83.029  36.375  0.00  0.00    -0.252 NA
ENDBRANCH  22  24
ENDBRANCH  14  16
ENDBRANCH   4  12
BRANCH   1  32
ATOM     31  N   LIG    1      -29.372  76.434  30.962  0.00  0.00    -0.247 NA
ATOM     32  C   LIG    1      -28.489  75.770  31.614  0.00  0.00    +0.233 C 
BRANCH  32  33
ATOM     33  O   LIG    1      -28.716  74.583  32.225  0.00  0.00    -0.491 OA
ATOM     34  H   LIG    1      -29.632  74.291  32.113  0.00  0.00    +0.294 HD
ENDBRANCH  32  33
BRANCH  31  35
ATOM     35  C   LIG    1      -30.757  75.959  30.835  0.00  0.00    +0.173 C 
BRANCH  35  36
ATOM     36  C   LIG    1      -31.204  75.903  29.361  0.00  0.00    +0.183 C 
BRANCH  36  37
ATOM     37  O   LIG    1      -31.873  77.113  28.994  0.00  0.00    -0.376 OA
BRANCH  37  38
ATOM     38  C   LIG    1      -32.127  77.236  27.583  0.00  0.00    +0.187 C 
BRANCH  38  39
ATOM     39  C   LIG    1      -32.356  78.676  27.104  0.00  0.00    +0.184 C 
BRANCH  39  40
ATOM     40  O   LIG    1      -32.348  78.742  25.681  0.00  0.00    -0.393 OA
ATOM     41  H   LIG    1      -32.424  77.829  25.351  0.00  0.00    +0.209 HD
ENDBRANCH  39  40
ENDBRANCH  38  39
ENDBRANCH  37  38
ENDBRANCH  36  37
ENDBRANCH  35  36
ENDBRANCH  31  35
ENDBRANCH   1  32
TORSDOF 12
ENDMDL
MODEL 2
REMARK VINA RESULT:      -6.3      8.411     14.609
REMARK  Name = pdb/CHEMBL3973508.pdb
REMARK                            x       y       z     vdW  Elec       q    Type
REMARK                         _______ _______ _______ _____ _____    ______ ____
ROOT
ATOM      1  C   LIG    1      -31.626  74.164  29.860  0.00  0.00    +0.131 C 
ATOM      2  N   LIG    1      -31.513  75.442  29.459  0.00  0.00    -0.141 NA
ATOM      3  N   LIG    1      -32.652  75.708  28.748  0.00  0.00    -0.201 N 
ATOM      4  C   LIG    1      -33.394  74.537  28.519  0.00  0.00    +0.185 C 
ATOM      5  C   LIG    1      -32.816  73.594  29.344  0.00  0.00    +0.056 C 
ENDROOT
BRANCH   3   6
ATOM      6  C   LIG    1      -32.910  77.040  28.287  0.00  0.00    +0.052 A 
ATOM      7  C   LIG    1      -32.209  77.537  27.172  0.00  0.00    +0.025 A 
ATOM      8  C   LIG    1      -32.470  78.824  26.681  0.00  0.00    +0.002 A 
ATOM      9  C   LIG    1      -33.407  79.638  27.312  0.00  0.00    +0.000 A 
ATOM     10  C   LIG    1      -34.071  79.173  28.445  0.00  0.00    +0.002 A 
ATOM     11  C   LIG    1      -33.825  77.881  28.934  0.00  0.00    +0.025 A 
ENDBRANCH   3   6
BRANCH   4  12
ATOM     12  N   LIG    1      -34.440  74.302  27.601  0.00  0.00    -0.282 N 
ATOM     13  H   LIG    1      -34.207  73.925  26.691  0.00  0.00    +0.152 HD
ATOM     14  C   LIG    1      -35.840  74.450  27.945  0.00  0.00    +0.247 C 
ATOM     15  O   LIG    1      -36.169  74.785  29.093  0.00  0.00    -0.270 OA
BRANCH  14  16
ATOM     16  C   LIG    1      -36.919  74.176  26.972  0.00  0.00    +0.056 A 
ATOM     17  C   LIG    1      -37.280  72.910  26.525  0.00  0.00    +0.054 A 
ATOM     18 CL   LIG    1      -36.560  71.456  27.097  0.00  0.00    -0.083 Cl
ATOM     19  C   LIG    1      -38.261  72.786  25.537  0.00  0.00    +0.041 A 
ATOM     20  C   LIG    1      -38.904  73.908  24.979  0.00  0.00    +0.052 A 
ATOM     21 CL   LIG    1      -40.120  73.521  23.814  0.00  0.00    -0.083 Cl
ATOM     22  C   LIG    1      -38.587  75.210  25.407  0.00  0.00    +0.022 A 
ATOM     23  C   LIG    1      -37.577  75.295  26.403  0.00  0.00    +0.026 A 
BRANCH  22  24
ATOM     24  C   LIG    1      -39.252  76.475  24.972  0.00  0.00    +0.107 A 
ATOM     25  C   LIG    1      -38.783  77.379  24.017  0.00  0.00    +0.149 A 
ATOM     26  F   LIG    1      -37.589  77.245  23.426  0.00  0.00    -0.203 F 
ATOM     27  C   LIG    1      -39.538  78.502  23.683  0.00  0.00    +0.042 A 
ATOM     28  C   LIG    1      -40.734  78.743  24.342  0.00  0.00    +0.023 A 
ATOM     29  C   LIG    1      -41.127  77.842  25.312  0.00  0.00    +0.111 A 
ATOM     30  N   LIG    1      -40.427  76.725  25.629  0.00  0.00    -0.252 NA
ENDBRANCH  22  24
ENDBRANCH  14  16
ENDBRANCH   4  12
BRANCH   1  32
ATOM     31  N   LIG    1      -30.253  73.809  31.824  0.00  0.00    -0.247 NA
ATOM     32  C   LIG    1      -30.635  73.420  30.662  0.00  0.00    +0.233 C 
BRANCH  32  33
ATOM     33  O   LIG    1      -30.148  72.333  30.017  0.00  0.00    -0.491 OA
ATOM     34  H   LIG    1      -29.681  72.577  29.205  0.00  0.00    +0.294 HD
ENDBRANCH  32  33
BRANCH  31  35
ATOM     35  C   LIG    1      -29.206  73.097  32.570  0.00  0.00    +0.173 C 
BRANCH  35  36
ATOM     36  C   LIG    1      -27.824  73.752  32.369  0.00  0.00    +0.183 C 
BRANCH  36  37
ATOM     37  O   LIG    1      -27.964  75.041  31.762  0.00  0.00    -0.376 OA
BRANCH  37  38
ATOM     38  C   LIG    1      -27.887  76.135  32.692  0.00  0.00    +0.187 C 
BRANCH  38  39
ATOM     39  C   LIG    1      -29.010  77.171  32.545  0.00  0.00    +0.184 C 
BRANCH  39  40
ATOM     40  O   LIG    1      -28.817  77.961  31.374  0.00  0.00    -0.393 OA
ATOM     41  H   LIG    1      -29.222  78.830  31.544  0.00  0.00    +0.209 HD
ENDBRANCH  39  40
ENDBRANCH  38  39
ENDBRANCH  37  38
ENDBRANCH  36  37
ENDBRANCH  35  36
ENDBRANCH  31  35
ENDBRANCH   1  32
TORSDOF 12
ENDMDL
MODEL 3
REMARK VINA RESULT:      -6.3     11.888     18.342
REMARK  Name = pdb/CHEMBL3973508.pdb
REMARK                            x       y       z     vdW  Elec       q    Type
REMARK                         _______ _______ _______ _____ _____    ______ ____
ROOT
ATOM      1  C   LIG    1      -36.684  76.889  26.930  0.00  0.00    +0.131 C 
ATOM      2  N   LIG    1      -37.668  77.566  26.313  0.00  0.00    -0.141 NA
ATOM      3  N   LIG    1      -38.404  76.624  25.646  0.00  0.00    -0.201 N 
ATOM      4  C   LIG    1      -37.765  75.372  25.668  0.00  0.00    +0.185 C 
ATOM      5  C   LIG    1      -36.757  75.514  26.599  0.00  0.00    +0.056 C 
ENDROOT
BRANCH   3   6
ATOM      6  C   LIG    1      -39.618  77.002  24.987  0.00  0.00    +0.052 A 
ATOM      7  C   LIG    1      -40.397  78.049  25.514  0.00  0.00    +0.025 A 
ATOM      8  C   LIG    1      -41.570  78.461  24.867  0.00  0.00    +0.002 A 
ATOM      9  C   LIG    1      -41.996  77.815  23.710  0.00  0.00    +0.000 A 
ATOM     10  C   LIG    1      -41.259  76.745  23.208  0.00  0.00    +0.002 A 
ATOM     11  C   LIG    1      -40.075  76.337  23.842  0.00  0.00    +0.025 A 
ENDBRANCH   3   6
BRANCH   4  12
ATOM     12  N   LIG    1      -38.005  74.229  24.875  0.00  0.00    -0.282 N 
ATOM     13  H   LIG    1      -37.442  74.092  24.046  0.00  0.00    +0.152 HD
ATOM     14  C   LIG    1      -38.924  73.178  25.264  0.00  0.00    +0.247 C 
ATOM     15  O   LIG    1      -39.536  73.249  26.340  0.00  0.00    -0.270 OA
BRANCH  14  16
ATOM     16  C   LIG    1      -39.141  71.979  24.427  0.00  0.00    +0.056 A 
ATOM     17  C   LIG    1      -40.269  71.751  23.646  0.00  0.00    +0.054 A 
ATOM     18 CL   LIG    1      -41.560  72.876  23.486  0.00  0.00    -0.083 Cl
ATOM     19  C   LIG    1      -40.397  70.537  22.964  0.00  0.00    +0.041 A 
ATOM     20  C   LIG    1      -39.412  69.533  23.038  0.00  0.00    +0.052 A 
ATOM     21 CL   LIG    1      -39.749  68.139  22.073  0.00  0.00    -0.083 Cl
ATOM     22  C   LIG    1      -38.245  69.719  23.801  0.00  0.00    +0.022 A 
ATOM     23  C   LIG    1      -38.159  70.959  24.489  0.00  0.00    +0.026 A 
BRANCH  22  24
ATOM     24  C   LIG    1      -37.084  68.783  23.892  0.00  0.00    +0.107 A 
ATOM     25  C   LIG    1      -36.316  68.302  22.830  0.00  0.00    +0.149 A 
ATOM     26  F   LIG    1      -36.606  68.572  21.551  0.00  0.00    -0.203 F 
ATOM     27  C   LIG    1      -35.229  67.462  23.074  0.00  0.00    +0.042 A 
ATOM     28  C   LIG    1      -34.948  67.066  24.373  0.00  0.00    +0.023 A 
ATOM     29  C   LIG    1      -35.770  67.534  25.379  0.00  0.00    +0.111 A 
ATOM     30  N   LIG    1      -36.811  68.379  25.170  0.00  0.00    -0.252 NA
ENDBRANCH  22  24
ENDBRANCH  14  16
ENDBRANCH   4  12
BRANCH   1  32
ATOM     31  N   LIG    1      -34.996  76.805  28.664  0.00  0.00    -0.247 NA
ATOM     32  C   LIG    1      -35.629  77.480  27.776  0.00  0.00    +0.233 C 
BRANCH  32  33
ATOM     33  O   LIG    1      -35.452  78.803  27.545  0.00  0.00    -0.491 OA
ATOM     34  H   LIG    1      -35.670  79.040  26.632  0.00  0.00    +0.294 HD
ENDBRANCH  32  33
BRANCH  31  35
ATOM     35  C   LIG    1      -34.006  77.434  29.550  0.00  0.00    +0.173 C 
BRANCH  35  36
ATOM     36  C   LIG    1      -32.772  76.531  29.750  0.00  0.00    +0.183 C 
BRANCH  36  37
ATOM     37  O   LIG    1      -31.862  76.676  28.655  0.00  0.00    -0.376 OA
BRANCH  37  38
ATOM     38  C   LIG    1      -32.050  77.883  27.895  0.00  0.00    +0.187 C 
BRANCH  38  39
ATOM     39  C   LIG    1      -32.174  77.665  26.381  0.00  0.00    +0.184 C 
BRANCH  39  40
ATOM     40  O   LIG    1      -32.300  78.911  25.701  0.00  0.00    -0.393 OA
ATOM     41  H   LIG    1      -32.306  79.610  26.379  0.00  0.00    +0.209 HD
ENDBRANCH  39  40
ENDBRANCH  38  39
ENDBRANCH  37  38
ENDBRANCH  36  37
ENDBRANCH  35  36
ENDBRANCH  31  35
ENDBRANCH   1  32
TORSDOF 12
ENDMDL
MODEL 4
REMARK VINA RESULT:      -6.2     12.054     17.547
REMARK  Name = pdb/CHEMBL3973508.pdb
REMARK                            x       y       z     vdW  Elec       q    Type
REMARK                         _______ _______ _______ _____ _____    ______ ____
ROOT
ATOM      1  C   LIG    1      -36.900  75.370  26.573  0.00  0.00    +0.131 C 
ATOM      2  N   LIG    1      -37.802  74.444  26.203  0.00  0.00    -0.141 NA
ATOM      3  N   LIG    1      -38.583  75.048  25.255  0.00  0.00    -0.201 N 
ATOM      4  C   LIG    1      -38.311  76.424  25.173  0.00  0.00    +0.185 C 
ATOM      5  C   LIG    1      -37.152  76.592  25.902  0.00  0.00    +0.056 C 
ENDROOT
BRANCH   3   6
ATOM      6  C   LIG    1      -39.570  74.283  24.552  0.00  0.00    +0.052 A 
ATOM      7  C   LIG    1      -39.383  72.899  24.381  0.00  0.00    +0.025 A 
ATOM      8  C   LIG    1      -40.352  72.124  23.728  0.00  0.00    +0.002 A 
ATOM      9  C   LIG    1      -41.497  72.723  23.211  0.00  0.00    +0.000 A 
ATOM     10  C   LIG    1      -41.668  74.100  23.331  0.00  0.00    +0.002 A 
ATOM     11  C   LIG    1      -40.710  74.880  23.996  0.00  0.00    +0.025 A 
ENDBRANCH   3   6
BRANCH   4  12
ATOM     12  N   LIG    1      -39.066  77.453  24.571  0.00  0.00    -0.282 N 
ATOM     13  H   LIG    1      -39.009  77.568  23.567  0.00  0.00    +0.152 HD
ATOM     14  C   LIG    1      -40.019  78.265  25.302  0.00  0.00    +0.247 C 
ATOM     15  O   LIG    1      -40.212  78.065  26.511  0.00  0.00    -0.270 OA
BRANCH  14  16
ATOM     16  C   LIG    1      -40.815  79.323  24.644  0.00  0.00    +0.056 A 
ATOM     17  C   LIG    1      -42.152  79.199  24.284  0.00  0.00    +0.054 A 
ATOM     18 CL   LIG    1      -43.104  77.806  24.618  0.00  0.00    -0.083 Cl
ATOM     19  C   LIG    1      -42.773  80.240  23.587  0.00  0.00    +0.041 A 
ATOM     20  C   LIG    1      -42.087  81.420  23.241  0.00  0.00    +0.052 A 
ATOM     21 CL   LIG    1      -43.062  82.595  22.432  0.00  0.00    -0.083 Cl
ATOM     22  C   LIG    1      -40.737  81.602  23.595  0.00  0.00    +0.022 A 
ATOM     23  C   LIG    1      -40.138  80.517  24.290  0.00  0.00    +0.026 A 
BRANCH  22  24
ATOM     24  C   LIG    1      -39.919  82.832  23.375  0.00  0.00    +0.107 A 
ATOM     25  C   LIG    1      -39.660  83.455  22.153  0.00  0.00    +0.149 A 
ATOM     26  F   LIG    1      -40.065  82.942  20.984  0.00  0.00    -0.203 F 
ATOM     27  C   LIG    1      -38.909  84.629  22.108  0.00  0.00    +0.042 A 
ATOM     28  C   LIG    1      -38.378  85.146  23.280  0.00  0.00    +0.023 A 
ATOM     29  C   LIG    1      -38.625  84.463  24.454  0.00  0.00    +0.111 A 
ATOM     30  N   LIG    1      -39.381  83.339  24.527  0.00  0.00    -0.252 NA
ENDBRANCH  22  24
ENDBRANCH  14  16
ENDBRANCH   4  12
BRANCH   1  32
ATOM     31  N   LIG    1      -35.370  76.155  28.279  0.00  0.00    -0.247 NA
ATOM     32  C   LIG    1      -35.838  75.185  27.581  0.00  0.00    +0.233 C 
BRANCH  32  33
ATOM     33  O   LIG    1      -35.389  73.909  27.641  0.00  0.00    -0.491 OA
ATOM     34  H   LIG    1      -34.423  73.866  27.614  0.00  0.00    +0.294 HD
ENDBRANCH  32  33
BRANCH  31  35
ATOM     35  C   LIG    1      -34.257  75.962  29.219  0.00  0.00    +0.173 C 
BRANCH  35  36
ATOM     36  C   LIG    1      -32.893  76.028  28.502  0.00  0.00    +0.183 C 
BRANCH  36  37
ATOM     37  O   LIG    1      -32.207  77.237  28.841  0.00  0.00    -0.376 OA
BRANCH  37  38
ATOM     38  C   LIG    1      -32.380  78.295  27.882  0.00  0.00    +0.187 C 
BRANCH  38  39
ATOM     39  C   LIG    1      -32.310  77.840  26.417  0.00  0.00    +0.184 C 
BRANCH  39  40
ATOM     40  O   LIG    1      -32.342  78.961  25.538  0.00  0.00    -0.393 OA
ATOM     41  H   LIG    1      -33.183  79.425  25.695  0.00  0.00    +0.209 HD
ENDBRANCH  39  40
ENDBRANCH  38  39
ENDBRANCH  37  38
ENDBRANCH  36  37
ENDBRANCH  35  36
ENDBRANCH  31  35
ENDBRANCH   1  32
TORSDOF 12
ENDMDL
MODEL 5
REMARK VINA RESULT:      -6.2     10.392     14.881
REMARK  Name = pdb/CHEMBL3973508.pdb
REMARK                            x       y       z     vdW  Elec       q    Type
REMARK                         _______ _______ _______ _____ _____    ______ ____
ROOT
ATOM      1  C   LIG    1      -31.626  74.149  29.717  0.00  0.00    +0.131 C 
ATOM      2  N   LIG    1      -31.518  75.435  29.341  0.00  0.00    -0.141 NA
ATOM      3  N   LIG    1      -32.669  75.718  28.656  0.00  0.00    -0.201 N 
ATOM      4  C   LIG    1      -33.417  74.553  28.416  0.00  0.00    +0.185 C 
ATOM      5  C   LIG    1      -32.827  73.592  29.212  0.00  0.00    +0.056 C 
ENDROOT
BRANCH   3   6
ATOM      6  C   LIG    1      -32.932  77.059  28.228  0.00  0.00    +0.052 A 
ATOM      7  C   LIG    1      -33.904  77.824  28.899  0.00  0.00    +0.025 A 
ATOM      8  C   LIG    1      -34.154  79.151  28.522  0.00  0.00    +0.002 A 
ATOM      9  C   LIG    1      -33.463  79.717  27.454  0.00  0.00    +0.000 A 
ATOM     10  C   LIG    1      -32.535  78.953  26.751  0.00  0.00    +0.002 A 
ATOM     11  C   LIG    1      -32.269  77.629  27.132  0.00  0.00    +0.025 A 
ENDBRANCH   3   6
BRANCH   4  12
ATOM     12  N   LIG    1      -34.481  74.340  27.513  0.00  0.00    -0.282 N 
ATOM     13  H   LIG    1      -34.263  73.995  26.586  0.00  0.00    +0.152 HD
ATOM     14  C   LIG    1      -35.874  74.462  27.891  0.00  0.00    +0.247 C 
ATOM     15  O   LIG    1      -36.182  74.755  29.056  0.00  0.00    -0.270 OA
BRANCH  14  16
ATOM     16  C   LIG    1      -36.971  74.211  26.932  0.00  0.00    +0.056 A 
ATOM     17  C   LIG    1      -37.365  72.952  26.491  0.00  0.00    +0.054 A 
ATOM     18 CL   LIG    1      -36.670  71.484  27.056  0.00  0.00    -0.083 Cl
ATOM     19  C   LIG    1      -38.361  72.849  25.515  0.00  0.00    +0.041 A 
ATOM     20  C   LIG    1      -38.986  73.984  24.964  0.00  0.00    +0.052 A 
ATOM     21 CL   LIG    1      -40.225  73.622  23.815  0.00  0.00    -0.083 Cl
ATOM     22  C   LIG    1      -38.635  75.280  25.386  0.00  0.00    +0.022 A 
ATOM     23  C   LIG    1      -37.611  75.343  26.369  0.00  0.00    +0.026 A 
BRANCH  22  24
ATOM     24  C   LIG    1      -39.278  76.558  24.958  0.00  0.00    +0.107 A 
ATOM     25  C   LIG    1      -38.801  77.450  23.995  0.00  0.00    +0.149 A 
ATOM     26  F   LIG    1      -37.619  77.289  23.388  0.00  0.00    -0.203 F 
ATOM     27  C   LIG    1      -39.536  78.589  23.668  0.00  0.00    +0.042 A 
ATOM     28  C   LIG    1      -40.717  78.858  24.343  0.00  0.00    +0.023 A 
ATOM     29  C   LIG    1      -41.117  77.968  25.320  0.00  0.00    +0.111 A 
ATOM     30  N   LIG    1      -40.437  76.835  25.630  0.00  0.00    -0.252 NA
ENDBRANCH  22  24
ENDBRANCH  14  16
ENDBRANCH   4  12
BRANCH   1  32
ATOM     31  N   LIG    1      -30.214  72.225  30.128  0.00  0.00    -0.247 NA
ATOM     32  C   LIG    1      -30.622  73.387  30.485  0.00  0.00    +0.233 C 
BRANCH  32  33
ATOM     33  O   LIG    1      -30.233  74.024  31.615  0.00  0.00    -0.491 OA
ATOM     34  H   LIG    1      -30.237  73.432  32.381  0.00  0.00    +0.294 HD
ENDBRANCH  32  33
BRANCH  31  35
ATOM     35  C   LIG    1      -29.274  71.450  30.950  0.00  0.00    +0.173 C 
BRANCH  35  36
ATOM     36  C   LIG    1      -29.453  69.934  30.738  0.00  0.00    +0.183 C 
BRANCH  36  37
ATOM     37  O   LIG    1      -28.181  69.290  30.617  0.00  0.00    -0.376 OA
BRANCH  37  38
ATOM     38  C   LIG    1      -27.130  70.158  30.155  0.00  0.00    +0.187 C 
BRANCH  38  39
ATOM     39  C   LIG    1      -25.994  69.438  29.415  0.00  0.00    +0.184 C 
BRANCH  39  40
ATOM     40  O   LIG    1      -26.124  69.608  28.006  0.00  0.00    -0.393 OA
ATOM     41  H   LIG    1      -25.385  70.170  27.715  0.00  0.00    +0.209 HD
ENDBRANCH  39  40
ENDBRANCH  38  39
ENDBRANCH  37  38
ENDBRANCH  36  37
ENDBRANCH  35  36
ENDBRANCH  31  35
ENDBRANCH   1  32
TORSDOF 12
ENDMDL
MODEL 6
REMARK VINA RESULT:      -6.0      2.187      2.951
REMARK  Name = pdb/CHEMBL3973508.pdb
REMARK                            x       y       z     vdW  Elec       q    Type
REMARK                         _______ _______ _______ _____ _____    ______ ____
ROOT
ATOM      1  C   LIG    1      -26.674  76.194  31.956  0.00  0.00    +0.131 C 
ATOM      2  N   LIG    1      -25.608  75.925  31.182  0.00  0.00    -0.141 NA
ATOM      3  N   LIG    1      -24.576  76.651  31.710  0.00  0.00    -0.201 N 
ATOM      4  C   LIG    1      -25.032  77.545  32.694  0.00  0.00    +0.185 C 
ATOM      5  C   LIG    1      -26.331  77.149  32.945  0.00  0.00    +0.056 C 
ENDROOT
BRANCH   3   6
ATOM      6  C   LIG    1      -23.250  76.486  31.192  0.00  0.00    +0.052 A 
ATOM      7  C   LIG    1      -22.242  75.958  32.020  0.00  0.00    +0.025 A 
ATOM      8  C   LIG    1      -20.946  75.753  31.525  0.00  0.00    +0.002 A 
ATOM      9  C   LIG    1      -20.634  76.102  30.214  0.00  0.00    +0.000 A 
ATOM     10  C   LIG    1      -21.611  76.671  29.402  0.00  0.00    +0.002 A 
ATOM     11  C   LIG    1      -22.914  76.866  29.886  0.00  0.00    +0.025 A 
ENDBRANCH   3   6
BRANCH   4  12
ATOM     12  N   LIG    1      -24.383  78.661  33.263  0.00  0.00    -0.282 N 
ATOM     13  H   LIG    1      -24.587  79.579  32.889  0.00  0.00    +0.152 HD
ATOM     14  C   LIG    1      -23.545  78.570  34.442  0.00  0.00    +0.247 C 
ATOM     15  O   LIG    1      -23.377  77.479  35.007  0.00  0.00    -0.270 OA
BRANCH  14  16
ATOM     16  C   LIG    1      -22.894  79.759  35.033  0.00  0.00    +0.056 A 
ATOM     17  C   LIG    1      -21.543  80.065  34.910  0.00  0.00    +0.054 A 
ATOM     18 CL   LIG    1      -20.434  79.131  33.986  0.00  0.00    -0.083 Cl
ATOM     19  C   LIG    1      -21.028  81.175  35.588  0.00  0.00    +0.041 A 
ATOM     20  C   LIG    1      -21.838  82.000  36.392  0.00  0.00    +0.052 A 
ATOM     21 CL   LIG    1      -21.006  83.344  37.090  0.00  0.00    -0.083 Cl
ATOM     22  C   LIG    1      -23.214  81.744  36.536  0.00  0.00    +0.022 A 
ATOM     23  C   LIG    1      -23.696  80.601  35.843  0.00  0.00    +0.026 A 
BRANCH  22  24
ATOM     24  C   LIG    1      -24.201  82.585  37.276  0.00  0.00    +0.107 A 
ATOM     25  C   LIG    1      -24.118  82.993  38.609  0.00  0.00    +0.149 A 
ATOM     26  F   LIG    1      -23.142  82.581  39.427  0.00  0.00    -0.203 F 
ATOM     27  C   LIG    1      -25.102  83.818  39.153  0.00  0.00    +0.042 A 
ATOM     28  C   LIG    1      -26.190  84.189  38.378  0.00  0.00    +0.023 A 
ATOM     29  C   LIG    1      -26.246  83.717  37.081  0.00  0.00    +0.111 A 
ATOM     30  N   LIG    1      -25.284  82.943  36.519  0.00  0.00    -0.252 NA
ENDBRANCH  22  24
ENDBRANCH  14  16
ENDBRANCH   4  12
BRANCH   1  32
ATOM     31  N   LIG    1      -28.339  74.443  32.118  0.00  0.00    -0.247 NA
ATOM     32  C   LIG    1      -28.031  75.641  31.779  0.00  0.00    +0.233 C 
BRANCH  32  33
ATOM     33  O   LIG    1      -28.878  76.512  31.179  0.00  0.00    -0.491 OA
ATOM     34  H   LIG    1      -29.803  76.302  31.370  0.00  0.00    +0.294 HD
ENDBRANCH  32  33
BRANCH  31  35
ATOM     35  C   LIG    1      -29.675  73.887  31.858  0.00  0.00    +0.173 C 
BRANCH  35  36
ATOM     36  C   LIG    1      -29.691  72.354  32.020  0.00  0.00    +0.183 C 
BRANCH  36  37
ATOM     37  O   LIG    1      -30.527  71.753  31.026  0.00  0.00    -0.376 OA
BRANCH  37  38
ATOM     38  C   LIG    1      -29.805  71.019  30.021  0.00  0.00    +0.187 C 
BRANCH  38  39
ATOM     39  C   LIG    1      -28.449  70.473  30.489  0.00  0.00    +0.184 C 
BRANCH  39  40
ATOM     40  O   LIG    1      -27.568  70.297  29.382  0.00  0.00    -0.393 OA
ATOM     41  H   LIG    1      -27.955  70.773  28.627  0.00  0.00    +0.209 HD
ENDBRANCH  39  40
ENDBRANCH  38  39
ENDBRANCH  37  38
ENDBRANCH  36  37
ENDBRANCH  35  36
ENDBRANCH  31  35
ENDBRANCH   1  32
TORSDOF 12
ENDMDL
MODEL 7
REMARK VINA RESULT:      -5.9     12.484     19.307
REMARK  Name = pdb/CHEMBL3973508.pdb
REMARK                            x       y       z     vdW  Elec       q    Type
REMARK                         _______ _______ _______ _____ _____    ______ ____
ROOT
ATOM      1  C   LIG    1      -38.109  74.577  26.203  0.00  0.00    +0.131 C 
ATOM      2  N   LIG    1      -39.181  74.482  25.396  0.00  0.00    -0.141 NA
ATOM      3  N   LIG    1      -39.098  73.245  24.816  0.00  0.00    -0.201 N 
ATOM      4  C   LIG    1      -37.863  72.635  25.093  0.00  0.00    +0.185 C 
ATOM      5  C   LIG    1      -37.305  73.417  26.084  0.00  0.00    +0.056 C 
ENDROOT
BRANCH   3   6
ATOM      6  C   LIG    1      -40.170  72.771  23.992  0.00  0.00    +0.052 A 
ATOM      7  C   LIG    1      -40.243  71.403  23.667  0.00  0.00    +0.025 A 
ATOM      8  C   LIG    1      -41.302  70.910  22.892  0.00  0.00    +0.002 A 
ATOM      9  C   LIG    1      -42.278  71.776  22.408  0.00  0.00    +0.000 A 
ATOM     10  C   LIG    1      -42.189  73.138  22.682  0.00  0.00    +0.002 A 
ATOM     11  C   LIG    1      -41.139  73.637  23.469  0.00  0.00    +0.025 A 
ENDBRANCH   3   6
BRANCH   4  12
ATOM     12  N   LIG    1      -37.249  71.528  24.468  0.00  0.00    -0.282 N 
ATOM     13  H   LIG    1      -36.743  71.682  23.605  0.00  0.00    +0.152 HD
ATOM     14  C   LIG    1      -37.194  70.211  25.071  0.00  0.00    +0.247 C 
ATOM     15  O   LIG    1      -37.690  70.015  26.191  0.00  0.00    -0.270 OA
BRANCH  14  16
ATOM     16  C   LIG    1      -36.524  69.073  24.406  0.00  0.00    +0.056 A 
ATOM     17  C   LIG    1      -35.335  68.494  24.836  0.00  0.00    +0.054 A 
ATOM     18 CL   LIG    1      -34.497  68.978  26.257  0.00  0.00    -0.083 Cl
ATOM     19  C   LIG    1      -34.754  67.476  24.072  0.00  0.00    +0.041 A 
ATOM     20  C   LIG    1      -35.340  67.012  22.878  0.00  0.00    +0.052 A 
ATOM     21 CL   LIG    1      -34.482  65.714  22.127  0.00  0.00    -0.083 Cl
ATOM     22  C   LIG    1      -36.550  67.554  22.408  0.00  0.00    +0.022 A 
ATOM     23  C   LIG    1      -37.102  68.594  23.204  0.00  0.00    +0.026 A 
BRANCH  22  24
ATOM     24  C   LIG    1      -37.325  67.095  21.217  0.00  0.00    +0.107 A 
ATOM     25  C   LIG    1      -37.534  67.807  20.033  0.00  0.00    +0.149 A 
ATOM     26  F   LIG    1      -37.115  69.067  19.868  0.00  0.00    -0.203 F 
ATOM     27  C   LIG    1      -38.248  67.229  18.984  0.00  0.00    +0.042 A 
ATOM     28  C   LIG    1      -38.794  65.964  19.143  0.00  0.00    +0.023 A 
ATOM     29  C   LIG    1      -38.598  65.326  20.351  0.00  0.00    +0.111 A 
ATOM     30  N   LIG    1      -37.878  65.853  21.373  0.00  0.00    -0.252 NA
ENDBRANCH  22  24
ENDBRANCH  14  16
ENDBRANCH   4  12
BRANCH   1  32
ATOM     31  N   LIG    1      -36.814  76.549  26.748  0.00  0.00    -0.247 NA
ATOM     32  C   LIG    1      -37.763  75.738  27.045  0.00  0.00    +0.233 C 
BRANCH  32  33
ATOM     33  O   LIG    1      -38.516  75.814  28.168  0.00  0.00    -0.491 OA
ATOM     34  H   LIG    1      -39.272  75.211  28.135  0.00  0.00    +0.294 HD
ENDBRANCH  32  33
BRANCH  31  35
ATOM     35  C   LIG    1      -36.435  77.652  27.642  0.00  0.00    +0.173 C 
BRANCH  35  36
ATOM     36  C   LIG    1      -34.987  77.497  28.150  0.00  0.00    +0.183 C 
BRANCH  36  37
ATOM     37  O   LIG    1      -34.255  76.599  27.310  0.00  0.00    -0.376 OA
BRANCH  37  38
ATOM     38  C   LIG    1      -32.890  76.992  27.085  0.00  0.00    +0.187 C 
BRANCH  38  39
ATOM     39  C   LIG    1      -32.681  78.507  26.950  0.00  0.00    +0.184 C 
BRANCH  39  40
ATOM     40  O   LIG    1      -32.295  78.846  25.620  0.00  0.00    -0.393 OA
ATOM     41  H   LIG    1      -32.357  78.034  25.087  0.00  0.00    +0.209 HD
ENDBRANCH  39  40
ENDBRANCH  38  39
ENDBRANCH  37  38
ENDBRANCH  36  37
ENDBRANCH  35  36
ENDBRANCH  31  35
ENDBRANCH   1  32
TORSDOF 12
ENDMDL
MODEL 8
REMARK VINA RESULT:      -5.9      7.095     13.517
REMARK  Name = pdb/CHEMBL3973508.pdb
REMARK                            x       y       z     vdW  Elec       q    Type
REMARK                         _______ _______ _______ _____ _____    ______ ____
ROOT
ATOM      1  C   LIG    1      -29.386  75.665  31.328  0.00  0.00    +0.131 C 
ATOM      2  N   LIG    1      -30.096  76.187  30.313  0.00  0.00    -0.141 NA
ATOM      3  N   LIG    1      -31.121  75.308  30.089  0.00  0.00    -0.201 N 
ATOM      4  C   LIG    1      -30.943  74.122  30.822  0.00  0.00    +0.185 C 
ATOM      5  C   LIG    1      -29.926  74.412  31.709  0.00  0.00    +0.056 C 
ENDROOT
BRANCH   3   6
ATOM      6  C   LIG    1      -32.150  75.637  29.148  0.00  0.00    +0.052 A 
ATOM      7  C   LIG    1      -33.204  74.731  28.926  0.00  0.00    +0.025 A 
ATOM      8  C   LIG    1      -34.241  75.046  28.038  0.00  0.00    +0.002 A 
ATOM      9  C   LIG    1      -34.222  76.250  27.338  0.00  0.00    +0.000 A 
ATOM     10  C   LIG    1      -33.159  77.132  27.513  0.00  0.00    +0.002 A 
ATOM     11  C   LIG    1      -32.124  76.829  28.412  0.00  0.00    +0.025 A 
ENDBRANCH   3   6
BRANCH   4  12
ATOM     12  N   LIG    1      -31.573  72.868  30.667  0.00  0.00    -0.282 N 
ATOM     13  H   LIG    1      -32.491  72.737  31.072  0.00  0.00    +0.152 HD
ATOM     14  C   LIG    1      -31.027  71.808  29.843  0.00  0.00    +0.247 C 
ATOM     15  O   LIG    1      -29.966  71.980  29.224  0.00  0.00    -0.270 OA
BRANCH  14  16
ATOM     16  C   LIG    1      -31.718  70.511  29.678  0.00  0.00    +0.056 A 
ATOM     17  C   LIG    1      -31.334  69.326  30.296  0.00  0.00    +0.054 A 
ATOM     18 CL   LIG    1      -30.027  69.210  31.407  0.00  0.00    -0.083 Cl
ATOM     19  C   LIG    1      -32.017  68.143  29.993  0.00  0.00    +0.041 A 
ATOM     20  C   LIG    1      -33.090  68.114  29.081  0.00  0.00    +0.052 A 
ATOM     21 CL   LIG    1      -33.822  66.559  28.900  0.00  0.00    -0.083 Cl
ATOM     22  C   LIG    1      -33.528  69.288  28.441  0.00  0.00    +0.022 A 
ATOM     23  C   LIG    1      -32.801  70.465  28.765  0.00  0.00    +0.026 A 
BRANCH  22  24
ATOM     24  C   LIG    1      -34.704  69.417  27.530  0.00  0.00    +0.107 A 
ATOM     25  C   LIG    1      -34.860  68.819  26.278  0.00  0.00    +0.149 A 
ATOM     26  F   LIG    1      -33.889  68.103  25.698  0.00  0.00    -0.203 F 
ATOM     27  C   LIG    1      -36.040  68.999  25.556  0.00  0.00    +0.042 A 
ATOM     28  C   LIG    1      -37.036  69.817  26.067  0.00  0.00    +0.023 A 
ATOM     29  C   LIG    1      -36.809  70.422  27.287  0.00  0.00    +0.111 A 
ATOM     30  N   LIG    1      -35.685  70.235  28.023  0.00  0.00    -0.252 NA
ENDBRANCH  22  24
ENDBRANCH  14  16
ENDBRANCH   4  12
BRANCH   1  32
ATOM     31  N   LIG    1      -27.377  75.591  32.679  0.00  0.00    -0.247 NA
ATOM     32  C   LIG    1      -28.175  76.258  31.928  0.00  0.00    +0.233 C 
BRANCH  32  33
ATOM     33  O   LIG    1      -28.039  77.575  31.642  0.00  0.00    -0.491 OA
ATOM     34  H   LIG    1      -28.596  77.840  30.897  0.00  0.00    +0.294 HD
ENDBRANCH  32  33
BRANCH  31  35
ATOM     35  C   LIG    1      -26.221  76.223  33.331  0.00  0.00    +0.173 C 
BRANCH  35  36
ATOM     36  C   LIG    1      -24.894  75.783  32.680  0.00  0.00    +0.183 C 
BRANCH  36  37
ATOM     37  O   LIG    1      -24.298  76.873  31.970  0.00  0.00    -0.376 OA
BRANCH  37  38
ATOM     38  C   LIG    1      -24.513  76.831  30.549  0.00  0.00    +0.187 C 
BRANCH  38  39
ATOM     39  C   LIG    1      -23.236  76.986  29.711  0.00  0.00    +0.184 C 
BRANCH  39  40
ATOM     40  O   LIG    1      -23.251  78.217  28.992  0.00  0.00    -0.393 OA
ATOM     41  H   LIG    1      -23.286  78.934  29.650  0.00  0.00    +0.209 HD
ENDBRANCH  39  40
ENDBRANCH  38  39
ENDBRANCH  37  38
ENDBRANCH  36  37
ENDBRANCH  35  36
ENDBRANCH  31  35
ENDBRANCH   1  32
TORSDOF 12
ENDMDL
MODEL 9
REMARK VINA RESULT:      -5.8     12.299     19.899
REMARK  Name = pdb/CHEMBL3973508.pdb
REMARK                            x       y       z     vdW  Elec       q    Type
REMARK                         _______ _______ _______ _____ _____    ______ ____
ROOT
ATOM      1  C   LIG    1      -37.089  74.801  27.097  0.00  0.00    +0.131 C 
ATOM      2  N   LIG    1      -37.854  75.650  26.388  0.00  0.00    -0.141 NA
ATOM      3  N   LIG    1      -38.520  74.876  25.477  0.00  0.00    -0.201 N 
ATOM      4  C   LIG    1      -38.022  73.562  25.467  0.00  0.00    +0.185 C 
ATOM      5  C   LIG    1      -37.221  73.485  26.588  0.00  0.00    +0.056 C 
ENDROOT
BRANCH   3   6
ATOM      6  C   LIG    1      -39.528  75.462  24.645  0.00  0.00    +0.052 A 
ATOM      7  C   LIG    1      -40.655  74.702  24.281  0.00  0.00    +0.025 A 
ATOM      8  C   LIG    1      -41.673  75.265  23.497  0.00  0.00    +0.002 A 
ATOM      9  C   LIG    1      -41.562  76.576  23.043  0.00  0.00    +0.000 A 
ATOM     10  C   LIG    1      -40.428  77.321  23.357  0.00  0.00    +0.002 A 
ATOM     11  C   LIG    1      -39.412  76.769  24.153  0.00  0.00    +0.025 A 
ENDBRANCH   3   6
BRANCH   4  12
ATOM     12  N   LIG    1      -38.199  72.543  24.506  0.00  0.00    -0.282 N 
ATOM     13  H   LIG    1      -37.528  72.471  23.752  0.00  0.00    +0.152 HD
ATOM     14  C   LIG    1      -39.215  71.516  24.622  0.00  0.00    +0.247 C 
ATOM     15  O   LIG    1      -39.973  71.495  25.603  0.00  0.00    -0.270 OA
BRANCH  14  16
ATOM     16  C   LIG    1      -39.365  70.445  23.613  0.00  0.00    +0.056 A 
ATOM     17  C   LIG    1      -38.398  69.489  23.323  0.00  0.00    +0.054 A 
ATOM     18 CL   LIG    1      -36.897  69.370  24.154  0.00  0.00    -0.083 Cl
ATOM     19  C   LIG    1      -38.623  68.579  22.286  0.00  0.00    +0.041 A 
ATOM     20  C   LIG    1      -39.807  68.596  21.523  0.00  0.00    +0.052 A 
ATOM     21 CL   LIG    1      -39.898  67.349  20.330  0.00  0.00    -0.083 Cl
ATOM     22  C   LIG    1      -40.823  69.533  21.785  0.00  0.00    +0.022 A 
ATOM     23  C   LIG    1      -40.551  70.448  22.837  0.00  0.00    +0.026 A 
BRANCH  22  24
ATOM     24  C   LIG    1      -42.159  69.603  21.121  0.00  0.00    +0.107 A 
ATOM     25  C   LIG    1      -42.618  70.615  20.275  0.00  0.00    +0.149 A 
ATOM     26  F   LIG    1      -41.908  71.722  20.026  0.00  0.00    -0.203 F 
ATOM     27  C   LIG    1      -43.882  70.523  19.691  0.00  0.00    +0.042 A 
ATOM     28  C   LIG    1      -44.700  69.446  19.999  0.00  0.00    +0.023 A 
ATOM     29  C   LIG    1      -44.214  68.500  20.879  0.00  0.00    +0.111 A 
ATOM     30  N   LIG    1      -42.976  68.550  21.432  0.00  0.00    -0.252 NA
ENDBRANCH  22  24
ENDBRANCH  14  16
ENDBRANCH   4  12
BRANCH   1  32
ATOM     31  N   LIG    1      -34.977  75.564  28.004  0.00  0.00    -0.247 NA
ATOM     32  C   LIG    1      -36.183  75.172  28.201  0.00  0.00    +0.233 C 
BRANCH  32  33
ATOM     33  O   LIG    1      -36.746  75.002  29.421  0.00  0.00    -0.491 OA
ATOM     34  H   LIG    1      -37.706  75.120  29.393  0.00  0.00    +0.294 HD
ENDBRANCH  32  33
BRANCH  31  35
ATOM     35  C   LIG    1      -34.067  75.851  29.122  0.00  0.00    +0.173 C 
BRANCH  35  36
ATOM     36  C   LIG    1      -33.455  77.262  29.005  0.00  0.00    +0.183 C 
BRANCH  36  37
ATOM     37  O   LIG    1      -34.293  78.107  28.210  0.00  0.00    -0.376 OA
BRANCH  37  38
ATOM     38  C   LIG    1      -33.621  79.265  27.683  0.00  0.00    +0.187 C 
BRANCH  38  39
ATOM     39  C   LIG    1      -32.245  78.975  27.068  0.00  0.00    +0.184 C 
BRANCH  39  40
ATOM     40  O   LIG    1      -32.347  78.820  25.655  0.00  0.00    -0.393 OA
ATOM     41  H   LIG    1      -32.296  79.709  25.264  0.00  0.00    +0.209 HD
ENDBRANCH  39  40
ENDBRANCH  38  39
ENDBRANCH  37  38
ENDBRANCH  36  37
ENDBRANCH  35  36
ENDBRANCH  31  35
ENDBRANCH   1  32
TORSDOF 12
ENDMDL
