MODEL 1
REMARK VINA RESULT:      -6.2      0.000      0.000
REMARK  Name = pdb/CHEMBL3671435.pdb
REMARK                            x       y       z     vdW  Elec       q    Type
REMARK                         _______ _______ _______ _____ _____    ______ ____
ROOT
ATOM      1  C   LIG    1      -24.922  87.226  10.708  0.00  0.00    +0.042 A 
ATOM      2  C   LIG    1      -24.989  85.997  11.391  0.00  0.00    +0.038 A 
ATOM      3  C   LIG    1      -26.147  85.202  11.286  0.00  0.00    +0.052 A 
ATOM      4  C   LIG    1      -27.214  85.729  10.564  0.00  0.00    +0.134 A 
ATOM      5  N   LIG    1      -27.193  86.922   9.925  0.00  0.00    -0.261 NA
ATOM      6  C   LIG    1      -26.050  87.636  10.008  0.00  0.00    +0.122 A 
ENDROOT
BRANCH   3   7
ATOM      7  N   LIG    1      -26.181  83.915  11.869  0.00  0.00    -0.284 N 
ATOM      8  H   LIG    1      -26.650  83.813  12.774  0.00  0.00    +0.155 HD
ATOM      9  C   LIG    1      -25.689  82.740  11.319  0.00  0.00    +0.223 C 
ATOM     10  O   LIG    1      -25.124  82.659  10.227  0.00  0.00    -0.275 OA
BRANCH   9  11
ATOM     11  C   LIG    1      -25.769  81.481  12.173  0.00  0.00    +0.151 C 
BRANCH  11  12
ATOM     12  C   LIG    1      -24.851  81.422  13.361  0.00  0.00    +0.050 A 
ATOM     13  N   LIG    1      -23.944  82.423  13.490  0.00  0.00    -0.259 NA
ATOM     14  C   LIG    1      -23.133  82.414  14.562  0.00  0.00    +0.123 A 
ATOM     15  C   LIG    1      -23.144  81.414  15.515  0.00  0.00    +0.073 A 
ATOM     16  C   LIG    1      -24.038  80.354  15.341  0.00  0.00    +0.015 A 
ATOM     17  C   LIG    1      -24.903  80.352  14.249  0.00  0.00    +0.024 A 
BRANCH  15  18
ATOM     18  C   LIG    1      -22.205  81.528  16.670  0.00  0.00    +0.419 C 
ATOM     19  F   LIG    1      -21.021  82.097  16.315  0.00  0.00    -0.166 F 
ATOM     20  F   LIG    1      -21.894  80.316  17.203  0.00  0.00    -0.166 F 
ATOM     21  F   LIG    1      -22.692  82.277  17.694  0.00  0.00    -0.166 F 
ENDBRANCH  15  18
ENDBRANCH  11  12
ENDBRANCH   9  11
ENDBRANCH   3   7
BRANCH   1  22
ATOM     22  C   LIG    1      -23.737  88.141  10.695  0.00  0.00    +0.197 C 
ATOM     23  O   LIG    1      -23.791  89.169  10.004  0.00  0.00    -0.287 OA
BRANCH  22  31
ATOM     24  N   LIG    1      -20.493  87.018  11.977  0.00  0.00    -0.323 N 
ATOM     25  C   LIG    1      -21.096  87.357  13.168  0.00  0.00    +0.147 A 
ATOM     26  N   LIG    1      -20.590  87.164  14.398  0.00  0.00    -0.197 NA
ATOM     27  C   LIG    1      -21.368  87.619  15.381  0.00  0.00    +0.214 A 
ATOM     28  N   LIG    1      -22.511  88.298  15.231  0.00  0.00    -0.222 NA
ATOM     29  C   LIG    1      -23.006  88.471  13.979  0.00  0.00    +0.126 A 
ATOM     30  C   LIG    1      -22.320  87.951  12.880  0.00  0.00    +0.048 A 
ATOM     31  C   LIG    1      -22.546  87.821  11.472  0.00  0.00    +0.051 A 
ATOM     32  C   LIG    1      -21.346  87.367  10.947  0.00  0.00    +0.100 A 
BRANCH  24  34
ATOM     33  C   LIG    1      -17.991  87.174  12.384  0.00  0.00    +0.036 C 
ATOM     34  C   LIG    1      -19.167  86.400  11.751  0.00  0.00    +0.064 C 
ATOM     35  C   LIG    1      -18.890  86.343  10.228  0.00  0.00    +0.036 C 
BRANCH  34  36
ATOM     36  C   LIG    1      -19.166  84.943  12.300  0.00  0.00    +0.183 C 
BRANCH  36  37
ATOM     37  O   LIG    1      -18.660  84.826  13.628  0.00  0.00    -0.393 OA
ATOM     38  H   LIG    1      -19.123  85.474  14.188  0.00  0.00    +0.209 HD
ENDBRANCH  36  37
ENDBRANCH  34  36
ENDBRANCH  24  34
BRANCH  27  39
ATOM     39  N   LIG    1      -20.926  87.399  16.673  0.00  0.00    -0.327 N 
ATOM     40  H   LIG    1      -21.704  87.441  17.315  0.00  0.00    +0.145 HD
ATOM     41  H   LIG    1      -20.343  86.574  16.700  0.00  0.00    +0.145 HD
ENDBRANCH  27  39
ENDBRANCH  22  31
ENDBRANCH   1  22
TORSDOF 10
ENDMDL
MODEL 2
REMARK VINA RESULT:      -5.9     19.968     22.730
REMARK  Name = pdb/CHEMBL3671435.pdb
REMARK                            x       y       z     vdW  Elec       q    Type
REMARK                         _______ _______ _______ _____ _____    ______ ____
ROOT
ATOM      1  C   LIG    1      -34.026  71.167  28.085  0.00  0.00    +0.042 A 
ATOM      2  C   LIG    1      -35.009  71.569  27.160  0.00  0.00    +0.038 A 
ATOM      3  C   LIG    1      -35.294  70.756  26.047  0.00  0.00    +0.052 A 
ATOM      4  C   LIG    1      -34.512  69.618  25.876  0.00  0.00    +0.134 A 
ATOM      5  N   LIG    1      -33.537  69.222  26.728  0.00  0.00    -0.261 NA
ATOM      6  C   LIG    1      -33.324  70.000  27.810  0.00  0.00    +0.122 A 
ENDROOT
BRANCH   3   7
ATOM      7  N   LIG    1      -36.357  71.089  25.177  0.00  0.00    -0.284 N 
ATOM      8  H   LIG    1      -36.125  71.550  24.292  0.00  0.00    +0.155 HD
ATOM      9  C   LIG    1      -37.703  70.809  25.364  0.00  0.00    +0.223 C 
ATOM     10  O   LIG    1      -38.170  70.232  26.348  0.00  0.00    -0.275 OA
BRANCH   9  11
ATOM     11  C   LIG    1      -38.681  71.339  24.323  0.00  0.00    +0.151 C 
BRANCH  11  12
ATOM     12  C   LIG    1      -38.968  72.813  24.369  0.00  0.00    +0.050 A 
ATOM     13  N   LIG    1      -38.016  73.611  24.914  0.00  0.00    -0.259 NA
ATOM     14  C   LIG    1      -38.232  74.938  24.938  0.00  0.00    +0.123 A 
ATOM     15  C   LIG    1      -39.393  75.527  24.476  0.00  0.00    +0.073 A 
ATOM     16  C   LIG    1      -40.395  74.691  23.973  0.00  0.00    +0.015 A 
ATOM     17  C   LIG    1      -40.186  73.315  23.919  0.00  0.00    +0.024 A 
BRANCH  15  18
ATOM     18  C   LIG    1      -39.505  77.014  24.540  0.00  0.00    +0.419 C 
ATOM     19  F   LIG    1      -38.298  77.612  24.727  0.00  0.00    -0.166 F 
ATOM     20  F   LIG    1      -40.293  77.427  25.570  0.00  0.00    -0.166 F 
ATOM     21  F   LIG    1      -40.032  77.568  23.416  0.00  0.00    -0.166 F 
ENDBRANCH  15  18
ENDBRANCH  11  12
ENDBRANCH   9  11
ENDBRANCH   3   7
BRANCH   1  22
ATOM     22  C   LIG    1      -33.661  71.910  29.332  0.00  0.00    +0.197 C 
ATOM     23  O   LIG    1      -33.641  71.290  30.405  0.00  0.00    -0.287 OA
BRANCH  22  31
ATOM     24  N   LIG    1      -33.401  75.497  28.630  0.00  0.00    -0.323 N 
ATOM     25  C   LIG    1      -32.306  75.353  29.453  0.00  0.00    +0.147 A 
ATOM     26  N   LIG    1      -31.398  76.300  29.742  0.00  0.00    -0.197 NA
ATOM     27  C   LIG    1      -30.455  75.906  30.598  0.00  0.00    +0.214 A 
ATOM     28  N   LIG    1      -30.407  74.725  31.226  0.00  0.00    -0.222 NA
ATOM     29  C   LIG    1      -31.329  73.780  30.910  0.00  0.00    +0.126 A 
ATOM     30  C   LIG    1      -32.308  74.054  29.953  0.00  0.00    +0.048 A 
ATOM     31  C   LIG    1      -33.346  73.332  29.282  0.00  0.00    +0.051 A 
ATOM     32  C   LIG    1      -34.070  74.288  28.586  0.00  0.00    +0.100 A 
BRANCH  24  34
ATOM     33  C   LIG    1      -32.830  77.256  26.890  0.00  0.00    +0.036 C 
ATOM     34  C   LIG    1      -33.858  76.699  27.897  0.00  0.00    +0.064 C 
ATOM     35  C   LIG    1      -34.139  77.833  28.914  0.00  0.00    +0.036 C 
BRANCH  34  36
ATOM     36  C   LIG    1      -35.184  76.383  27.144  0.00  0.00    +0.183 C 
BRANCH  36  37
ATOM     37  O   LIG    1      -36.026  77.518  26.956  0.00  0.00    -0.393 OA
ATOM     38  H   LIG    1      -35.828  77.901  26.082  0.00  0.00    +0.209 HD
ENDBRANCH  36  37
ENDBRANCH  34  36
ENDBRANCH  24  34
BRANCH  27  39
ATOM     39  N   LIG    1      -29.460  76.820  30.890  0.00  0.00    -0.327 N 
ATOM     40  H   LIG    1      -28.936  77.038  30.055  0.00  0.00    +0.145 HD
ATOM     41  H   LIG    1      -29.848  77.593  31.412  0.00  0.00    +0.145 HD
ENDBRANCH  27  39
ENDBRANCH  22  31
ENDBRANCH   1  22
TORSDOF 10
ENDMDL
MODEL 3
REMARK VINA RESULT:      -5.9     21.176     23.303
REMARK  Name = pdb/CHEMBL3671435.pdb
REMARK                            x       y       z     vdW  Elec       q    Type
REMARK                         _______ _______ _______ _____ _____    ______ ____
ROOT
ATOM      1  C   LIG    1      -39.284  73.664  24.419  0.00  0.00    +0.042 A 
ATOM      2  C   LIG    1      -38.074  74.180  24.919  0.00  0.00    +0.038 A 
ATOM      3  C   LIG    1      -37.915  75.572  25.063  0.00  0.00    +0.052 A 
ATOM      4  C   LIG    1      -38.956  76.378  24.613  0.00  0.00    +0.134 A 
ATOM      5  N   LIG    1      -40.118  75.914  24.096  0.00  0.00    -0.261 NA
ATOM      6  C   LIG    1      -40.255  74.573  24.018  0.00  0.00    +0.122 A 
ENDROOT
BRANCH   3   7
ATOM      7  N   LIG    1      -36.752  76.095  25.673  0.00  0.00    -0.284 N 
ATOM      8  H   LIG    1      -35.902  76.157  25.105  0.00  0.00    +0.155 HD
ATOM      9  C   LIG    1      -36.643  76.596  26.963  0.00  0.00    +0.223 C 
ATOM     10  O   LIG    1      -37.565  76.637  27.779  0.00  0.00    -0.275 OA
BRANCH   9  11
ATOM     11  C   LIG    1      -35.261  77.035  27.429  0.00  0.00    +0.151 C 
BRANCH  11  12
ATOM     12  C   LIG    1      -34.385  75.965  28.017  0.00  0.00    +0.050 A 
ATOM     13  N   LIG    1      -34.796  74.681  27.868  0.00  0.00    -0.259 NA
ATOM     14  C   LIG    1      -34.014  73.701  28.354  0.00  0.00    +0.123 A 
ATOM     15  C   LIG    1      -32.837  73.937  29.038  0.00  0.00    +0.073 A 
ATOM     16  C   LIG    1      -32.454  75.266  29.241  0.00  0.00    +0.015 A 
ATOM     17  C   LIG    1      -33.236  76.297  28.728  0.00  0.00    +0.024 A 
BRANCH  15  18
ATOM     18  C   LIG    1      -32.048  72.762  29.513  0.00  0.00    +0.419 C 
ATOM     19  F   LIG    1      -30.742  72.835  29.139  0.00  0.00    -0.166 F 
ATOM     20  F   LIG    1      -32.518  71.588  29.012  0.00  0.00    -0.166 F 
ATOM     21  F   LIG    1      -32.046  72.621  30.866  0.00  0.00    -0.166 F 
ENDBRANCH  15  18
ENDBRANCH  11  12
ENDBRANCH   9  11
ENDBRANCH   3   7
BRANCH   1  22
ATOM     22  C   LIG    1      -39.601  72.209  24.263  0.00  0.00    +0.197 C 
ATOM     23  O   LIG    1      -40.751  71.887  23.930  0.00  0.00    -0.287 OA
BRANCH  22  31
ATOM     24  N   LIG    1      -36.882  70.095  25.514  0.00  0.00    -0.323 N 
ATOM     25  C   LIG    1      -37.026  69.550  24.257  0.00  0.00    +0.147 A 
ATOM     26  N   LIG    1      -36.247  68.603  23.707  0.00  0.00    -0.197 NA
ATOM     27  C   LIG    1      -36.630  68.226  22.487  0.00  0.00    +0.214 A 
ATOM     28  N   LIG    1      -37.730  68.638  21.845  0.00  0.00    -0.222 NA
ATOM     29  C   LIG    1      -38.495  69.604  22.416  0.00  0.00    +0.126 A 
ATOM     30  C   LIG    1      -38.133  70.139  23.653  0.00  0.00    +0.048 A 
ATOM     31  C   LIG    1      -38.580  71.198  24.507  0.00  0.00    +0.051 A 
ATOM     32  C   LIG    1      -37.872  71.045  25.688  0.00  0.00    +0.100 A 
BRANCH  24  34
ATOM     33  C   LIG    1      -35.707  68.260  26.817  0.00  0.00    +0.036 C 
ATOM     34  C   LIG    1      -35.883  69.771  26.556  0.00  0.00    +0.064 C 
ATOM     35  C   LIG    1      -36.333  70.401  27.898  0.00  0.00    +0.036 C 
BRANCH  34  36
ATOM     36  C   LIG    1      -34.504  70.382  26.171  0.00  0.00    +0.183 C 
BRANCH  36  37
ATOM     37  O   LIG    1      -33.790  69.627  25.194  0.00  0.00    -0.393 OA
ATOM     38  H   LIG    1      -32.837  69.753  25.350  0.00  0.00    +0.209 HD
ENDBRANCH  36  37
ENDBRANCH  34  36
ENDBRANCH  24  34
BRANCH  27  39
ATOM     39  N   LIG    1      -35.834  67.294  21.847  0.00  0.00    -0.327 N 
ATOM     40  H   LIG    1      -36.171  66.363  22.040  0.00  0.00    +0.145 HD
ATOM     41  H   LIG    1      -35.713  67.555  20.879  0.00  0.00    +0.145 HD
ENDBRANCH  27  39
ENDBRANCH  22  31
ENDBRANCH   1  22
TORSDOF 10
ENDMDL
MODEL 4
REMARK VINA RESULT:      -5.6      5.040      7.399
REMARK  Name = pdb/CHEMBL3671435.pdb
REMARK                            x       y       z     vdW  Elec       q    Type
REMARK                         _______ _______ _______ _____ _____    ______ ____
ROOT
ATOM      1  C   LIG    1      -22.972  80.912  15.686  0.00  0.00    +0.042 A 
ATOM      2  C   LIG    1      -22.334  79.659  15.755  0.00  0.00    +0.038 A 
ATOM      3  C   LIG    1      -22.963  78.524  15.208  0.00  0.00    +0.052 A 
ATOM      4  C   LIG    1      -24.245  78.696  14.694  0.00  0.00    +0.134 A 
ATOM      5  N   LIG    1      -24.899  79.880  14.644  0.00  0.00    -0.261 NA
ATOM      6  C   LIG    1      -24.246  80.956  15.134  0.00  0.00    +0.122 A 
ENDROOT
BRANCH   3   7
ATOM      7  N   LIG    1      -22.283  77.286  15.166  0.00  0.00    -0.284 N 
ATOM      8  H   LIG    1      -22.406  76.646  15.956  0.00  0.00    +0.155 HD
ATOM      9  C   LIG    1      -21.496  76.805  14.129  0.00  0.00    +0.223 C 
ATOM     10  O   LIG    1      -21.261  77.414  13.085  0.00  0.00    -0.275 OA
BRANCH   9  11
ATOM     11  C   LIG    1      -20.796  75.468  14.344  0.00  0.00    +0.151 C 
BRANCH  11  12
ATOM     12  C   LIG    1      -21.185  74.704  15.577  0.00  0.00    +0.050 A 
ATOM     13  N   LIG    1      -22.510  74.495  15.782  0.00  0.00    -0.259 NA
ATOM     14  C   LIG    1      -22.885  73.784  16.860  0.00  0.00    +0.123 A 
ATOM     15  C   LIG    1      -21.993  73.293  17.794  0.00  0.00    +0.073 A 
ATOM     16  C   LIG    1      -20.635  73.567  17.608  0.00  0.00    +0.015 A 
ATOM     17  C   LIG    1      -20.221  74.283  16.488  0.00  0.00    +0.024 A 
BRANCH  15  18
ATOM     18  C   LIG    1      -22.533  72.503  18.939  0.00  0.00    +0.419 C 
ATOM     19  F   LIG    1      -21.548  71.885  19.646  0.00  0.00    -0.166 F 
ATOM     20  F   LIG    1      -23.378  71.517  18.532  0.00  0.00    -0.166 F 
ATOM     21  F   LIG    1      -23.230  73.251  19.835  0.00  0.00    -0.166 F 
ENDBRANCH  15  18
ENDBRANCH  11  12
ENDBRANCH   9  11
ENDBRANCH   3   7
BRANCH   1  22
ATOM     22  C   LIG    1      -22.395  82.201  16.182  0.00  0.00    +0.197 C 
ATOM     23  O   LIG    1      -22.507  82.474  17.386  0.00  0.00    -0.287 OA
BRANCH  22  31
ATOM     24  N   LIG    1      -21.344  84.951  14.000  0.00  0.00    -0.323 N 
ATOM     25  C   LIG    1      -20.413  84.006  13.628  0.00  0.00    +0.147 A 
ATOM     26  N   LIG    1      -19.509  84.125  12.642  0.00  0.00    -0.197 NA
ATOM     27  C   LIG    1      -18.701  83.072  12.516  0.00  0.00    +0.214 A 
ATOM     28  N   LIG    1      -18.672  82.002  13.319  0.00  0.00    -0.222 NA
ATOM     29  C   LIG    1      -19.603  81.899  14.302  0.00  0.00    +0.126 A 
ATOM     30  C   LIG    1      -20.559  82.902  14.464  0.00  0.00    +0.048 A 
ATOM     31  C   LIG    1      -21.727  83.116  15.264  0.00  0.00    +0.051 A 
ATOM     32  C   LIG    1      -22.092  84.434  15.042  0.00  0.00    +0.100 A 
BRANCH  24  34
ATOM     33  C   LIG    1      -22.770  87.052  14.051  0.00  0.00    +0.036 C 
ATOM     34  C   LIG    1      -21.561  86.306  13.446  0.00  0.00    +0.064 C 
ATOM     35  C   LIG    1      -21.830  86.191  11.925  0.00  0.00    +0.036 C 
BRANCH  34  36
ATOM     36  C   LIG    1      -20.281  87.169  13.649  0.00  0.00    +0.183 C 
BRANCH  36  37
ATOM     37  O   LIG    1      -19.902  87.326  15.015  0.00  0.00    -0.393 OA
ATOM     38  H   LIG    1      -20.704  87.262  15.563  0.00  0.00    +0.209 HD
ENDBRANCH  36  37
ENDBRANCH  34  36
ENDBRANCH  24  34
BRANCH  27  39
ATOM     39  N   LIG    1      -17.785  83.113  11.481  0.00  0.00    -0.327 N 
ATOM     40  H   LIG    1      -18.183  82.697  10.652  0.00  0.00    +0.145 HD
ATOM     41  H   LIG    1      -17.403  84.044  11.399  0.00  0.00    +0.145 HD
ENDBRANCH  27  39
ENDBRANCH  22  31
ENDBRANCH   1  22
TORSDOF 10
ENDMDL
MODEL 5
REMARK VINA RESULT:      -5.6     19.299     22.964
REMARK  Name = pdb/CHEMBL3671435.pdb
REMARK                            x       y       z     vdW  Elec       q    Type
REMARK                         _______ _______ _______ _____ _____    ______ ____
ROOT
ATOM      1  C   LIG    1      -34.047  72.441  28.800  0.00  0.00    +0.042 A 
ATOM      2  C   LIG    1      -34.757  72.286  27.595  0.00  0.00    +0.038 A 
ATOM      3  C   LIG    1      -34.790  71.030  26.960  0.00  0.00    +0.052 A 
ATOM      4  C   LIG    1      -34.032  70.012  27.530  0.00  0.00    +0.134 A 
ATOM      5  N   LIG    1      -33.311  70.138  28.669  0.00  0.00    -0.261 NA
ATOM      6  C   LIG    1      -33.342  71.343  29.277  0.00  0.00    +0.122 A 
ENDROOT
BRANCH   3   7
ATOM      7  N   LIG    1      -35.595  70.833  25.814  0.00  0.00    -0.284 N 
ATOM      8  H   LIG    1      -35.297  71.275  24.940  0.00  0.00    +0.155 HD
ATOM      9  C   LIG    1      -36.736  70.049  25.725  0.00  0.00    +0.223 C 
ATOM     10  O   LIG    1      -37.227  69.415  26.660  0.00  0.00    -0.275 OA
BRANCH   9  11
ATOM     11  C   LIG    1      -37.486  70.052  24.399  0.00  0.00    +0.151 C 
BRANCH  11  12
ATOM     12  C   LIG    1      -38.518  71.130  24.220  0.00  0.00    +0.050 A 
ATOM     13  N   LIG    1      -38.231  72.351  24.736  0.00  0.00    -0.259 NA
ATOM     14  C   LIG    1      -39.121  73.343  24.562  0.00  0.00    +0.123 A 
ATOM     15  C   LIG    1      -40.334  73.171  23.923  0.00  0.00    +0.073 A 
ATOM     16  C   LIG    1      -40.649  71.894  23.449  0.00  0.00    +0.015 A 
ATOM     17  C   LIG    1      -39.733  70.856  23.600  0.00  0.00    +0.024 A 
BRANCH  15  18
ATOM     18  C   LIG    1      -41.230  74.356  23.776  0.00  0.00    +0.419 C 
ATOM     19  F   LIG    1      -40.577  75.432  23.259  0.00  0.00    -0.166 F 
ATOM     20  F   LIG    1      -41.743  74.765  24.968  0.00  0.00    -0.166 F 
ATOM     21  F   LIG    1      -42.296  74.134  22.962  0.00  0.00    -0.166 F 
ENDBRANCH  15  18
ENDBRANCH  11  12
ENDBRANCH   9  11
ENDBRANCH   3   7
BRANCH   1  22
ATOM     22  C   LIG    1      -33.972  73.704  29.601  0.00  0.00    +0.197 C 
ATOM     23  O   LIG    1      -33.554  73.641  30.766  0.00  0.00    -0.287 OA
BRANCH  22  31
ATOM     24  N   LIG    1      -35.746  76.603  28.231  0.00  0.00    -0.323 N 
ATOM     25  C   LIG    1      -34.460  76.939  27.869  0.00  0.00    +0.147 A 
ATOM     26  N   LIG    1      -34.096  77.990  27.116  0.00  0.00    -0.197 NA
ATOM     27  C   LIG    1      -32.778  78.105  26.946  0.00  0.00    +0.214 A 
ATOM     28  N   LIG    1      -31.841  77.341  27.519  0.00  0.00    -0.222 NA
ATOM     29  C   LIG    1      -32.235  76.278  28.267  0.00  0.00    +0.126 A 
ATOM     30  C   LIG    1      -33.594  76.008  28.433  0.00  0.00    +0.048 A 
ATOM     31  C   LIG    1      -34.391  74.974  29.021  0.00  0.00    +0.051 A 
ATOM     32  C   LIG    1      -35.693  75.448  28.990  0.00  0.00    +0.100 A 
BRANCH  24  34
ATOM     33  C   LIG    1      -36.891  78.842  27.876  0.00  0.00    +0.036 C 
ATOM     34  C   LIG    1      -37.011  77.303  27.916  0.00  0.00    +0.064 C 
ATOM     35  C   LIG    1      -38.057  76.970  29.010  0.00  0.00    +0.036 C 
BRANCH  34  36
ATOM     36  C   LIG    1      -37.563  76.803  26.549  0.00  0.00    +0.183 C 
BRANCH  36  37
ATOM     37  O   LIG    1      -36.549  76.439  25.615  0.00  0.00    -0.393 OA
ATOM     38  H   LIG    1      -36.248  77.247  25.162  0.00  0.00    +0.209 HD
ENDBRANCH  36  37
ENDBRANCH  34  36
ENDBRANCH  24  34
BRANCH  27  39
ATOM     39  N   LIG    1      -32.345  79.136  26.133  0.00  0.00    -0.327 N 
ATOM     40  H   LIG    1      -31.344  79.238  26.209  0.00  0.00    +0.145 HD
ATOM     41  H   LIG    1      -32.735  79.029  25.207  0.00  0.00    +0.145 HD
ENDBRANCH  27  39
ENDBRANCH  22  31
ENDBRANCH   1  22
TORSDOF 10
ENDMDL
MODEL 6
REMARK VINA RESULT:      -5.6      9.067     14.522
REMARK  Name = pdb/CHEMBL3671435.pdb
REMARK                            x       y       z     vdW  Elec       q    Type
REMARK                         _______ _______ _______ _____ _____    ______ ____
ROOT
ATOM      1  C   LIG    1      -26.055  72.344  14.231  0.00  0.00    +0.042 A 
ATOM      2  C   LIG    1      -26.339  73.703  13.996  0.00  0.00    +0.038 A 
ATOM      3  C   LIG    1      -25.315  74.662  14.121  0.00  0.00    +0.052 A 
ATOM      4  C   LIG    1      -24.074  74.210  14.560  0.00  0.00    +0.134 A 
ATOM      5  N   LIG    1      -23.779  72.917  14.826  0.00  0.00    -0.261 NA
ATOM      6  C   LIG    1      -24.771  72.018  14.650  0.00  0.00    +0.122 A 
ENDROOT
BRANCH   3   7
ATOM      7  N   LIG    1      -25.559  76.010  13.775  0.00  0.00    -0.284 N 
ATOM      8  H   LIG    1      -24.856  76.492  13.207  0.00  0.00    +0.155 HD
ATOM      9  C   LIG    1      -26.690  76.755  14.077  0.00  0.00    +0.223 C 
ATOM     10  O   LIG    1      -27.654  76.337  14.721  0.00  0.00    -0.275 OA
BRANCH   9  11
ATOM     11  C   LIG    1      -26.694  78.222  13.665  0.00  0.00    +0.151 C 
BRANCH  11  12
ATOM     12  C   LIG    1      -25.627  79.087  14.273  0.00  0.00    +0.050 A 
ATOM     13  N   LIG    1      -25.009  78.615  15.385  0.00  0.00    -0.259 NA
ATOM     14  C   LIG    1      -24.027  79.354  15.931  0.00  0.00    +0.123 A 
ATOM     15  C   LIG    1      -23.646  80.589  15.445  0.00  0.00    +0.073 A 
ATOM     16  C   LIG    1      -24.330  81.096  14.336  0.00  0.00    +0.015 A 
ATOM     17  C   LIG    1      -25.337  80.340  13.741  0.00  0.00    +0.024 A 
BRANCH  15  18
ATOM     18  C   LIG    1      -22.528  81.304  16.129  0.00  0.00    +0.419 C 
ATOM     19  F   LIG    1      -21.413  80.531  16.236  0.00  0.00    -0.166 F 
ATOM     20  F   LIG    1      -22.852  81.672  17.398  0.00  0.00    -0.166 F 
ATOM     21  F   LIG    1      -22.140  82.441  15.493  0.00  0.00    -0.166 F 
ENDBRANCH  15  18
ENDBRANCH  11  12
ENDBRANCH   9  11
ENDBRANCH   3   7
BRANCH   1  22
ATOM     22  C   LIG    1      -27.034  71.222  14.086  0.00  0.00    +0.197 C 
ATOM     23  O   LIG    1      -27.087  70.619  13.005  0.00  0.00    -0.287 OA
BRANCH  22  31
ATOM     24  N   LIG    1      -29.809  70.450  16.352  0.00  0.00    -0.323 N 
ATOM     25  C   LIG    1      -28.777  70.465  17.264  0.00  0.00    +0.147 A 
ATOM     26  N   LIG    1      -28.893  70.347  18.597  0.00  0.00    -0.197 NA
ATOM     27  C   LIG    1      -27.728  70.359  19.246  0.00  0.00    +0.214 A 
ATOM     28  N   LIG    1      -26.514  70.386  18.683  0.00  0.00    -0.222 NA
ATOM     29  C   LIG    1      -26.423  70.516  17.335  0.00  0.00    +0.126 A 
ATOM     30  C   LIG    1      -27.583  70.609  16.564  0.00  0.00    +0.048 A 
ATOM     31  C   LIG    1      -27.911  70.856  15.192  0.00  0.00    +0.051 A 
ATOM     32  C   LIG    1      -29.271  70.615  15.089  0.00  0.00    +0.100 A 
BRANCH  24  34
ATOM     33  C   LIG    1      -31.637  68.933  17.250  0.00  0.00    +0.036 C 
ATOM     34  C   LIG    1      -31.259  70.278  16.595  0.00  0.00    +0.064 C 
ATOM     35  C   LIG    1      -32.007  70.335  15.240  0.00  0.00    +0.036 C 
BRANCH  34  36
ATOM     36  C   LIG    1      -31.783  71.441  17.488  0.00  0.00    +0.183 C 
BRANCH  36  37
ATOM     37  O   LIG    1      -32.897  72.138  16.933  0.00  0.00    -0.393 OA
ATOM     38  H   LIG    1      -32.656  72.430  16.036  0.00  0.00    +0.209 HD
ENDBRANCH  36  37
ENDBRANCH  34  36
ENDBRANCH  24  34
BRANCH  27  39
ATOM     39  N   LIG    1      -27.785  70.298  20.626  0.00  0.00    -0.327 N 
ATOM     40  H   LIG    1      -28.595  70.800  20.960  0.00  0.00    +0.145 HD
ATOM     41  H   LIG    1      -27.671  69.341  20.931  0.00  0.00    +0.145 HD
ENDBRANCH  27  39
ENDBRANCH  22  31
ENDBRANCH   1  22
TORSDOF 10
ENDMDL
MODEL 7
REMARK VINA RESULT:      -5.5     20.579     23.227
REMARK  Name = pdb/CHEMBL3671435.pdb
REMARK                            x       y       z     vdW  Elec       q    Type
REMARK                         _______ _______ _______ _____ _____    ______ ____
ROOT
ATOM      1  C   LIG    1      -39.344  73.566  24.396  0.00  0.00    +0.042 A 
ATOM      2  C   LIG    1      -38.131  74.100  24.870  0.00  0.00    +0.038 A 
ATOM      3  C   LIG    1      -38.011  75.489  25.070  0.00  0.00    +0.052 A 
ATOM      4  C   LIG    1      -39.095  76.279  24.701  0.00  0.00    +0.134 A 
ATOM      5  N   LIG    1      -40.262  75.799  24.211  0.00  0.00    -0.261 NA
ATOM      6  C   LIG    1      -40.359  74.459  24.076  0.00  0.00    +0.122 A 
ENDROOT
BRANCH   3   7
ATOM      7  N   LIG    1      -36.841  76.024  25.656  0.00  0.00    -0.284 N 
ATOM      8  H   LIG    1      -36.238  76.609  25.070  0.00  0.00    +0.155 HD
ATOM      9  C   LIG    1      -36.435  75.889  26.976  0.00  0.00    +0.223 C 
ATOM     10  O   LIG    1      -37.047  75.253  27.836  0.00  0.00    -0.275 OA
BRANCH   9  11
ATOM     11  C   LIG    1      -35.090  76.490  27.361  0.00  0.00    +0.151 C 
BRANCH  11  12
ATOM     12  C   LIG    1      -35.090  77.951  27.714  0.00  0.00    +0.050 A 
ATOM     13  N   LIG    1      -36.261  78.620  27.569  0.00  0.00    -0.259 NA
ATOM     14  C   LIG    1      -36.299  79.920  27.910  0.00  0.00    +0.123 A 
ATOM     15  C   LIG    1      -35.196  80.621  28.359  0.00  0.00    +0.073 A 
ATOM     16  C   LIG    1      -33.979  79.938  28.446  0.00  0.00    +0.015 A 
ATOM     17  C   LIG    1      -33.920  78.586  28.118  0.00  0.00    +0.024 A 
BRANCH  15  18
ATOM     18  C   LIG    1      -35.371  82.057  28.723  0.00  0.00    +0.419 C 
ATOM     19  F   LIG    1      -36.432  82.251  29.554  0.00  0.00    -0.166 F 
ATOM     20  F   LIG    1      -35.599  82.842  27.635  0.00  0.00    -0.166 F 
ATOM     21  F   LIG    1      -34.294  82.593  29.356  0.00  0.00    -0.166 F 
ENDBRANCH  15  18
ENDBRANCH  11  12
ENDBRANCH   9  11
ENDBRANCH   3   7
BRANCH   1  22
ATOM     22  C   LIG    1      -39.621  72.110  24.186  0.00  0.00    +0.197 C 
ATOM     23  O   LIG    1      -40.750  71.772  23.803  0.00  0.00    -0.287 OA
BRANCH  22  31
ATOM     24  N   LIG    1      -36.880  70.037  25.459  0.00  0.00    -0.323 N 
ATOM     25  C   LIG    1      -36.999  69.496  24.197  0.00  0.00    +0.147 A 
ATOM     26  N   LIG    1      -36.197  68.566  23.652  0.00  0.00    -0.197 NA
ATOM     27  C   LIG    1      -36.559  68.190  22.425  0.00  0.00    +0.214 A 
ATOM     28  N   LIG    1      -37.658  68.586  21.772  0.00  0.00    -0.222 NA
ATOM     29  C   LIG    1      -38.447  69.534  22.339  0.00  0.00    +0.126 A 
ATOM     30  C   LIG    1      -38.109  70.069  23.583  0.00  0.00    +0.048 A 
ATOM     31  C   LIG    1      -38.585  71.115  24.437  0.00  0.00    +0.051 A 
ATOM     32  C   LIG    1      -37.889  70.968  25.626  0.00  0.00    +0.100 A 
BRANCH  24  34
ATOM     33  C   LIG    1      -35.672  68.215  26.751  0.00  0.00    +0.036 C 
ATOM     34  C   LIG    1      -35.889  69.725  26.511  0.00  0.00    +0.064 C 
ATOM     35  C   LIG    1      -36.377  70.319  27.856  0.00  0.00    +0.036 C 
BRANCH  34  36
ATOM     36  C   LIG    1      -34.521  70.381  26.158  0.00  0.00    +0.183 C 
BRANCH  36  37
ATOM     37  O   LIG    1      -33.768  69.660  25.186  0.00  0.00    -0.393 OA
ATOM     38  H   LIG    1      -34.293  69.614  24.367  0.00  0.00    +0.209 HD
ENDBRANCH  36  37
ENDBRANCH  34  36
ENDBRANCH  24  34
BRANCH  27  39
ATOM     39  N   LIG    1      -35.739  67.275  21.790  0.00  0.00    -0.327 N 
ATOM     40  H   LIG    1      -34.781  67.591  21.822  0.00  0.00    +0.145 HD
ATOM     41  H   LIG    1      -35.936  66.345  22.130  0.00  0.00    +0.145 HD
ENDBRANCH  27  39
ENDBRANCH  22  31
ENDBRANCH   1  22
TORSDOF 10
ENDMDL
MODEL 8
REMARK VINA RESULT:      -5.5     18.463     20.467
REMARK  Name = pdb/CHEMBL3671435.pdb
REMARK                            x       y       z     vdW  Elec       q    Type
REMARK                         _______ _______ _______ _____ _____    ______ ____
ROOT
ATOM      1  C   LIG    1      -40.403  82.482  22.817  0.00  0.00    +0.042 A 
ATOM      2  C   LIG    1      -39.878  81.446  23.612  0.00  0.00    +0.038 A 
ATOM      3  C   LIG    1      -40.742  80.476  24.155  0.00  0.00    +0.052 A 
ATOM      4  C   LIG    1      -42.105  80.649  23.938  0.00  0.00    +0.134 A 
ATOM      5  N   LIG    1      -42.644  81.653  23.207  0.00  0.00    -0.261 NA
ATOM      6  C   LIG    1      -41.783  82.537  22.662  0.00  0.00    +0.122 A 
ENDROOT
BRANCH   3   7
ATOM      7  N   LIG    1      -40.215  79.367  24.856  0.00  0.00    -0.284 N 
ATOM      8  H   LIG    1      -40.308  79.358  25.876  0.00  0.00    +0.155 HD
ATOM      9  C   LIG    1      -39.621  78.241  24.304  0.00  0.00    +0.223 C 
ATOM     10  O   LIG    1      -39.452  78.057  23.098  0.00  0.00    -0.275 OA
BRANCH   9  11
ATOM     11  C   LIG    1      -39.053  77.206  25.267  0.00  0.00    +0.151 C 
BRANCH  11  12
ATOM     12  C   LIG    1      -39.313  75.766  24.925  0.00  0.00    +0.050 A 
ATOM     13  N   LIG    1      -40.587  75.428  24.606  0.00  0.00    -0.259 NA
ATOM     14  C   LIG    1      -40.842  74.153  24.262  0.00  0.00    +0.123 A 
ATOM     15  C   LIG    1      -39.881  73.160  24.261  0.00  0.00    +0.073 A 
ATOM     16  C   LIG    1      -38.584  73.504  24.652  0.00  0.00    +0.015 A 
ATOM     17  C   LIG    1      -38.291  74.823  24.992  0.00  0.00    +0.024 A 
BRANCH  15  18
ATOM     18  C   LIG    1      -40.286  71.785  23.843  0.00  0.00    +0.419 C 
ATOM     19  F   LIG    1      -40.969  71.131  24.820  0.00  0.00    -0.166 F 
ATOM     20  F   LIG    1      -39.215  71.001  23.543  0.00  0.00    -0.166 F 
ATOM     21  F   LIG    1      -41.087  71.766  22.744  0.00  0.00    -0.166 F 
ENDBRANCH  15  18
ENDBRANCH  11  12
ENDBRANCH   9  11
ENDBRANCH   3   7
BRANCH   1  22
ATOM     22  C   LIG    1      -39.594  83.545  22.142  0.00  0.00    +0.197 C 
ATOM     23  O   LIG    1      -39.475  83.503  20.909  0.00  0.00    -0.287 OA
BRANCH  22  31
ATOM     24  N   LIG    1      -38.405  86.670  23.641  0.00  0.00    -0.323 N 
ATOM     25  C   LIG    1      -37.518  85.793  24.226  0.00  0.00    +0.147 A 
ATOM     26  N   LIG    1      -36.474  86.120  25.005  0.00  0.00    -0.197 NA
ATOM     27  C   LIG    1      -35.796  85.071  25.472  0.00  0.00    +0.214 A 
ATOM     28  N   LIG    1      -36.122  83.784  25.302  0.00  0.00    -0.222 NA
ATOM     29  C   LIG    1      -37.175  83.479  24.501  0.00  0.00    +0.126 A 
ATOM     30  C   LIG    1      -37.899  84.499  23.883  0.00  0.00    +0.048 A 
ATOM     31  C   LIG    1      -38.956  84.598  22.922  0.00  0.00    +0.051 A 
ATOM     32  C   LIG    1      -39.319  85.935  22.908  0.00  0.00    +0.100 A 
BRANCH  24  34
ATOM     33  C   LIG    1      -38.586  88.682  25.181  0.00  0.00    +0.036 C 
ATOM     34  C   LIG    1      -38.450  88.146  23.739  0.00  0.00    +0.064 C 
ATOM     35  C   LIG    1      -39.682  88.665  22.957  0.00  0.00    +0.036 C 
BRANCH  34  36
ATOM     36  C   LIG    1      -37.172  88.755  23.092  0.00  0.00    +0.183 C 
BRANCH  36  37
ATOM     37  O   LIG    1      -36.052  88.816  23.973  0.00  0.00    -0.393 OA
ATOM     38  H   LIG    1      -35.410  88.138  23.696  0.00  0.00    +0.209 HD
ENDBRANCH  36  37
ENDBRANCH  34  36
ENDBRANCH  24  34
BRANCH  27  39
ATOM     39  N   LIG    1      -34.676  85.345  26.235  0.00  0.00    -0.327 N 
ATOM     40  H   LIG    1      -33.892  84.802  25.905  0.00  0.00    +0.145 HD
ATOM     41  H   LIG    1      -34.552  86.345  26.313  0.00  0.00    +0.145 HD
ENDBRANCH  27  39
ENDBRANCH  22  31
ENDBRANCH   1  22
TORSDOF 10
ENDMDL
MODEL 9
REMARK VINA RESULT:      -5.5     19.612     23.094
REMARK  Name = pdb/CHEMBL3671435.pdb
REMARK                            x       y       z     vdW  Elec       q    Type
REMARK                         _______ _______ _______ _____ _____    ______ ____
ROOT
ATOM      1  C   LIG    1      -22.885  80.546  36.111  0.00  0.00    +0.042 A 
ATOM      2  C   LIG    1      -23.586  81.767  36.158  0.00  0.00    +0.038 A 
ATOM      3  C   LIG    1      -24.523  81.994  37.184  0.00  0.00    +0.052 A 
ATOM      4  C   LIG    1      -24.768  80.944  38.063  0.00  0.00    +0.134 A 
ATOM      5  N   LIG    1      -24.136  79.748  38.024  0.00  0.00    -0.261 NA
ATOM      6  C   LIG    1      -23.210  79.581  37.056  0.00  0.00    +0.122 A 
ENDROOT
BRANCH   3   7
ATOM      7  N   LIG    1      -25.145  83.257  37.311  0.00  0.00    -0.284 N 
ATOM      8  H   LIG    1      -24.559  84.054  37.580  0.00  0.00    +0.155 HD
ATOM      9  C   LIG    1      -26.475  83.558  37.055  0.00  0.00    +0.223 C 
ATOM     10  O   LIG    1      -27.322  82.741  36.690  0.00  0.00    -0.275 OA
BRANCH   9  11
ATOM     11  C   LIG    1      -26.939  84.981  37.339  0.00  0.00    +0.151 C 
BRANCH  11  12
ATOM     12  C   LIG    1      -27.672  85.677  36.228  0.00  0.00    +0.050 A 
ATOM     13  N   LIG    1      -26.925  86.386  35.345  0.00  0.00    -0.259 NA
ATOM     14  C   LIG    1      -27.551  86.992  34.320  0.00  0.00    +0.123 A 
ATOM     15  C   LIG    1      -28.922  86.965  34.146  0.00  0.00    +0.073 A 
ATOM     16  C   LIG    1      -29.689  86.284  35.095  0.00  0.00    +0.015 A 
ATOM     17  C   LIG    1      -29.061  85.632  36.153  0.00  0.00    +0.024 A 
BRANCH  15  18
ATOM     18  C   LIG    1      -29.496  87.662  32.957  0.00  0.00    +0.419 C 
ATOM     19  F   LIG    1      -28.566  87.871  31.986  0.00  0.00    -0.166 F 
ATOM     20  F   LIG    1      -29.996  88.888  33.269  0.00  0.00    -0.166 F 
ATOM     21  F   LIG    1      -30.512  86.979  32.366  0.00  0.00    -0.166 F 
ENDBRANCH  15  18
ENDBRANCH  11  12
ENDBRANCH   9  11
ENDBRANCH   3   7
BRANCH   1  22
ATOM     22  C   LIG    1      -21.832  80.196  35.107  0.00  0.00    +0.197 C 
ATOM     23  O   LIG    1      -20.744  80.788  35.160  0.00  0.00    -0.287 OA
BRANCH  22  31
ATOM     24  N   LIG    1      -21.715  77.759  32.372  0.00  0.00    -0.323 N 
ATOM     25  C   LIG    1      -23.079  77.833  32.545  0.00  0.00    +0.147 A 
ATOM     26  N   LIG    1      -24.010  77.236  31.782  0.00  0.00    -0.197 NA
ATOM     27  C   LIG    1      -25.262  77.443  32.192  0.00  0.00    +0.214 A 
ATOM     28  N   LIG    1      -25.629  78.094  33.302  0.00  0.00    -0.222 NA
ATOM     29  C   LIG    1      -24.671  78.698  34.051  0.00  0.00    +0.126 A 
ATOM     30  C   LIG    1      -23.333  78.625  33.661  0.00  0.00    +0.048 A 
ATOM     31  C   LIG    1      -22.087  79.188  34.086  0.00  0.00    +0.051 A 
ATOM     32  C   LIG    1      -21.114  78.526  33.354  0.00  0.00    +0.100 A 
BRANCH  24  34
ATOM     33  C   LIG    1      -21.333  75.517  31.243  0.00  0.00    +0.036 C 
ATOM     34  C   LIG    1      -20.948  77.008  31.354  0.00  0.00    +0.064 C 
ATOM     35  C   LIG    1      -19.445  77.049  31.724  0.00  0.00    +0.036 C 
BRANCH  34  36
ATOM     36  C   LIG    1      -21.124  77.681  29.961  0.00  0.00    +0.183 C 
BRANCH  36  37
ATOM     37  O   LIG    1      -22.173  77.118  29.176  0.00  0.00    -0.393 OA
ATOM     38  H   LIG    1      -21.804  76.867  28.311  0.00  0.00    +0.209 HD
ENDBRANCH  36  37
ENDBRANCH  34  36
ENDBRANCH  24  34
BRANCH  27  39
ATOM     39  N   LIG    1      -26.268  76.900  31.414  0.00  0.00    -0.327 N 
ATOM     40  H   LIG    1      -27.134  77.392  31.577  0.00  0.00    +0.145 HD
ATOM     41  H   LIG    1      -25.953  76.816  30.458  0.00  0.00    +0.145 HD
ENDBRANCH  27  39
ENDBRANCH  22  31
ENDBRANCH   1  22
TORSDOF 10
ENDMDL
