MODEL 1
REMARK VINA RESULT:      -6.7      0.000      0.000
REMARK  Name = pdb/CHEMBL3671131.pdb
REMARK                            x       y       z     vdW  Elec       q    Type
REMARK                         _______ _______ _______ _____ _____    ______ ____
ROOT
ATOM      1  C   LIG    1      -23.005  76.758  30.859  0.00  0.00    +0.101 A 
ATOM      2  C   LIG    1      -21.982  77.261  31.653  0.00  0.00    +0.170 A 
ATOM      3  N   LIG    1      -21.900  77.589  32.990  0.00  0.00    -0.212 NA
ATOM      4  C   LIG    1      -20.771  78.114  33.430  0.00  0.00    +0.126 A 
ATOM      5  C   LIG    1      -19.566  78.286  32.529  0.00  0.00    +0.063 A 
ATOM      6  C   LIG    1      -19.702  77.958  31.243  0.00  0.00    +0.118 A 
ATOM      7  N   LIG    1      -20.899  77.451  30.782  0.00  0.00    -0.221 N 
ATOM      8  N   LIG    1      -21.181  77.092  29.512  0.00  0.00    -0.173 NA
ATOM      9  C   LIG    1      -22.443  76.681  29.566  0.00  0.00    +0.150 A 
ENDROOT
BRANCH   4  10
ATOM     10  N   LIG    1      -20.653  78.536  34.751  0.00  0.00    -0.308 N 
ATOM     11  C   LIG    1      -20.480  79.947  35.146  0.00  0.00    +0.108 C 
ATOM     12  C   LIG    1      -19.451  79.851  36.286  0.00  0.00    +0.029 C 
ATOM     13  C   LIG    1      -19.843  78.564  36.988  0.00  0.00    +0.021 C 
ATOM     14  C   LIG    1      -20.188  77.649  35.824  0.00  0.00    +0.107 C 
BRANCH  11  15
ATOM     15  C   LIG    1      -21.798  80.583  35.569  0.00  0.00    +0.011 A 
ATOM     16  C   LIG    1      -21.830  81.898  36.062  0.00  0.00    +0.129 A 
ATOM     17  F   LIG    1      -20.688  82.577  36.236  0.00  0.00    -0.205 F 
ATOM     18  C   LIG    1      -23.031  82.541  36.377  0.00  0.00    +0.041 A 
ATOM     19  C   LIG    1      -24.236  81.854  36.255  0.00  0.00    +0.041 A 
ATOM     20  C   LIG    1      -24.220  80.538  35.815  0.00  0.00    +0.124 A 
ATOM     21  F   LIG    1      -25.368  79.852  35.739  0.00  0.00    -0.205 F 
ATOM     22  C   LIG    1      -23.028  79.914  35.451  0.00  0.00    +0.046 A 
ENDBRANCH  11  15
ENDBRANCH   4  10
BRANCH   1  25
ATOM     23  N   LIG    1      -25.052  77.280  31.970  0.00  0.00    -0.266 N 
ATOM     24  H   LIG    1      -24.532  78.097  32.268  0.00  0.00    +0.157 HD
ATOM     25  C   LIG    1      -24.374  76.386  31.178  0.00  0.00    +0.254 C 
ATOM     26  O   LIG    1      -24.813  75.329  30.726  0.00  0.00    -0.270 OA
BRANCH  23  29
ATOM     27  C   LIG    1      -25.557  76.618  34.745  0.00  0.00    +0.047 C 
ATOM     28  C   LIG    1      -26.643  76.790  33.734  0.00  0.00    -0.010 A 
ATOM     29  C   LIG    1      -26.383  77.123  32.399  0.00  0.00    +0.128 A 
ATOM     30  N   LIG    1      -27.385  77.285  31.515  0.00  0.00    -0.240 NA
ATOM     31  C   LIG    1      -28.657  77.105  31.927  0.00  0.00    +0.113 A 
ATOM     32  C   LIG    1      -29.001  76.759  33.215  0.00  0.00    +0.020 A 
ATOM     33  C   LIG    1      -27.974  76.601  34.133  0.00  0.00    +0.008 A 
ENDBRANCH  23  29
ENDBRANCH   1  25
TORSDOF 4
ENDMDL
MODEL 2
REMARK VINA RESULT:      -6.4      2.320      5.335
REMARK  Name = pdb/CHEMBL3671131.pdb
REMARK                            x       y       z     vdW  Elec       q    Type
REMARK                         _______ _______ _______ _____ _____    ______ ____
ROOT
ATOM      1  C   LIG    1      -25.655  77.950  34.413  0.00  0.00    +0.101 A 
ATOM      2  C   LIG    1      -25.123  78.920  35.252  0.00  0.00    +0.170 A 
ATOM      3  N   LIG    1      -23.923  79.599  35.266  0.00  0.00    -0.212 NA
ATOM      4  C   LIG    1      -23.695  80.434  36.263  0.00  0.00    +0.126 A 
ATOM      5  C   LIG    1      -24.739  80.711  37.325  0.00  0.00    +0.063 A 
ATOM      6  C   LIG    1      -25.880  80.022  37.268  0.00  0.00    +0.118 A 
ATOM      7  N   LIG    1      -26.091  79.118  36.247  0.00  0.00    -0.221 N 
ATOM      8  N   LIG    1      -27.184  78.347  36.074  0.00  0.00    -0.173 NA
ATOM      9  C   LIG    1      -26.915  77.649  34.976  0.00  0.00    +0.150 A 
ENDROOT
BRANCH   4  10
ATOM     10  N   LIG    1      -22.474  81.092  36.373  0.00  0.00    -0.308 N 
ATOM     11  C   LIG    1      -21.281  80.499  37.007  0.00  0.00    +0.108 C 
ATOM     12  C   LIG    1      -20.692  81.687  37.788  0.00  0.00    +0.029 C 
ATOM     13  C   LIG    1      -20.965  82.863  36.870  0.00  0.00    +0.021 C 
ATOM     14  C   LIG    1      -22.361  82.555  36.350  0.00  0.00    +0.107 C 
BRANCH  11  15
ATOM     15  C   LIG    1      -20.323  79.914  35.977  0.00  0.00    +0.011 A 
ATOM     16  C   LIG    1      -19.045  79.475  36.358  0.00  0.00    +0.129 A 
ATOM     17  F   LIG    1      -18.629  79.638  37.622  0.00  0.00    -0.205 F 
ATOM     18  C   LIG    1      -18.176  78.854  35.456  0.00  0.00    +0.041 A 
ATOM     19  C   LIG    1      -18.551  78.708  34.123  0.00  0.00    +0.041 A 
ATOM     20  C   LIG    1      -19.792  79.179  33.717  0.00  0.00    +0.124 A 
ATOM     21  F   LIG    1      -20.144  79.087  32.429  0.00  0.00    -0.205 F 
ATOM     22  C   LIG    1      -20.679  79.749  34.627  0.00  0.00    +0.046 A 
ENDBRANCH  11  15
ENDBRANCH   4  10
BRANCH   1  25
ATOM     23  N   LIG    1      -23.888  77.765  32.819  0.00  0.00    -0.266 N 
ATOM     24  H   LIG    1      -23.482  78.508  33.377  0.00  0.00    +0.157 HD
ATOM     25  C   LIG    1      -25.120  77.310  33.222  0.00  0.00    +0.254 C 
ATOM     26  O   LIG    1      -25.789  76.432  32.678  0.00  0.00    -0.270 OA
BRANCH  23  29
ATOM     27  C   LIG    1      -21.627  76.003  33.236  0.00  0.00    +0.047 C 
ATOM     28  C   LIG    1      -22.081  76.445  31.884  0.00  0.00    -0.010 A 
ATOM     29  C   LIG    1      -23.184  77.288  31.698  0.00  0.00    +0.128 A 
ATOM     30  N   LIG    1      -23.577  77.658  30.465  0.00  0.00    -0.240 NA
ATOM     31  C   LIG    1      -22.880  77.218  29.396  0.00  0.00    +0.113 A 
ATOM     32  C   LIG    1      -21.773  76.403  29.489  0.00  0.00    +0.020 A 
ATOM     33  C   LIG    1      -21.370  76.011  30.756  0.00  0.00    +0.008 A 
ENDBRANCH  23  29
ENDBRANCH   1  25
TORSDOF 4
ENDMDL
MODEL 3
REMARK VINA RESULT:      -6.4     12.231     17.605
REMARK  Name = pdb/CHEMBL3671131.pdb
REMARK                            x       y       z     vdW  Elec       q    Type
REMARK                         _______ _______ _______ _____ _____    ______ ____
ROOT
ATOM      1  C   LIG    1      -38.092  76.779  25.954  0.00  0.00    +0.101 A 
ATOM      2  C   LIG    1      -38.631  75.619  25.414  0.00  0.00    +0.170 A 
ATOM      3  N   LIG    1      -38.284  74.287  25.504  0.00  0.00    -0.212 NA
ATOM      4  C   LIG    1      -38.984  73.416  24.800  0.00  0.00    +0.126 A 
ATOM      5  C   LIG    1      -40.183  73.837  23.977  0.00  0.00    +0.063 A 
ATOM      6  C   LIG    1      -40.471  75.138  23.919  0.00  0.00    +0.118 A 
ATOM      7  N   LIG    1      -39.707  76.046  24.622  0.00  0.00    -0.221 N 
ATOM      8  N   LIG    1      -39.874  77.385  24.646  0.00  0.00    -0.173 NA
ATOM      9  C   LIG    1      -38.902  77.817  25.442  0.00  0.00    +0.150 A 
ENDROOT
BRANCH   4  10
ATOM     10  N   LIG    1      -38.635  72.069  24.790  0.00  0.00    -0.308 N 
ATOM     11  C   LIG    1      -37.242  71.585  24.816  0.00  0.00    +0.108 C 
ATOM     12  C   LIG    1      -37.278  70.406  23.829  0.00  0.00    +0.029 C 
ATOM     13  C   LIG    1      -38.646  69.799  24.078  0.00  0.00    +0.021 C 
ATOM     14  C   LIG    1      -39.522  71.029  24.255  0.00  0.00    +0.107 C 
BRANCH  11  15
ATOM     15  C   LIG    1      -36.807  71.188  26.222  0.00  0.00    +0.011 A 
ATOM     16  C   LIG    1      -35.470  70.848  26.486  0.00  0.00    +0.129 A 
ATOM     17  F   LIG    1      -34.581  70.796  25.485  0.00  0.00    -0.205 F 
ATOM     18  C   LIG    1      -35.021  70.564  27.779  0.00  0.00    +0.041 A 
ATOM     19  C   LIG    1      -35.922  70.560  28.840  0.00  0.00    +0.041 A 
ATOM     20  C   LIG    1      -37.257  70.848  28.590  0.00  0.00    +0.124 A 
ATOM     21  F   LIG    1      -38.141  70.801  29.594  0.00  0.00    -0.205 F 
ATOM     22  C   LIG    1      -37.695  71.183  27.311  0.00  0.00    +0.046 A 
ENDBRANCH  11  15
ENDBRANCH   4  10
BRANCH   1  25
ATOM     23  N   LIG    1      -35.790  76.374  26.439  0.00  0.00    -0.266 N 
ATOM     24  H   LIG    1      -35.843  75.821  25.591  0.00  0.00    +0.157 HD
ATOM     25  C   LIG    1      -36.952  76.992  26.832  0.00  0.00    +0.254 C 
ATOM     26  O   LIG    1      -37.108  77.691  27.834  0.00  0.00    -0.270 OA
BRANCH  23  29
ATOM     27  C   LIG    1      -35.060  74.195  28.203  0.00  0.00    +0.047 C 
ATOM     28  C   LIG    1      -34.208  75.405  28.001  0.00  0.00    -0.010 A 
ATOM     29  C   LIG    1      -34.569  76.445  27.135  0.00  0.00    +0.128 A 
ATOM     30  N   LIG    1      -33.772  77.516  26.965  0.00  0.00    -0.240 NA
ATOM     31  C   LIG    1      -32.617  77.590  27.657  0.00  0.00    +0.113 A 
ATOM     32  C   LIG    1      -32.194  76.623  28.543  0.00  0.00    +0.020 A 
ATOM     33  C   LIG    1      -33.005  75.512  28.715  0.00  0.00    +0.008 A 
ENDBRANCH  23  29
ENDBRANCH   1  25
TORSDOF 4
ENDMDL
MODEL 4
REMARK VINA RESULT:      -6.3      1.574      2.129
REMARK  Name = pdb/CHEMBL3671131.pdb
REMARK                            x       y       z     vdW  Elec       q    Type
REMARK                         _______ _______ _______ _____ _____    ______ ____
ROOT
ATOM      1  C   LIG    1      -22.973  77.015  30.598  0.00  0.00    +0.101 A 
ATOM      2  C   LIG    1      -22.033  77.531  31.480  0.00  0.00    +0.170 A 
ATOM      3  N   LIG    1      -22.125  78.083  32.740  0.00  0.00    -0.212 NA
ATOM      4  C   LIG    1      -21.021  78.546  33.296  0.00  0.00    +0.126 A 
ATOM      5  C   LIG    1      -19.672  78.413  32.620  0.00  0.00    +0.063 A 
ATOM      6  C   LIG    1      -19.640  77.877  31.399  0.00  0.00    +0.118 A 
ATOM      7  N   LIG    1      -20.806  77.436  30.807  0.00  0.00    -0.221 N 
ATOM      8  N   LIG    1      -20.924  76.889  29.579  0.00  0.00    -0.173 NA
ATOM      9  C   LIG    1      -22.224  76.643  29.460  0.00  0.00    +0.150 A 
ENDROOT
BRANCH   4  10
ATOM     10  N   LIG    1      -21.061  79.182  34.533  0.00  0.00    -0.308 N 
ATOM     11  C   LIG    1      -22.101  80.154  34.918  0.00  0.00    +0.108 C 
ATOM     12  C   LIG    1      -21.296  81.223  35.677  0.00  0.00    +0.029 C 
ATOM     13  C   LIG    1      -20.250  80.402  36.407  0.00  0.00    +0.021 C 
ATOM     14  C   LIG    1      -19.867  79.360  35.367  0.00  0.00    +0.107 C 
BRANCH  11  15
ATOM     15  C   LIG    1      -23.198  79.509  35.756  0.00  0.00    +0.011 A 
ATOM     16  C   LIG    1      -24.318  80.253  36.161  0.00  0.00    +0.129 A 
ATOM     17  F   LIG    1      -24.395  81.560  35.875  0.00  0.00    -0.205 F 
ATOM     18  C   LIG    1      -25.382  79.670  36.856  0.00  0.00    +0.041 A 
ATOM     19  C   LIG    1      -25.320  78.325  37.214  0.00  0.00    +0.041 A 
ATOM     20  C   LIG    1      -24.199  77.586  36.864  0.00  0.00    +0.124 A 
ATOM     21  F   LIG    1      -24.108  76.305  37.244  0.00  0.00    -0.205 F 
ATOM     22  C   LIG    1      -23.163  78.153  36.125  0.00  0.00    +0.046 A 
ENDBRANCH  11  15
ENDBRANCH   4  10
BRANCH   1  25
ATOM     23  N   LIG    1      -24.858  76.362  31.909  0.00  0.00    -0.266 N 
ATOM     24  H   LIG    1      -24.142  76.130  32.588  0.00  0.00    +0.157 HD
ATOM     25  C   LIG    1      -24.416  76.865  30.710  0.00  0.00    +0.254 C 
ATOM     26  O   LIG    1      -25.114  77.192  29.750  0.00  0.00    -0.270 OA
BRANCH  23  29
ATOM     27  C   LIG    1      -25.931  73.685  31.640  0.00  0.00    +0.047 C 
ATOM     28  C   LIG    1      -26.745  74.851  32.097  0.00  0.00    -0.010 A 
ATOM     29  C   LIG    1      -26.208  76.137  32.234  0.00  0.00    +0.128 A 
ATOM     30  N   LIG    1      -26.965  77.164  32.663  0.00  0.00    -0.240 NA
ATOM     31  C   LIG    1      -28.266  76.946  32.946  0.00  0.00    +0.113 A 
ATOM     32  C   LIG    1      -28.880  75.718  32.822  0.00  0.00    +0.020 A 
ATOM     33  C   LIG    1      -28.103  74.654  32.391  0.00  0.00    +0.008 A 
ENDBRANCH  23  29
ENDBRANCH   1  25
TORSDOF 4
ENDMDL
MODEL 5
REMARK VINA RESULT:      -6.3     12.744     16.238
REMARK  Name = pdb/CHEMBL3671131.pdb
REMARK                            x       y       z     vdW  Elec       q    Type
REMARK                         _______ _______ _______ _____ _____    ______ ____
ROOT
ATOM      1  C   LIG    1      -35.661  76.607  27.273  0.00  0.00    +0.101 A 
ATOM      2  C   LIG    1      -35.464  77.926  27.660  0.00  0.00    +0.170 A 
ATOM      3  N   LIG    1      -36.317  78.996  27.827  0.00  0.00    -0.212 NA
ATOM      4  C   LIG    1      -35.790  80.163  28.152  0.00  0.00    +0.126 A 
ATOM      5  C   LIG    1      -34.307  80.323  28.414  0.00  0.00    +0.063 A 
ATOM      6  C   LIG    1      -33.527  79.257  28.231  0.00  0.00    +0.118 A 
ATOM      7  N   LIG    1      -34.080  78.052  27.848  0.00  0.00    -0.221 N 
ATOM      8  N   LIG    1      -33.414  76.902  27.616  0.00  0.00    -0.173 NA
ATOM      9  C   LIG    1      -34.366  76.043  27.269  0.00  0.00    +0.150 A 
ENDROOT
BRANCH   4  10
ATOM     10  N   LIG    1      -36.590  81.297  28.260  0.00  0.00    -0.308 N 
ATOM     11  C   LIG    1      -36.384  82.522  27.465  0.00  0.00    +0.108 C 
ATOM     12  C   LIG    1      -36.648  83.636  28.493  0.00  0.00    +0.029 C 
ATOM     13  C   LIG    1      -37.772  83.061  29.333  0.00  0.00    +0.021 C 
ATOM     14  C   LIG    1      -37.366  81.601  29.469  0.00  0.00    +0.107 C 
BRANCH  11  15
ATOM     15  C   LIG    1      -37.311  82.576  26.257  0.00  0.00    +0.011 A 
ATOM     16  C   LIG    1      -37.057  83.468  25.202  0.00  0.00    +0.129 A 
ATOM     17  F   LIG    1      -36.038  84.333  25.286  0.00  0.00    -0.205 F 
ATOM     18  C   LIG    1      -37.837  83.482  24.042  0.00  0.00    +0.041 A 
ATOM     19  C   LIG    1      -38.934  82.632  23.936  0.00  0.00    +0.041 A 
ATOM     20  C   LIG    1      -39.229  81.777  24.988  0.00  0.00    +0.124 A 
ATOM     21  F   LIG    1      -40.309  80.988  24.916  0.00  0.00    -0.205 F 
ATOM     22  C   LIG    1      -38.421  81.725  26.122  0.00  0.00    +0.046 A 
ENDBRANCH  11  15
ENDBRANCH   4  10
BRANCH   1  25
ATOM     23  N   LIG    1      -37.052  75.685  25.567  0.00  0.00    -0.266 N 
ATOM     24  H   LIG    1      -36.344  76.078  24.958  0.00  0.00    +0.157 HD
ATOM     25  C   LIG    1      -36.868  75.879  26.914  0.00  0.00    +0.254 C 
ATOM     26  O   LIG    1      -37.613  75.501  27.817  0.00  0.00    -0.270 OA
BRANCH  23  29
ATOM     27  C   LIG    1      -39.260  77.238  24.516  0.00  0.00    +0.047 C 
ATOM     28  C   LIG    1      -39.227  75.745  24.495  0.00  0.00    -0.010 A 
ATOM     29  C   LIG    1      -38.146  75.008  24.997  0.00  0.00    +0.128 A 
ATOM     30  N   LIG    1      -38.140  73.663  24.950  0.00  0.00    -0.240 NA
ATOM     31  C   LIG    1      -39.205  73.021  24.427  0.00  0.00    +0.113 A 
ATOM     32  C   LIG    1      -40.317  73.665  23.930  0.00  0.00    +0.020 A 
ATOM     33  C   LIG    1      -40.324  75.050  23.965  0.00  0.00    +0.008 A 
ENDBRANCH  23  29
ENDBRANCH   1  25
TORSDOF 4
ENDMDL
MODEL 6
REMARK VINA RESULT:      -6.3     13.162     18.878
REMARK  Name = pdb/CHEMBL3671131.pdb
REMARK                            x       y       z     vdW  Elec       q    Type
REMARK                         _______ _______ _______ _____ _____    ______ ____
ROOT
ATOM      1  C   LIG    1      -37.938  76.463  25.885  0.00  0.00    +0.101 A 
ATOM      2  C   LIG    1      -38.344  75.212  25.441  0.00  0.00    +0.170 A 
ATOM      3  N   LIG    1      -37.853  73.938  25.633  0.00  0.00    -0.212 NA
ATOM      4  C   LIG    1      -38.451  72.943  25.003  0.00  0.00    +0.126 A 
ATOM      5  C   LIG    1      -39.686  73.163  24.155  0.00  0.00    +0.063 A 
ATOM      6  C   LIG    1      -40.115  74.416  23.998  0.00  0.00    +0.118 A 
ATOM      7  N   LIG    1      -39.458  75.455  24.624  0.00  0.00    -0.221 N 
ATOM      8  N   LIG    1      -39.771  76.765  24.543  0.00  0.00    -0.173 NA
ATOM      9  C   LIG    1      -38.855  77.362  25.298  0.00  0.00    +0.150 A 
ENDROOT
BRANCH   4  10
ATOM     10  N   LIG    1      -37.956  71.645  25.096  0.00  0.00    -0.308 N 
ATOM     11  C   LIG    1      -38.800  70.440  24.996  0.00  0.00    +0.108 C 
ATOM     12  C   LIG    1      -38.203  69.522  26.077  0.00  0.00    +0.029 C 
ATOM     13  C   LIG    1      -36.718  69.822  25.992  0.00  0.00    +0.021 C 
ATOM     14  C   LIG    1      -36.699  71.328  25.786  0.00  0.00    +0.107 C 
BRANCH  11  15
ATOM     15  C   LIG    1      -38.761  69.836  23.597  0.00  0.00    +0.011 A 
ATOM     16  C   LIG    1      -39.923  69.784  22.810  0.00  0.00    +0.129 A 
ATOM     17  F   LIG    1      -41.094  70.198  23.314  0.00  0.00    -0.205 F 
ATOM     18  C   LIG    1      -39.904  69.317  21.492  0.00  0.00    +0.041 A 
ATOM     19  C   LIG    1      -38.717  68.835  20.947  0.00  0.00    +0.041 A 
ATOM     20  C   LIG    1      -37.569  68.834  21.726  0.00  0.00    +0.124 A 
ATOM     21  F   LIG    1      -36.433  68.329  21.228  0.00  0.00    -0.205 F 
ATOM     22  C   LIG    1      -37.576  69.348  23.021  0.00  0.00    +0.046 A 
ENDBRANCH  11  15
ENDBRANCH   4  10
BRANCH   1  25
ATOM     23  N   LIG    1      -35.632  76.254  26.468  0.00  0.00    -0.266 N 
ATOM     24  H   LIG    1      -35.638  75.573  25.718  0.00  0.00    +0.157 HD
ATOM     25  C   LIG    1      -36.832  76.868  26.739  0.00  0.00    +0.254 C 
ATOM     26  O   LIG    1      -37.044  77.707  27.614  0.00  0.00    -0.270 OA
BRANCH  23  29
ATOM     27  C   LIG    1      -34.598  74.191  28.219  0.00  0.00    +0.047 C 
ATOM     28  C   LIG    1      -33.928  75.512  28.025  0.00  0.00    -0.010 A 
ATOM     29  C   LIG    1      -34.434  76.495  27.166  0.00  0.00    +0.128 A 
ATOM     30  N   LIG    1      -33.798  77.670  27.001  0.00  0.00    -0.240 NA
ATOM     31  C   LIG    1      -32.665  77.903  27.695  0.00  0.00    +0.113 A 
ATOM     32  C   LIG    1      -32.108  77.001  28.575  0.00  0.00    +0.020 A 
ATOM     33  C   LIG    1      -32.752  75.785  28.740  0.00  0.00    +0.008 A 
ENDBRANCH  23  29
ENDBRANCH   1  25
TORSDOF 4
ENDMDL
MODEL 7
REMARK VINA RESULT:      -6.1     19.150     21.992
REMARK  Name = pdb/CHEMBL3671131.pdb
REMARK                            x       y       z     vdW  Elec       q    Type
REMARK                         _______ _______ _______ _____ _____    ______ ____
ROOT
ATOM      1  C   LIG    1      -25.108  83.400  11.176  0.00  0.00    +0.101 A 
ATOM      2  C   LIG    1      -24.579  84.670  11.365  0.00  0.00    +0.170 A 
ATOM      3  N   LIG    1      -23.710  85.201  12.294  0.00  0.00    -0.212 NA
ATOM      4  C   LIG    1      -23.449  86.494  12.231  0.00  0.00    +0.126 A 
ATOM      5  C   LIG    1      -24.014  87.368  11.131  0.00  0.00    +0.063 A 
ATOM      6  C   LIG    1      -24.855  86.805  10.261  0.00  0.00    +0.118 A 
ATOM      7  N   LIG    1      -25.156  85.463  10.362  0.00  0.00    -0.221 N 
ATOM      8  N   LIG    1      -25.995  84.768   9.565  0.00  0.00    -0.173 NA
ATOM      9  C   LIG    1      -25.963  83.536  10.060  0.00  0.00    +0.150 A 
ENDROOT
BRANCH   4  10
ATOM     10  N   LIG    1      -22.641  87.102  13.187  0.00  0.00    -0.308 N 
ATOM     11  C   LIG    1      -21.708  86.364  14.058  0.00  0.00    +0.108 C 
ATOM     12  C   LIG    1      -21.881  87.075  15.412  0.00  0.00    +0.029 C 
ATOM     13  C   LIG    1      -22.077  88.524  15.009  0.00  0.00    +0.021 C 
ATOM     14  C   LIG    1      -22.966  88.405  13.781  0.00  0.00    +0.107 C 
BRANCH  11  15
ATOM     15  C   LIG    1      -20.281  86.406  13.526  0.00  0.00    +0.011 A 
ATOM     16  C   LIG    1      -19.459  85.270  13.595  0.00  0.00    +0.129 A 
ATOM     17  F   LIG    1      -19.900  84.158  14.201  0.00  0.00    -0.205 F 
ATOM     18  C   LIG    1      -18.177  85.249  13.039  0.00  0.00    +0.041 A 
ATOM     19  C   LIG    1      -17.662  86.398  12.444  0.00  0.00    +0.041 A 
ATOM     20  C   LIG    1      -18.442  87.545  12.408  0.00  0.00    +0.124 A 
ATOM     21  F   LIG    1      -17.941  88.669  11.880  0.00  0.00    -0.205 F 
ATOM     22  C   LIG    1      -19.740  87.550  12.915  0.00  0.00    +0.046 A 
ENDBRANCH  11  15
ENDBRANCH   4  10
BRANCH   1  25
ATOM     23  N   LIG    1      -24.892  82.286  13.276  0.00  0.00    -0.266 N 
ATOM     24  H   LIG    1      -24.996  83.226  13.639  0.00  0.00    +0.157 HD
ATOM     25  C   LIG    1      -24.913  82.159  11.908  0.00  0.00    +0.254 C 
ATOM     26  O   LIG    1      -24.787  81.115  11.268  0.00  0.00    -0.270 OA
BRANCH  23  29
ATOM     27  C   LIG    1      -22.540  82.256  14.966  0.00  0.00    +0.047 C 
ATOM     28  C   LIG    1      -23.580  81.185  14.992  0.00  0.00    -0.010 A 
ATOM     29  C   LIG    1      -24.718  81.220  14.177  0.00  0.00    +0.128 A 
ATOM     30  N   LIG    1      -25.645  80.245  14.235  0.00  0.00    -0.240 NA
ATOM     31  C   LIG    1      -25.457  79.212  15.082  0.00  0.00    +0.113 A 
ATOM     32  C   LIG    1      -24.358  79.088  15.904  0.00  0.00    +0.020 A 
ATOM     33  C   LIG    1      -23.406  80.094  15.857  0.00  0.00    +0.008 A 
ENDBRANCH  23  29
ENDBRANCH   1  25
TORSDOF 4
ENDMDL
MODEL 8
REMARK VINA RESULT:      -6.1     17.658     21.304
REMARK  Name = pdb/CHEMBL3671131.pdb
REMARK                            x       y       z     vdW  Elec       q    Type
REMARK                         _______ _______ _______ _____ _____    ______ ____
ROOT
ATOM      1  C   LIG    1      -36.602  70.483  25.606  0.00  0.00    +0.101 A 
ATOM      2  C   LIG    1      -36.468  69.581  24.559  0.00  0.00    +0.170 A 
ATOM      3  N   LIG    1      -37.109  69.444  23.345  0.00  0.00    -0.212 NA
ATOM      4  C   LIG    1      -36.780  68.416  22.584  0.00  0.00    +0.126 A 
ATOM      5  C   LIG    1      -35.681  67.451  22.979  0.00  0.00    +0.063 A 
ATOM      6  C   LIG    1      -35.099  67.626  24.166  0.00  0.00    +0.118 A 
ATOM      7  N   LIG    1      -35.480  68.678  24.974  0.00  0.00    -0.221 N 
ATOM      8  N   LIG    1      -34.989  68.966  26.197  0.00  0.00    -0.173 NA
ATOM      9  C   LIG    1      -35.667  70.046  26.570  0.00  0.00    +0.150 A 
ENDROOT
BRANCH   4  10
ATOM     10  N   LIG    1      -37.444  68.180  21.384  0.00  0.00    -0.308 N 
ATOM     11  C   LIG    1      -38.481  67.145  21.213  0.00  0.00    +0.108 C 
ATOM     12  C   LIG    1      -38.155  66.571  19.823  0.00  0.00    +0.029 C 
ATOM     13  C   LIG    1      -37.701  67.795  19.050  0.00  0.00    +0.021 C 
ATOM     14  C   LIG    1      -36.873  68.545  20.083  0.00  0.00    +0.107 C 
BRANCH  11  15
ATOM     15  C   LIG    1      -39.885  67.728  21.316  0.00  0.00    +0.011 A 
ATOM     16  C   LIG    1      -40.986  66.896  21.576  0.00  0.00    +0.129 A 
ATOM     17  F   LIG    1      -40.819  65.568  21.659  0.00  0.00    -0.205 F 
ATOM     18  C   LIG    1      -42.274  67.408  21.762  0.00  0.00    +0.041 A 
ATOM     19  C   LIG    1      -42.499  68.776  21.636  0.00  0.00    +0.041 A 
ATOM     20  C   LIG    1      -41.431  69.609  21.333  0.00  0.00    +0.124 A 
ATOM     21  F   LIG    1      -41.644  70.920  21.163  0.00  0.00    -0.205 F 
ATOM     22  C   LIG    1      -40.139  69.105  21.200  0.00  0.00    +0.046 A 
ENDBRANCH  11  15
ENDBRANCH   4  10
BRANCH   1  25
ATOM     23  N   LIG    1      -37.584  72.455  24.688  0.00  0.00    -0.266 N 
ATOM     24  H   LIG    1      -37.033  72.197  23.878  0.00  0.00    +0.157 HD
ATOM     25  C   LIG    1      -37.479  71.630  25.781  0.00  0.00    +0.254 C 
ATOM     26  O   LIG    1      -38.047  71.772  26.864  0.00  0.00    -0.270 OA
BRANCH  23  29
ATOM     27  C   LIG    1      -40.325  72.239  23.775  0.00  0.00    +0.047 C 
ATOM     28  C   LIG    1      -39.699  73.531  24.184  0.00  0.00    -0.010 A 
ATOM     29  C   LIG    1      -38.376  73.618  24.635  0.00  0.00    +0.128 A 
ATOM     30  N   LIG    1      -37.845  74.797  25.011  0.00  0.00    -0.240 NA
ATOM     31  C   LIG    1      -38.601  75.911  24.930  0.00  0.00    +0.113 A 
ATOM     32  C   LIG    1      -39.903  75.919  24.481  0.00  0.00    +0.020 A 
ATOM     33  C   LIG    1      -40.459  74.707  24.103  0.00  0.00    +0.008 A 
ENDBRANCH  23  29
ENDBRANCH   1  25
TORSDOF 4
ENDMDL
MODEL 9
REMARK VINA RESULT:      -6.0     19.655     22.585
REMARK  Name = pdb/CHEMBL3671131.pdb
REMARK                            x       y       z     vdW  Elec       q    Type
REMARK                         _______ _______ _______ _____ _____    ______ ____
ROOT
ATOM      1  C   LIG    1      -25.106  82.863  11.347  0.00  0.00    +0.101 A 
ATOM      2  C   LIG    1      -25.046  84.162  10.863  0.00  0.00    +0.170 A 
ATOM      3  N   LIG    1      -24.194  85.220  11.103  0.00  0.00    -0.212 NA
ATOM      4  C   LIG    1      -24.455  86.372  10.513  0.00  0.00    +0.126 A 
ATOM      5  C   LIG    1      -25.603  86.525   9.536  0.00  0.00    +0.063 A 
ATOM      6  C   LIG    1      -26.400  85.472   9.345  0.00  0.00    +0.118 A 
ATOM      7  N   LIG    1      -26.145  84.285  10.001  0.00  0.00    -0.221 N 
ATOM      8  N   LIG    1      -26.870  83.151   9.913  0.00  0.00    -0.173 NA
ATOM      9  C   LIG    1      -26.244  82.305  10.724  0.00  0.00    +0.150 A 
ENDROOT
BRANCH   4  10
ATOM     10  N   LIG    1      -23.678  87.496  10.775  0.00  0.00    -0.308 N 
ATOM     11  C   LIG    1      -23.505  88.075  12.120  0.00  0.00    +0.108 C 
ATOM     12  C   LIG    1      -23.558  89.587  11.843  0.00  0.00    +0.029 C 
ATOM     13  C   LIG    1      -22.852  89.711  10.506  0.00  0.00    +0.021 C 
ATOM     14  C   LIG    1      -23.372  88.500   9.748  0.00  0.00    +0.107 C 
BRANCH  11  15
ATOM     15  C   LIG    1      -22.203  87.620  12.769  0.00  0.00    +0.011 A 
ATOM     16  C   LIG    1      -21.961  87.865  14.131  0.00  0.00    +0.129 A 
ATOM     17  F   LIG    1      -22.843  88.569  14.853  0.00  0.00    -0.205 F 
ATOM     18  C   LIG    1      -20.817  87.386  14.776  0.00  0.00    +0.041 A 
ATOM     19  C   LIG    1      -19.853  86.691  14.051  0.00  0.00    +0.041 A 
ATOM     20  C   LIG    1      -20.053  86.481  12.694  0.00  0.00    +0.124 A 
ATOM     21  F   LIG    1      -19.111  85.855  11.977  0.00  0.00    -0.205 F 
ATOM     22  C   LIG    1      -21.217  86.912  12.062  0.00  0.00    +0.046 A 
ENDBRANCH  11  15
ENDBRANCH   4  10
BRANCH   1  25
ATOM     23  N   LIG    1      -24.458  82.474  13.612  0.00  0.00    -0.266 N 
ATOM     24  H   LIG    1      -25.156  83.186  13.797  0.00  0.00    +0.157 HD
ATOM     25  C   LIG    1      -24.261  82.149  12.292  0.00  0.00    +0.254 C 
ATOM     26  O   LIG    1      -23.456  81.328  11.852  0.00  0.00    -0.270 OA
BRANCH  23  29
ATOM     27  C   LIG    1      -22.494  84.088  14.999  0.00  0.00    +0.047 C 
ATOM     28  C   LIG    1      -22.793  82.671  15.364  0.00  0.00    -0.010 A 
ATOM     29  C   LIG    1      -23.755  81.908  14.691  0.00  0.00    +0.128 A 
ATOM     30  N   LIG    1      -24.012  80.637  15.053  0.00  0.00    -0.240 NA
ATOM     31  C   LIG    1      -23.313  80.092  16.071  0.00  0.00    +0.113 A 
ATOM     32  C   LIG    1      -22.338  80.764  16.774  0.00  0.00    +0.020 A 
ATOM     33  C   LIG    1      -22.077  82.076  16.412  0.00  0.00    +0.008 A 
ENDBRANCH  23  29
ENDBRANCH   1  25
TORSDOF 4
ENDMDL
