MODEL 1
REMARK VINA RESULT:      -7.2      0.000      0.000
REMARK  Name = pdb/CHEMBL3948987.pdb
REMARK                            x       y       z     vdW  Elec       q    Type
REMARK                         _______ _______ _______ _____ _____    ______ ____
ROOT
ATOM      1  C   LIG    1      -29.589  75.864  31.526  0.00  0.00    +0.149 A 
ATOM      2  N   LIG    1      -29.072  74.646  31.772  0.00  0.00    -0.160 NA
ATOM      3  N   LIG    1      -27.749  74.856  31.988  0.00  0.00    -0.218 N 
ATOM      4  C   LIG    1      -27.459  76.219  32.105  0.00  0.00    +0.129 A 
ATOM      5  C   LIG    1      -28.599  76.868  31.694  0.00  0.00    +0.078 A 
ENDROOT
BRANCH   3   6
ATOM      6  C   LIG    1      -26.856  73.756  32.131  0.00  0.00    +0.067 A 
ATOM      7  C   LIG    1      -25.673  73.722  31.377  0.00  0.00    +0.028 A 
ATOM      8  C   LIG    1      -24.808  72.628  31.478  0.00  0.00    +0.002 A 
ATOM      9  C   LIG    1      -25.098  71.584  32.354  0.00  0.00    +0.000 A 
ATOM     10  C   LIG    1      -26.250  71.633  33.137  0.00  0.00    +0.002 A 
ATOM     11  C   LIG    1      -27.128  72.715  33.030  0.00  0.00    +0.028 A 
ENDBRANCH   3   6
BRANCH   4  12
ATOM     12  N   LIG    1      -26.283  76.786  32.624  0.00  0.00    -0.266 N 
ATOM     13  H   LIG    1      -26.205  76.829  33.631  0.00  0.00    +0.157 HD
ATOM     14  C   LIG    1      -25.274  77.434  31.816  0.00  0.00    +0.251 C 
ATOM     15  O   LIG    1      -25.395  77.507  30.616  0.00  0.00    -0.270 OA
BRANCH  14  16
ATOM     16  C   LIG    1      -24.086  77.962  32.546  0.00  0.00    +0.056 A 
ATOM     17  C   LIG    1      -22.801  77.464  32.303  0.00  0.00    +0.053 A 
ATOM     18 CL   LIG    1      -22.420  76.343  31.048  0.00  0.00    -0.083 Cl
ATOM     19  C   LIG    1      -21.725  77.928  33.067  0.00  0.00    +0.021 A 
ATOM     20  C   LIG    1      -21.917  78.914  34.037  0.00  0.00    +0.011 A 
ATOM     21  C   LIG    1      -23.183  79.467  34.281  0.00  0.00    +0.004 A 
ATOM     22  C   LIG    1      -24.264  78.947  33.537  0.00  0.00    +0.024 A 
BRANCH  21  23
ATOM     23  C   LIG    1      -23.392  80.567  35.249  0.00  0.00    +0.106 A 
ATOM     24  C   LIG    1      -22.419  81.520  35.566  0.00  0.00    +0.149 A 
ATOM     25  F   LIG    1      -21.194  81.484  35.024  0.00  0.00    -0.203 F 
ATOM     26  C   LIG    1      -22.707  82.528  36.478  0.00  0.00    +0.042 A 
ATOM     27  C   LIG    1      -23.968  82.577  37.056  0.00  0.00    +0.023 A 
ATOM     28  C   LIG    1      -24.892  81.610  36.693  0.00  0.00    +0.111 A 
ATOM     29  N   LIG    1      -24.634  80.605  35.818  0.00  0.00    -0.252 NA
ENDBRANCH  21  23
ENDBRANCH  14  16
ENDBRANCH   4  12
BRANCH   1  31
ATOM     30  N   LIG    1      -31.435  75.803  30.022  0.00  0.00    -0.243 NA
ATOM     31  C   LIG    1      -31.002  76.088  31.197  0.00  0.00    +0.236 C 
BRANCH  31  32
ATOM     32  O   LIG    1      -31.742  76.635  32.184  0.00  0.00    -0.491 OA
ATOM     33  H   LIG    1      -32.577  76.157  32.307  0.00  0.00    +0.294 HD
ENDBRANCH  31  32
BRANCH  30  34
ATOM     34  C   LIG    1      -32.860  75.944  29.715  0.00  0.00    +0.200 C 
BRANCH  34  37
ATOM     35  C   LIG    1      -32.913  78.648  27.210  0.00  0.00    +0.116 A 
ATOM     36  N   LIG    1      -32.632  77.474  27.811  0.00  0.00    -0.235 NA
ATOM     37  C   LIG    1      -33.206  77.243  29.023  0.00  0.00    +0.065 A 
ATOM     38  C   LIG    1      -34.080  78.144  29.630  0.00  0.00    +0.025 A 
ATOM     39  C   LIG    1      -34.351  79.346  28.990  0.00  0.00    +0.005 A 
ATOM     40  C   LIG    1      -33.752  79.607  27.764  0.00  0.00    +0.043 A 
BRANCH  35  41
ATOM     41  N   LIG    1      -32.274  78.902  25.999  0.00  0.00    -0.343 N 
ATOM     42  H   LIG    1      -31.500  78.253  25.912  0.00  0.00    +0.144 HD
ATOM     43  H   LIG    1      -32.914  78.844  25.215  0.00  0.00    +0.144 HD
ENDBRANCH  35  41
ENDBRANCH  34  37
ENDBRANCH  30  34
ENDBRANCH   1  31
TORSDOF 9
ENDMDL
MODEL 2
REMARK VINA RESULT:      -7.2      8.489     12.567
REMARK  Name = pdb/CHEMBL3948987.pdb
REMARK                            x       y       z     vdW  Elec       q    Type
REMARK                         _______ _______ _______ _____ _____    ______ ____
ROOT
ATOM      1  C   LIG    1      -35.697  69.440  25.127  0.00  0.00    +0.149 A 
ATOM      2  N   LIG    1      -36.714  70.321  25.111  0.00  0.00    -0.160 NA
ATOM      3  N   LIG    1      -36.328  71.328  25.934  0.00  0.00    -0.218 N 
ATOM      4  C   LIG    1      -34.983  71.208  26.296  0.00  0.00    +0.129 A 
ATOM      5  C   LIG    1      -34.610  69.950  25.886  0.00  0.00    +0.078 A 
ENDROOT
BRANCH   3   6
ATOM      6  C   LIG    1      -37.236  72.371  26.276  0.00  0.00    +0.067 A 
ATOM      7  C   LIG    1      -37.609  72.553  27.617  0.00  0.00    +0.028 A 
ATOM      8  C   LIG    1      -38.531  73.546  27.960  0.00  0.00    +0.002 A 
ATOM      9  C   LIG    1      -39.056  74.384  26.978  0.00  0.00    +0.000 A 
ATOM     10  C   LIG    1      -38.657  74.236  25.651  0.00  0.00    +0.002 A 
ATOM     11  C   LIG    1      -37.748  73.235  25.297  0.00  0.00    +0.028 A 
ENDBRANCH   3   6
BRANCH   4  12
ATOM     12  N   LIG    1      -34.175  72.203  26.870  0.00  0.00    -0.266 N 
ATOM     13  H   LIG    1      -33.597  72.739  26.238  0.00  0.00    +0.157 HD
ATOM     14  C   LIG    1      -34.015  72.392  28.294  0.00  0.00    +0.251 C 
ATOM     15  O   LIG    1      -34.600  71.687  29.081  0.00  0.00    -0.270 OA
BRANCH  14  16
ATOM     16  C   LIG    1      -33.126  73.514  28.713  0.00  0.00    +0.056 A 
ATOM     17  C   LIG    1      -31.966  73.285  29.461  0.00  0.00    +0.053 A 
ATOM     18 CL   LIG    1      -31.347  71.716  29.827  0.00  0.00    -0.083 Cl
ATOM     19  C   LIG    1      -31.204  74.370  29.902  0.00  0.00    +0.021 A 
ATOM     20  C   LIG    1      -31.567  75.677  29.566  0.00  0.00    +0.011 A 
ATOM     21  C   LIG    1      -32.700  75.944  28.783  0.00  0.00    +0.004 A 
ATOM     22  C   LIG    1      -33.486  74.838  28.393  0.00  0.00    +0.024 A 
BRANCH  21  23
ATOM     23  C   LIG    1      -33.057  77.314  28.350  0.00  0.00    +0.106 A 
ATOM     24  C   LIG    1      -32.524  77.936  27.217  0.00  0.00    +0.149 A 
ATOM     25  F   LIG    1      -31.612  77.330  26.444  0.00  0.00    -0.203 F 
ATOM     26  C   LIG    1      -32.926  79.221  26.878  0.00  0.00    +0.042 A 
ATOM     27  C   LIG    1      -33.864  79.869  27.671  0.00  0.00    +0.023 A 
ATOM     28  C   LIG    1      -34.361  79.195  28.776  0.00  0.00    +0.111 A 
ATOM     29  N   LIG    1      -33.976  77.947  29.140  0.00  0.00    -0.252 NA
ENDBRANCH  21  23
ENDBRANCH  14  16
ENDBRANCH   4  12
BRANCH   1  31
ATOM     30  N   LIG    1      -34.924  67.994  23.400  0.00  0.00    -0.243 NA
ATOM     31  C   LIG    1      -35.719  68.169  24.393  0.00  0.00    +0.236 C 
BRANCH  31  32
ATOM     32  O   LIG    1      -36.639  67.276  24.816  0.00  0.00    -0.491 OA
ATOM     33  H   LIG    1      -36.238  66.593  25.376  0.00  0.00    +0.294 HD
ENDBRANCH  31  32
BRANCH  30  34
ATOM     34  C   LIG    1      -34.880  66.698  22.719  0.00  0.00    +0.200 C 
BRANCH  34  37
ATOM     35  C   LIG    1      -36.705  67.611  19.648  0.00  0.00    +0.116 A 
ATOM     36  N   LIG    1      -36.325  67.577  20.942  0.00  0.00    -0.235 NA
ATOM     37  C   LIG    1      -35.281  66.765  21.263  0.00  0.00    +0.065 A 
ATOM     38  C   LIG    1      -34.589  66.014  20.315  0.00  0.00    +0.025 A 
ATOM     39  C   LIG    1      -35.002  66.065  18.989  0.00  0.00    +0.005 A 
ATOM     40  C   LIG    1      -36.082  66.870  18.651  0.00  0.00    +0.043 A 
BRANCH  35  41
ATOM     41  N   LIG    1      -37.812  68.397  19.339  0.00  0.00    -0.343 N 
ATOM     42  H   LIG    1      -38.430  67.849  18.750  0.00  0.00    +0.144 HD
ATOM     43  H   LIG    1      -38.277  68.737  20.172  0.00  0.00    +0.144 HD
ENDBRANCH  35  41
ENDBRANCH  34  37
ENDBRANCH  30  34
ENDBRANCH   1  31
TORSDOF 9
ENDMDL
MODEL 3
REMARK VINA RESULT:      -7.1     17.123     19.762
REMARK  Name = pdb/CHEMBL3948987.pdb
REMARK                            x       y       z     vdW  Elec       q    Type
REMARK                         _______ _______ _______ _____ _____    ______ ____
ROOT
ATOM      1  C   LIG    1      -20.813  81.794  13.989  0.00  0.00    +0.149 A 
ATOM      2  N   LIG    1      -22.122  81.489  14.054  0.00  0.00    -0.160 NA
ATOM      3  N   LIG    1      -22.167  80.179  14.402  0.00  0.00    -0.218 N 
ATOM      4  C   LIG    1      -20.907  79.705  14.780  0.00  0.00    +0.129 A 
ATOM      5  C   LIG    1      -20.023  80.690  14.407  0.00  0.00    +0.078 A 
ENDROOT
BRANCH   3   6
ATOM      6  C   LIG    1      -23.405  79.476  14.413  0.00  0.00    +0.067 A 
ATOM      7  C   LIG    1      -24.439  79.908  15.258  0.00  0.00    +0.028 A 
ATOM      8  C   LIG    1      -25.645  79.201  15.308  0.00  0.00    +0.002 A 
ATOM      9  C   LIG    1      -25.839  78.087  14.494  0.00  0.00    +0.000 A 
ATOM     10  C   LIG    1      -24.832  77.679  13.622  0.00  0.00    +0.002 A 
ATOM     11  C   LIG    1      -23.617  78.370  13.577  0.00  0.00    +0.028 A 
ENDBRANCH   3   6
BRANCH   4  12
ATOM     12  N   LIG    1      -20.630  78.517  15.477  0.00  0.00    -0.266 N 
ATOM     13  H   LIG    1      -20.660  78.565  16.486  0.00  0.00    +0.157 HD
ATOM     14  C   LIG    1      -20.168  77.301  14.848  0.00  0.00    +0.251 C 
ATOM     15  O   LIG    1      -20.005  77.245  13.653  0.00  0.00    -0.270 OA
BRANCH  14  16
ATOM     16  C   LIG    1      -19.944  76.137  15.753  0.00  0.00    +0.056 A 
ATOM     17  C   LIG    1      -18.799  76.045  16.553  0.00  0.00    +0.053 A 
ATOM     18 CL   LIG    1      -17.633  77.306  16.719  0.00  0.00    -0.083 Cl
ATOM     19  C   LIG    1      -18.587  74.900  17.327  0.00  0.00    +0.021 A 
ATOM     20  C   LIG    1      -19.529  73.868  17.340  0.00  0.00    +0.011 A 
ATOM     21  C   LIG    1      -20.708  73.942  16.583  0.00  0.00    +0.004 A 
ATOM     22  C   LIG    1      -20.877  75.082  15.768  0.00  0.00    +0.024 A 
BRANCH  21  23
ATOM     23  C   LIG    1      -21.754  72.896  16.645  0.00  0.00    +0.106 A 
ATOM     24  C   LIG    1      -22.811  72.906  17.561  0.00  0.00    +0.149 A 
ATOM     25  F   LIG    1      -22.936  73.870  18.484  0.00  0.00    -0.203 F 
ATOM     26  C   LIG    1      -23.756  71.888  17.539  0.00  0.00    +0.042 A 
ATOM     27  C   LIG    1      -23.640  70.876  16.596  0.00  0.00    +0.023 A 
ATOM     28  C   LIG    1      -22.575  70.929  15.710  0.00  0.00    +0.111 A 
ATOM     29  N   LIG    1      -21.628  71.900  15.718  0.00  0.00    -0.252 NA
ENDBRANCH  21  23
ENDBRANCH  14  16
ENDBRANCH   4  12
BRANCH   1  31
ATOM     30  N   LIG    1      -20.883  83.761  12.648  0.00  0.00    -0.243 NA
ATOM     31  C   LIG    1      -20.312  83.118  13.602  0.00  0.00    +0.236 C 
BRANCH  31  32
ATOM     32  O   LIG    1      -19.225  83.544  14.280  0.00  0.00    -0.491 OA
ATOM     33  H   LIG    1      -18.411  83.154  13.926  0.00  0.00    +0.294 HD
ENDBRANCH  31  32
BRANCH  30  34
ATOM     34  C   LIG    1      -20.443  85.118  12.315  0.00  0.00    +0.200 C 
BRANCH  34  37
ATOM     35  C   LIG    1      -21.461  87.317  15.092  0.00  0.00    +0.116 A 
ATOM     36  N   LIG    1      -20.796  86.378  14.389  0.00  0.00    -0.235 NA
ATOM     37  C   LIG    1      -21.162  86.197  13.092  0.00  0.00    +0.065 A 
ATOM     38  C   LIG    1      -22.155  86.956  12.473  0.00  0.00    +0.025 A 
ATOM     39  C   LIG    1      -22.826  87.916  13.221  0.00  0.00    +0.005 A 
ATOM     40  C   LIG    1      -22.479  88.094  14.554  0.00  0.00    +0.043 A 
BRANCH  35  41
ATOM     41  N   LIG    1      -21.121  87.454  16.436  0.00  0.00    -0.343 N 
ATOM     42  H   LIG    1      -21.626  86.747  16.959  0.00  0.00    +0.144 HD
ATOM     43  H   LIG    1      -20.120  87.397  16.580  0.00  0.00    +0.144 HD
ENDBRANCH  35  41
ENDBRANCH  34  37
ENDBRANCH  30  34
ENDBRANCH   1  31
TORSDOF 9
ENDMDL
MODEL 4
REMARK VINA RESULT:      -7.1     10.809     14.875
REMARK  Name = pdb/CHEMBL3948987.pdb
REMARK                            x       y       z     vdW  Elec       q    Type
REMARK                         _______ _______ _______ _____ _____    ______ ____
ROOT
ATOM      1  C   LIG    1      -37.328  79.776  27.639  0.00  0.00    +0.149 A 
ATOM      2  N   LIG    1      -36.192  79.066  27.762  0.00  0.00    -0.160 NA
ATOM      3  N   LIG    1      -36.552  77.776  27.548  0.00  0.00    -0.218 N 
ATOM      4  C   LIG    1      -37.862  77.681  27.067  0.00  0.00    +0.129 A 
ATOM      5  C   LIG    1      -38.399  78.935  27.237  0.00  0.00    +0.078 A 
ENDROOT
BRANCH   3   6
ATOM      6  C   LIG    1      -35.617  76.720  27.753  0.00  0.00    +0.067 A 
ATOM      7  C   LIG    1      -34.310  76.848  27.260  0.00  0.00    +0.028 A 
ATOM      8  C   LIG    1      -33.395  75.802  27.419  0.00  0.00    +0.002 A 
ATOM      9  C   LIG    1      -33.766  74.643  28.098  0.00  0.00    +0.000 A 
ATOM     10  C   LIG    1      -35.050  74.529  28.628  0.00  0.00    +0.002 A 
ATOM     11  C   LIG    1      -35.976  75.563  28.460  0.00  0.00    +0.028 A 
ENDBRANCH   3   6
BRANCH   4  12
ATOM     12  N   LIG    1      -38.454  76.563  26.458  0.00  0.00    -0.266 N 
ATOM     13  H   LIG    1      -39.134  76.054  27.005  0.00  0.00    +0.157 HD
ATOM     14  C   LIG    1      -38.042  76.026  25.180  0.00  0.00    +0.251 C 
ATOM     15  O   LIG    1      -37.147  76.541  24.552  0.00  0.00    -0.270 OA
BRANCH  14  16
ATOM     16  C   LIG    1      -38.804  74.843  24.688  0.00  0.00    +0.056 A 
ATOM     17  C   LIG    1      -40.089  74.975  24.150  0.00  0.00    +0.053 A 
ATOM     18 CL   LIG    1      -40.853  76.489  23.836  0.00  0.00    -0.083 Cl
ATOM     19  C   LIG    1      -40.801  73.831  23.775  0.00  0.00    +0.021 A 
ATOM     20  C   LIG    1      -40.224  72.565  23.893  0.00  0.00    +0.011 A 
ATOM     21  C   LIG    1      -38.923  72.395  24.390  0.00  0.00    +0.004 A 
ATOM     22  C   LIG    1      -38.241  73.557  24.813  0.00  0.00    +0.024 A 
BRANCH  21  23
ATOM     23  C   LIG    1      -38.265  71.070  24.449  0.00  0.00    +0.106 A 
ATOM     24  C   LIG    1      -38.566  70.013  23.584  0.00  0.00    +0.149 A 
ATOM     25  F   LIG    1      -39.511  70.121  22.641  0.00  0.00    -0.203 F 
ATOM     26  C   LIG    1      -37.889  68.806  23.704  0.00  0.00    +0.042 A 
ATOM     27  C   LIG    1      -36.912  68.672  24.681  0.00  0.00    +0.023 A 
ATOM     28  C   LIG    1      -36.654  69.760  25.501  0.00  0.00    +0.111 A 
ATOM     29  N   LIG    1      -37.309  70.944  25.418  0.00  0.00    -0.252 NA
ENDBRANCH  21  23
ENDBRANCH  14  16
ENDBRANCH   4  12
BRANCH   1  31
ATOM     30  N   LIG    1      -38.366  81.896  27.323  0.00  0.00    -0.243 NA
ATOM     31  C   LIG    1      -37.396  81.229  27.836  0.00  0.00    +0.236 C 
BRANCH  31  32
ATOM     32  O   LIG    1      -36.370  81.764  28.532  0.00  0.00    -0.491 OA
ATOM     33  H   LIG    1      -36.629  81.965  29.446  0.00  0.00    +0.294 HD
ENDBRANCH  31  32
BRANCH  30  34
ATOM     34  C   LIG    1      -38.486  83.332  27.588  0.00  0.00    +0.200 C 
BRANCH  34  37
ATOM     35  C   LIG    1      -35.697  85.356  26.280  0.00  0.00    +0.116 A 
ATOM     36  N   LIG    1      -36.422  84.562  27.093  0.00  0.00    -0.235 NA
ATOM     37  C   LIG    1      -37.658  84.191  26.660  0.00  0.00    +0.065 A 
ATOM     38  C   LIG    1      -38.168  84.569  25.419  0.00  0.00    +0.025 A 
ATOM     39  C   LIG    1      -37.401  85.389  24.601  0.00  0.00    +0.005 A 
ATOM     40  C   LIG    1      -36.149  85.797  25.042  0.00  0.00    +0.043 A 
BRANCH  35  41
ATOM     41  N   LIG    1      -34.459  85.781  26.757  0.00  0.00    -0.343 N 
ATOM     42  H   LIG    1      -33.905  84.957  26.965  0.00  0.00    +0.144 HD
ATOM     43  H   LIG    1      -33.995  86.401  26.103  0.00  0.00    +0.144 HD
ENDBRANCH  35  41
ENDBRANCH  34  37
ENDBRANCH  30  34
ENDBRANCH   1  31
TORSDOF 9
ENDMDL
MODEL 5
REMARK VINA RESULT:      -7.0     10.188     14.368
REMARK  Name = pdb/CHEMBL3948987.pdb
REMARK                            x       y       z     vdW  Elec       q    Type
REMARK                         _______ _______ _______ _____ _____    ______ ____
ROOT
ATOM      1  C   LIG    1      -37.282  79.937  27.498  0.00  0.00    +0.149 A 
ATOM      2  N   LIG    1      -36.137  79.309  27.823  0.00  0.00    -0.160 NA
ATOM      3  N   LIG    1      -36.418  77.985  27.734  0.00  0.00    -0.218 N 
ATOM      4  C   LIG    1      -37.663  77.764  27.136  0.00  0.00    +0.129 A 
ATOM      5  C   LIG    1      -38.268  78.998  27.094  0.00  0.00    +0.078 A 
ENDROOT
BRANCH   3   6
ATOM      6  C   LIG    1      -35.468  77.014  28.162  0.00  0.00    +0.067 A 
ATOM      7  C   LIG    1      -35.344  76.722  29.529  0.00  0.00    +0.028 A 
ATOM      8  C   LIG    1      -34.387  75.801  29.965  0.00  0.00    +0.002 A 
ATOM      9  C   LIG    1      -33.577  75.141  29.042  0.00  0.00    +0.000 A 
ATOM     10  C   LIG    1      -33.726  75.395  27.680  0.00  0.00    +0.002 A 
ATOM     11  C   LIG    1      -34.670  76.327  27.236  0.00  0.00    +0.028 A 
ENDBRANCH   3   6
BRANCH   4  12
ATOM     12  N   LIG    1      -38.140  76.551  26.611  0.00  0.00    -0.266 N 
ATOM     13  H   LIG    1      -38.583  75.918  27.261  0.00  0.00    +0.157 HD
ATOM     14  C   LIG    1      -37.897  76.107  25.257  0.00  0.00    +0.251 C 
ATOM     15  O   LIG    1      -37.264  76.788  24.486  0.00  0.00    -0.270 OA
BRANCH  14  16
ATOM     16  C   LIG    1      -38.499  74.797  24.877  0.00  0.00    +0.056 A 
ATOM     17  C   LIG    1      -39.725  74.724  24.206  0.00  0.00    +0.053 A 
ATOM     18 CL   LIG    1      -40.576  76.097  23.598  0.00  0.00    -0.083 Cl
ATOM     19  C   LIG    1      -40.294  73.475  23.941  0.00  0.00    +0.021 A 
ATOM     20  C   LIG    1      -39.629  72.301  24.301  0.00  0.00    +0.011 A 
ATOM     21  C   LIG    1      -38.380  72.332  24.939  0.00  0.00    +0.004 A 
ATOM     22  C   LIG    1      -37.848  73.603  25.246  0.00  0.00    +0.024 A 
BRANCH  21  23
ATOM     23  C   LIG    1      -37.624  71.100  25.258  0.00  0.00    +0.106 A 
ATOM     24  C   LIG    1      -37.193  70.180  24.296  0.00  0.00    +0.149 A 
ATOM     25  F   LIG    1      -37.467  70.342  22.994  0.00  0.00    -0.203 F 
ATOM     26  C   LIG    1      -36.477  69.056  24.685  0.00  0.00    +0.042 A 
ATOM     27  C   LIG    1      -36.191  68.867  26.030  0.00  0.00    +0.023 A 
ATOM     28  C   LIG    1      -36.637  69.819  26.932  0.00  0.00    +0.111 A 
ATOM     29  N   LIG    1      -37.352  70.918  26.585  0.00  0.00    -0.252 NA
ENDBRANCH  21  23
ENDBRANCH  14  16
ENDBRANCH   4  12
BRANCH   1  31
ATOM     30  N   LIG    1      -36.463  82.134  27.918  0.00  0.00    -0.243 NA
ATOM     31  C   LIG    1      -37.431  81.397  27.507  0.00  0.00    +0.236 C 
BRANCH  31  32
ATOM     32  O   LIG    1      -38.636  81.856  27.104  0.00  0.00    -0.491 OA
ATOM     33  H   LIG    1      -39.357  81.437  27.599  0.00  0.00    +0.294 HD
ENDBRANCH  31  32
BRANCH  30  34
ATOM     34  C   LIG    1      -36.573  83.592  27.849  0.00  0.00    +0.200 C 
BRANCH  34  37
ATOM     35  C   LIG    1      -34.081  86.205  28.593  0.00  0.00    +0.116 A 
ATOM     36  N   LIG    1      -35.135  85.571  28.041  0.00  0.00    -0.235 NA
ATOM     37  C   LIG    1      -35.416  84.319  28.495  0.00  0.00    +0.065 A 
ATOM     38  C   LIG    1      -34.688  83.704  29.513  0.00  0.00    +0.025 A 
ATOM     39  C   LIG    1      -33.606  84.379  30.064  0.00  0.00    +0.005 A 
ATOM     40  C   LIG    1      -33.292  85.647  29.591  0.00  0.00    +0.043 A 
BRANCH  35  41
ATOM     41  N   LIG    1      -33.764  87.460  28.080  0.00  0.00    -0.343 N 
ATOM     42  H   LIG    1      -33.038  87.862  28.663  0.00  0.00    +0.144 HD
ATOM     43  H   LIG    1      -33.490  87.411  27.106  0.00  0.00    +0.144 HD
ENDBRANCH  35  41
ENDBRANCH  34  37
ENDBRANCH  30  34
ENDBRANCH   1  31
TORSDOF 9
ENDMDL
MODEL 6
REMARK VINA RESULT:      -7.0     20.148     23.378
REMARK  Name = pdb/CHEMBL3948987.pdb
REMARK                            x       y       z     vdW  Elec       q    Type
REMARK                         _______ _______ _______ _____ _____    ______ ____
ROOT
ATOM      1  C   LIG    1      -22.208  85.202  14.431  0.00  0.00    +0.149 A 
ATOM      2  N   LIG    1      -20.999  85.434  13.889  0.00  0.00    -0.160 NA
ATOM      3  N   LIG    1      -21.172  86.506  13.076  0.00  0.00    -0.218 N 
ATOM      4  C   LIG    1      -22.424  87.099  13.267  0.00  0.00    +0.129 A 
ATOM      5  C   LIG    1      -23.131  86.207  14.037  0.00  0.00    +0.078 A 
ENDROOT
BRANCH   3   6
ATOM      6  C   LIG    1      -20.122  86.938  12.215  0.00  0.00    +0.067 A 
ATOM      7  C   LIG    1      -18.981  87.542  12.764  0.00  0.00    +0.028 A 
ATOM      8  C   LIG    1      -17.962  88.008  11.928  0.00  0.00    +0.002 A 
ATOM      9  C   LIG    1      -18.057  87.841  10.547  0.00  0.00    +0.000 A 
ATOM     10  C   LIG    1      -19.168  87.203   9.999  0.00  0.00    +0.002 A 
ATOM     11  C   LIG    1      -20.199  86.749  10.828  0.00  0.00    +0.028 A 
ENDBRANCH   3   6
BRANCH   4  12
ATOM     12  N   LIG    1      -22.824  88.375  12.836  0.00  0.00    -0.266 N 
ATOM     13  H   LIG    1      -22.659  89.141  13.474  0.00  0.00    +0.157 HD
ATOM     14  C   LIG    1      -23.578  88.620  11.627  0.00  0.00    +0.251 C 
ATOM     15  O   LIG    1      -23.897  87.709  10.901  0.00  0.00    -0.270 OA
BRANCH  14  16
ATOM     16  C   LIG    1      -23.896  90.046  11.329  0.00  0.00    +0.056 A 
ATOM     17  C   LIG    1      -23.082  90.814  10.489  0.00  0.00    +0.053 A 
ATOM     18 CL   LIG    1      -21.756  90.180   9.585  0.00  0.00    -0.083 Cl
ATOM     19  C   LIG    1      -23.370  92.169  10.299  0.00  0.00    +0.021 A 
ATOM     20  C   LIG    1      -24.486  92.749  10.907  0.00  0.00    +0.011 A 
ATOM     21  C   LIG    1      -25.348  92.002  11.723  0.00  0.00    +0.004 A 
ATOM     22  C   LIG    1      -25.010  90.650  11.944  0.00  0.00    +0.024 A 
BRANCH  21  23
ATOM     23  C   LIG    1      -26.578  92.579  12.311  0.00  0.00    +0.106 A 
ATOM     24  C   LIG    1      -26.937  92.441  13.656  0.00  0.00    +0.149 A 
ATOM     25  F   LIG    1      -26.189  91.736  14.516  0.00  0.00    -0.203 F 
ATOM     26  C   LIG    1      -28.105  93.028  14.125  0.00  0.00    +0.042 A 
ATOM     27  C   LIG    1      -28.898  93.755  13.247  0.00  0.00    +0.023 A 
ATOM     28  C   LIG    1      -28.482  93.863  11.929  0.00  0.00    +0.111 A 
ATOM     29  N   LIG    1      -27.356  93.288  11.439  0.00  0.00    -0.252 NA
ENDBRANCH  21  23
ENDBRANCH  14  16
ENDBRANCH   4  12
BRANCH   1  31
ATOM     30  N   LIG    1      -22.631  82.904  14.890  0.00  0.00    -0.243 NA
ATOM     31  C   LIG    1      -22.479  84.092  15.353  0.00  0.00    +0.236 C 
BRANCH  31  32
ATOM     32  O   LIG    1      -22.590  84.437  16.653  0.00  0.00    -0.491 OA
ATOM     33  H   LIG    1      -23.004  83.731  17.173  0.00  0.00    +0.294 HD
ENDBRANCH  31  32
BRANCH  30  34
ATOM     34  C   LIG    1      -22.816  81.780  15.810  0.00  0.00    +0.200 C 
BRANCH  34  37
ATOM     35  C   LIG    1      -19.439  80.326  16.086  0.00  0.00    +0.116 A 
ATOM     36  N   LIG    1      -20.453  81.212  16.150  0.00  0.00    -0.235 NA
ATOM     37  C   LIG    1      -21.686  80.776  15.775  0.00  0.00    +0.065 A 
ATOM     38  C   LIG    1      -21.932  79.465  15.369  0.00  0.00    +0.025 A 
ATOM     39  C   LIG    1      -20.869  78.572  15.310  0.00  0.00    +0.005 A 
ATOM     40  C   LIG    1      -19.601  79.012  15.666  0.00  0.00    +0.043 A 
BRANCH  35  41
ATOM     41  N   LIG    1      -18.171  80.798  16.413  0.00  0.00    -0.343 N 
ATOM     42  H   LIG    1      -18.113  80.863  17.424  0.00  0.00    +0.144 HD
ATOM     43  H   LIG    1      -17.439  80.216  16.023  0.00  0.00    +0.144 HD
ENDBRANCH  35  41
ENDBRANCH  34  37
ENDBRANCH  30  34
ENDBRANCH   1  31
TORSDOF 9
ENDMDL
MODEL 7
REMARK VINA RESULT:      -7.0      2.433      3.758
REMARK  Name = pdb/CHEMBL3948987.pdb
REMARK                            x       y       z     vdW  Elec       q    Type
REMARK                         _______ _______ _______ _____ _____    ______ ____
ROOT
ATOM      1  C   LIG    1      -26.973  75.662  31.978  0.00  0.00    +0.149 A 
ATOM      2  N   LIG    1      -25.795  75.247  31.478  0.00  0.00    -0.160 NA
ATOM      3  N   LIG    1      -24.941  76.283  31.669  0.00  0.00    -0.218 N 
ATOM      4  C   LIG    1      -25.502  77.267  32.489  0.00  0.00    +0.129 A 
ATOM      5  C   LIG    1      -26.833  76.936  32.590  0.00  0.00    +0.078 A 
ENDROOT
BRANCH   3   6
ATOM      6  C   LIG    1      -23.628  76.249  31.117  0.00  0.00    +0.067 A 
ATOM      7  C   LIG    1      -22.630  75.491  31.748  0.00  0.00    +0.028 A 
ATOM      8  C   LIG    1      -21.328  75.483  31.239  0.00  0.00    +0.002 A 
ATOM      9  C   LIG    1      -21.023  76.199  30.082  0.00  0.00    +0.000 A 
ATOM     10  C   LIG    1      -22.020  76.919  29.427  0.00  0.00    +0.002 A 
ATOM     11  C   LIG    1      -23.321  76.945  29.938  0.00  0.00    +0.028 A 
ENDBRANCH   3   6
BRANCH   4  12
ATOM     12  N   LIG    1      -24.820  78.309  33.139  0.00  0.00    -0.266 N 
ATOM     13  H   LIG    1      -24.819  79.208  32.678  0.00  0.00    +0.157 HD
ATOM     14  C   LIG    1      -24.012  78.129  34.324  0.00  0.00    +0.251 C 
ATOM     15  O   LIG    1      -23.893  77.041  34.833  0.00  0.00    -0.270 OA
BRANCH  14  16
ATOM     16  C   LIG    1      -23.379  79.359  34.880  0.00  0.00    +0.056 A 
ATOM     17  C   LIG    1      -22.034  79.661  34.635  0.00  0.00    +0.053 A 
ATOM     18 CL   LIG    1      -21.026  78.771  33.554  0.00  0.00    -0.083 Cl
ATOM     19  C   LIG    1      -21.457  80.781  35.242  0.00  0.00    +0.021 A 
ATOM     20  C   LIG    1      -22.222  81.623  36.051  0.00  0.00    +0.011 A 
ATOM     21  C   LIG    1      -23.583  81.377  36.287  0.00  0.00    +0.004 A 
ATOM     22  C   LIG    1      -24.133  80.212  35.709  0.00  0.00    +0.024 A 
BRANCH  21  23
ATOM     23  C   LIG    1      -24.429  82.300  37.077  0.00  0.00    +0.106 A 
ATOM     24  C   LIG    1      -24.064  82.813  38.326  0.00  0.00    +0.149 A 
ATOM     25  F   LIG    1      -22.911  82.473  38.918  0.00  0.00    -0.203 F 
ATOM     26  C   LIG    1      -24.916  83.685  38.992  0.00  0.00    +0.042 A 
ATOM     27  C   LIG    1      -26.119  84.042  38.398  0.00  0.00    +0.023 A 
ATOM     28  C   LIG    1      -26.418  83.508  37.155  0.00  0.00    +0.111 A 
ATOM     29  N   LIG    1      -25.614  82.642  36.488  0.00  0.00    -0.252 NA
ENDBRANCH  21  23
ENDBRANCH  14  16
ENDBRANCH   4  12
BRANCH   1  31
ATOM     30  N   LIG    1      -29.304  75.389  31.573  0.00  0.00    -0.243 NA
ATOM     31  C   LIG    1      -28.196  74.852  31.938  0.00  0.00    +0.236 C 
BRANCH  31  32
ATOM     32  O   LIG    1      -28.053  73.572  32.344  0.00  0.00    -0.491 OA
ATOM     33  H   LIG    1      -27.268  73.161  31.949  0.00  0.00    +0.294 HD
ENDBRANCH  31  32
BRANCH  30  34
ATOM     34  C   LIG    1      -30.509  74.567  31.448  0.00  0.00    +0.200 C 
BRANCH  34  37
ATOM     35  C   LIG    1      -32.145  76.658  28.891  0.00  0.00    +0.116 A 
ATOM     36  N   LIG    1      -31.314  76.274  29.880  0.00  0.00    -0.235 NA
ATOM     37  C   LIG    1      -31.415  74.988  30.314  0.00  0.00    +0.065 A 
ATOM     38  C   LIG    1      -32.306  74.071  29.757  0.00  0.00    +0.025 A 
ATOM     39  C   LIG    1      -33.153  74.494  28.741  0.00  0.00    +0.005 A 
ATOM     40  C   LIG    1      -33.078  75.811  28.306  0.00  0.00    +0.043 A 
BRANCH  35  41
ATOM     41  N   LIG    1      -32.077  77.992  28.496  0.00  0.00    -0.343 N 
ATOM     42  H   LIG    1      -31.213  78.382  28.859  0.00  0.00    +0.144 HD
ATOM     43  H   LIG    1      -32.150  78.092  27.490  0.00  0.00    +0.144 HD
ENDBRANCH  35  41
ENDBRANCH  34  37
ENDBRANCH  30  34
ENDBRANCH   1  31
TORSDOF 9
ENDMDL
MODEL 8
REMARK VINA RESULT:      -6.9     16.353     19.470
REMARK  Name = pdb/CHEMBL3948987.pdb
REMARK                            x       y       z     vdW  Elec       q    Type
REMARK                         _______ _______ _______ _____ _____    ______ ____
ROOT
ATOM      1  C   LIG    1      -23.226  81.677  15.350  0.00  0.00    +0.149 A 
ATOM      2  N   LIG    1      -24.356  81.516  14.635  0.00  0.00    -0.160 NA
ATOM      3  N   LIG    1      -24.449  80.181  14.412  0.00  0.00    -0.218 N 
ATOM      4  C   LIG    1      -23.514  79.467  15.168  0.00  0.00    +0.129 A 
ATOM      5  C   LIG    1      -22.657  80.417  15.672  0.00  0.00    +0.078 A 
ENDROOT
BRANCH   3   6
ATOM      6  C   LIG    1      -25.454  79.661  13.547  0.00  0.00    +0.067 A 
ATOM      7  C   LIG    1      -25.547  80.136  12.229  0.00  0.00    +0.028 A 
ATOM      8  C   LIG    1      -26.556  79.664  11.384  0.00  0.00    +0.002 A 
ATOM      9  C   LIG    1      -27.450  78.694  11.832  0.00  0.00    +0.000 A 
ATOM     10  C   LIG    1      -27.336  78.188  13.126  0.00  0.00    +0.002 A 
ATOM     11  C   LIG    1      -26.340  78.666  13.983  0.00  0.00    +0.028 A 
ENDBRANCH   3   6
BRANCH   4  12
ATOM     12  N   LIG    1      -23.519  78.086  15.424  0.00  0.00    -0.266 N 
ATOM     13  H   LIG    1      -23.887  77.791  16.318  0.00  0.00    +0.157 HD
ATOM     14  C   LIG    1      -22.900  77.103  14.563  0.00  0.00    +0.251 C 
ATOM     15  O   LIG    1      -22.344  77.435  13.544  0.00  0.00    -0.270 OA
BRANCH  14  16
ATOM     16  C   LIG    1      -23.024  75.681  14.995  0.00  0.00    +0.056 A 
ATOM     17  C   LIG    1      -24.005  74.839  14.458  0.00  0.00    +0.053 A 
ATOM     18 CL   LIG    1      -25.040  75.275  13.149  0.00  0.00    -0.083 Cl
ATOM     19  C   LIG    1      -24.140  73.536  14.948  0.00  0.00    +0.021 A 
ATOM     20  C   LIG    1      -23.277  73.057  15.937  0.00  0.00    +0.011 A 
ATOM     21  C   LIG    1      -22.256  73.857  16.470  0.00  0.00    +0.004 A 
ATOM     22  C   LIG    1      -22.171  75.186  16.000  0.00  0.00    +0.024 A 
BRANCH  21  23
ATOM     23  C   LIG    1      -21.283  73.342  17.460  0.00  0.00    +0.106 A 
ATOM     24  C   LIG    1      -19.937  73.718  17.496  0.00  0.00    +0.149 A 
ATOM     25  F   LIG    1      -19.418  74.568  16.599  0.00  0.00    -0.203 F 
ATOM     26  C   LIG    1      -19.097  73.193  18.470  0.00  0.00    +0.042 A 
ATOM     27  C   LIG    1      -19.614  72.305  19.403  0.00  0.00    +0.023 A 
ATOM     28  C   LIG    1      -20.959  71.980  19.320  0.00  0.00    +0.111 A 
ATOM     29  N   LIG    1      -21.799  72.464  18.371  0.00  0.00    -0.252 NA
ENDBRANCH  21  23
ENDBRANCH  14  16
ENDBRANCH   4  12
BRANCH   1  31
ATOM     30  N   LIG    1      -22.784  83.986  14.969  0.00  0.00    -0.243 NA
ATOM     31  C   LIG    1      -22.722  82.988  15.775  0.00  0.00    +0.236 C 
BRANCH  31  32
ATOM     32  O   LIG    1      -22.178  83.023  17.010  0.00  0.00    -0.491 OA
ATOM     33  H   LIG    1      -21.991  82.130  17.340  0.00  0.00    +0.294 HD
ENDBRANCH  31  32
BRANCH  30  34
ATOM     34  C   LIG    1      -22.362  85.315  15.417  0.00  0.00    +0.200 C 
BRANCH  34  37
ATOM     35  C   LIG    1      -21.529  88.345  13.490  0.00  0.00    +0.116 A 
ATOM     36  N   LIG    1      -21.505  87.402  14.452  0.00  0.00    -0.235 NA
ATOM     37  C   LIG    1      -22.362  86.354  14.318  0.00  0.00    +0.065 A 
ATOM     38  C   LIG    1      -23.217  86.212  13.226  0.00  0.00    +0.025 A 
ATOM     39  C   LIG    1      -23.224  87.200  12.249  0.00  0.00    +0.005 A 
ATOM     40  C   LIG    1      -22.372  88.288  12.387  0.00  0.00    +0.043 A 
BRANCH  35  41
ATOM     41  N   LIG    1      -20.693  89.445  13.666  0.00  0.00    -0.343 N 
ATOM     42  H   LIG    1      -20.549  89.571  14.663  0.00  0.00    +0.144 HD
ATOM     43  H   LIG    1      -19.820  89.339  13.163  0.00  0.00    +0.144 HD
ENDBRANCH  35  41
ENDBRANCH  34  37
ENDBRANCH  30  34
ENDBRANCH   1  31
TORSDOF 9
ENDMDL
MODEL 9
REMARK VINA RESULT:      -6.9     17.010     19.524
REMARK  Name = pdb/CHEMBL3948987.pdb
REMARK                            x       y       z     vdW  Elec       q    Type
REMARK                         _______ _______ _______ _____ _____    ______ ____
ROOT
ATOM      1  C   LIG    1      -26.122  77.639  14.095  0.00  0.00    +0.149 A 
ATOM      2  N   LIG    1      -25.077  77.776  14.933  0.00  0.00    -0.160 NA
ATOM      3  N   LIG    1      -24.498  78.954  14.592  0.00  0.00    -0.218 N 
ATOM      4  C   LIG    1      -25.294  79.678  13.699  0.00  0.00    +0.129 A 
ATOM      5  C   LIG    1      -26.267  78.798  13.287  0.00  0.00    +0.078 A 
ENDROOT
BRANCH   3   6
ATOM      6  C   LIG    1      -23.261  79.348  15.178  0.00  0.00    +0.067 A 
ATOM      7  C   LIG    1      -22.072  78.722  14.773  0.00  0.00    +0.028 A 
ATOM      8  C   LIG    1      -20.857  79.071  15.371  0.00  0.00    +0.002 A 
ATOM      9  C   LIG    1      -20.816  80.067  16.345  0.00  0.00    +0.000 A 
ATOM     10  C   LIG    1      -21.987  80.722  16.720  0.00  0.00    +0.002 A 
ATOM     11  C   LIG    1      -23.209  80.368  16.139  0.00  0.00    +0.028 A 
ENDBRANCH   3   6
BRANCH   4  12
ATOM     12  N   LIG    1      -25.170  81.039  13.375  0.00  0.00    -0.266 N 
ATOM     13  H   LIG    1      -25.829  81.671  13.808  0.00  0.00    +0.157 HD
ATOM     14  C   LIG    1      -24.272  81.550  12.364  0.00  0.00    +0.251 C 
ATOM     15  O   LIG    1      -23.554  80.805  11.740  0.00  0.00    -0.270 OA
BRANCH  14  16
ATOM     16  C   LIG    1      -24.268  83.029  12.174  0.00  0.00    +0.056 A 
ATOM     17  C   LIG    1      -25.213  83.661  11.358  0.00  0.00    +0.053 A 
ATOM     18 CL   LIG    1      -26.558  82.857  10.636  0.00  0.00    -0.083 Cl
ATOM     19  C   LIG    1      -25.126  85.040  11.142  0.00  0.00    +0.021 A 
ATOM     20  C   LIG    1      -24.132  85.795  11.769  0.00  0.00    +0.011 A 
ATOM     21  C   LIG    1      -23.193  85.204  12.626  0.00  0.00    +0.004 A 
ATOM     22  C   LIG    1      -23.265  83.804  12.788  0.00  0.00    +0.024 A 
BRANCH  21  23
ATOM     23  C   LIG    1      -22.182  85.999  13.361  0.00  0.00    +0.106 A 
ATOM     24  C   LIG    1      -20.871  86.193  12.914  0.00  0.00    +0.149 A 
ATOM     25  F   LIG    1      -20.422  85.638  11.781  0.00  0.00    -0.203 F 
ATOM     26  C   LIG    1      -19.992  86.966  13.663  0.00  0.00    +0.042 A 
ATOM     27  C   LIG    1      -20.436  87.543  14.845  0.00  0.00    +0.023 A 
ATOM     28  C   LIG    1      -21.750  87.320  15.228  0.00  0.00    +0.111 A 
ATOM     29  N   LIG    1      -22.625  86.558  14.526  0.00  0.00    -0.252 NA
ENDBRANCH  21  23
ENDBRANCH  14  16
ENDBRANCH   4  12
BRANCH   1  31
ATOM     30  N   LIG    1      -26.500  75.287  14.095  0.00  0.00    -0.243 NA
ATOM     31  C   LIG    1      -27.006  76.468  14.094  0.00  0.00    +0.236 C 
BRANCH  31  32
ATOM     32  O   LIG    1      -28.327  76.744  14.048  0.00  0.00    -0.491 OA
ATOM     33  H   LIG    1      -28.638  76.839  13.134  0.00  0.00    +0.294 HD
ENDBRANCH  31  32
BRANCH  30  34
ATOM     34  C   LIG    1      -27.375  74.116  14.181  0.00  0.00    +0.200 C 
BRANCH  34  37
ATOM     35  C   LIG    1      -25.165  72.173  16.401  0.00  0.00    +0.116 A 
ATOM     36  N   LIG    1      -25.594  73.120  15.542  0.00  0.00    -0.235 NA
ATOM     37  C   LIG    1      -26.903  73.079  15.174  0.00  0.00    +0.065 A 
ATOM     38  C   LIG    1      -27.799  72.133  15.672  0.00  0.00    +0.025 A 
ATOM     39  C   LIG    1      -27.331  71.168  16.554  0.00  0.00    +0.005 A 
ATOM     40  C   LIG    1      -25.990  71.182  16.918  0.00  0.00    +0.043 A 
BRANCH  35  41
ATOM     41  N   LIG    1      -23.811  72.185  16.724  0.00  0.00    -0.343 N 
ATOM     42  H   LIG    1      -23.731  72.258  17.733  0.00  0.00    +0.144 HD
ATOM     43  H   LIG    1      -23.328  71.373  16.358  0.00  0.00    +0.144 HD
ENDBRANCH  35  41
ENDBRANCH  34  37
ENDBRANCH  30  34
ENDBRANCH   1  31
TORSDOF 9
ENDMDL
