MODEL 1
REMARK VINA RESULT:      -6.6      0.000      0.000
REMARK  Name = pdb/CHEMBL3956444.pdb
REMARK                            x       y       z     vdW  Elec       q    Type
REMARK                         _______ _______ _______ _____ _____    ______ ____
ROOT
ATOM      1  C   LIG    1      -26.527  76.308  31.899  0.00  0.00    +0.131 C 
ATOM      2  N   LIG    1      -25.490  76.040  31.087  0.00  0.00    -0.141 NA
ATOM      3  N   LIG    1      -24.441  76.720  31.621  0.00  0.00    -0.201 N 
ATOM      4  C   LIG    1      -24.861  77.626  32.598  0.00  0.00    +0.185 C 
ATOM      5  C   LIG    1      -26.172  77.291  32.851  0.00  0.00    +0.056 C 
ENDROOT
BRANCH   3   6
ATOM      6  C   LIG    1      -23.123  76.480  31.152  0.00  0.00    +0.052 A 
ATOM      7  C   LIG    1      -22.207  75.805  31.973  0.00  0.00    +0.025 A 
ATOM      8  C   LIG    1      -20.901  75.580  31.526  0.00  0.00    +0.002 A 
ATOM      9  C   LIG    1      -20.498  76.050  30.280  0.00  0.00    +0.000 A 
ATOM     10  C   LIG    1      -21.398  76.743  29.469  0.00  0.00    +0.002 A 
ATOM     11  C   LIG    1      -22.707  76.959  29.903  0.00  0.00    +0.025 A 
ENDBRANCH   3   6
BRANCH   4  12
ATOM     12  N   LIG    1      -24.135  78.694  33.154  0.00  0.00    -0.282 N 
ATOM     13  H   LIG    1      -24.256  79.610  32.743  0.00  0.00    +0.152 HD
ATOM     14  C   LIG    1      -23.337  78.557  34.343  0.00  0.00    +0.247 C 
ATOM     15  O   LIG    1      -23.256  77.494  34.928  0.00  0.00    -0.270 OA
BRANCH  14  16
ATOM     16  C   LIG    1      -22.678  79.756  34.913  0.00  0.00    +0.056 A 
ATOM     17  C   LIG    1      -21.306  79.958  34.958  0.00  0.00    +0.054 A 
ATOM     18 CL   LIG    1      -20.161  78.816  34.359  0.00  0.00    -0.083 Cl
ATOM     19  C   LIG    1      -20.799  81.102  35.574  0.00  0.00    +0.041 A 
ATOM     20  C   LIG    1      -21.646  82.030  36.200  0.00  0.00    +0.052 A 
ATOM     21 CL   LIG    1      -20.846  83.350  36.983  0.00  0.00    -0.083 Cl
ATOM     22  C   LIG    1      -23.039  81.833  36.228  0.00  0.00    +0.019 A 
ATOM     23  C   LIG    1      -23.525  80.698  35.536  0.00  0.00    +0.026 A 
BRANCH  22  24
ATOM     24  C   LIG    1      -24.002  82.619  37.036  0.00  0.00    +0.072 A 
ATOM     25  N   LIG    1      -25.076  83.058  36.326  0.00  0.00    -0.255 NA
ATOM     26  C   LIG    1      -26.075  83.683  36.989  0.00  0.00    +0.111 A 
ATOM     27  C   LIG    1      -26.069  83.902  38.351  0.00  0.00    +0.020 A 
ATOM     28  C   LIG    1      -24.951  83.494  39.067  0.00  0.00    +0.004 A 
ATOM     29  C   LIG    1      -23.896  82.868  38.402  0.00  0.00    +0.028 A 
ENDBRANCH  22  24
ENDBRANCH  14  16
ENDBRANCH   4  12
BRANCH   1  30
ATOM     30  C   LIG    1      -27.846  75.684  31.772  0.00  0.00    +0.233 C 
ATOM     31  N   LIG    1      -28.004  74.476  32.177  0.00  0.00    -0.243 NA
BRANCH  30  32
ATOM     32  O   LIG    1      -28.812  76.467  31.247  0.00  0.00    -0.491 OA
ATOM     33  H   LIG    1      -28.813  76.445  30.278  0.00  0.00    +0.294 HD
ENDBRANCH  30  32
BRANCH  31  34
ATOM     34  C   LIG    1      -29.314  73.837  32.140  0.00  0.00    +0.204 C 
BRANCH  34  35
ATOM     35  C   LIG    1      -29.278  72.571  31.363  0.00  0.00    +0.101 A 
ATOM     36  N   LIG    1      -28.104  71.860  31.210  0.00  0.00    -0.219 NA
ATOM     37  C   LIG    1      -28.461  70.844  30.451  0.00  0.00    +0.307 A 
ATOM     38  O   LIG    1      -29.775  70.820  30.097  0.00  0.00    -0.450 OA
ATOM     39  C   LIG    1      -30.293  71.931  30.690  0.00  0.00    +0.222 A 
ENDBRANCH  34  35
ENDBRANCH  31  34
ENDBRANCH   1  30
TORSDOF 8
ENDMDL
MODEL 2
REMARK VINA RESULT:      -6.5      4.710      9.899
REMARK  Name = pdb/CHEMBL3956444.pdb
REMARK                            x       y       z     vdW  Elec       q    Type
REMARK                         _______ _______ _______ _____ _____    ______ ____
ROOT
ATOM      1  C   LIG    1      -24.198  82.942  37.145  0.00  0.00    +0.131 C 
ATOM      2  N   LIG    1      -23.271  83.040  38.114  0.00  0.00    -0.141 NA
ATOM      3  N   LIG    1      -22.122  82.587  37.548  0.00  0.00    -0.201 N 
ATOM      4  C   LIG    1      -22.367  81.952  36.328  0.00  0.00    +0.185 C 
ATOM      5  C   LIG    1      -23.671  82.269  36.019  0.00  0.00    +0.056 C 
ENDROOT
BRANCH   3   6
ATOM      6  C   LIG    1      -20.880  82.767  38.212  0.00  0.00    +0.052 A 
ATOM      7  C   LIG    1      -20.387  81.751  39.044  0.00  0.00    +0.025 A 
ATOM      8  C   LIG    1      -19.173  81.926  39.717  0.00  0.00    +0.002 A 
ATOM      9  C   LIG    1      -18.467  83.118  39.585  0.00  0.00    +0.000 A 
ATOM     10  C   LIG    1      -18.965  84.141  38.778  0.00  0.00    +0.002 A 
ATOM     11  C   LIG    1      -20.169  83.968  38.094  0.00  0.00    +0.025 A 
ENDBRANCH   3   6
BRANCH   4  12
ATOM     12  N   LIG    1      -21.502  81.113  35.602  0.00  0.00    -0.282 N 
ATOM     13  H   LIG    1      -20.912  81.540  34.900  0.00  0.00    +0.152 HD
ATOM     14  C   LIG    1      -21.339  79.716  35.901  0.00  0.00    +0.247 C 
ATOM     15  O   LIG    1      -21.952  79.191  36.811  0.00  0.00    -0.270 OA
BRANCH  14  16
ATOM     16  C   LIG    1      -20.338  78.926  35.145  0.00  0.00    +0.056 A 
ATOM     17  C   LIG    1      -18.982  78.886  35.433  0.00  0.00    +0.054 A 
ATOM     18 CL   LIG    1      -18.261  79.774  36.724  0.00  0.00    -0.083 Cl
ATOM     19  C   LIG    1      -18.126  78.152  34.611  0.00  0.00    +0.041 A 
ATOM     20  C   LIG    1      -18.600  77.495  33.465  0.00  0.00    +0.052 A 
ATOM     21 CL   LIG    1      -17.391  76.697  32.517  0.00  0.00    -0.083 Cl
ATOM     22  C   LIG    1      -19.959  77.560  33.105  0.00  0.00    +0.019 A 
ATOM     23  C   LIG    1      -20.810  78.257  33.996  0.00  0.00    +0.026 A 
BRANCH  22  24
ATOM     24  C   LIG    1      -20.529  77.097  31.817  0.00  0.00    +0.072 A 
ATOM     25  N   LIG    1      -21.629  76.310  31.962  0.00  0.00    -0.255 NA
ATOM     26  C   LIG    1      -22.300  75.930  30.852  0.00  0.00    +0.111 A 
ATOM     27  C   LIG    1      -21.933  76.297  29.573  0.00  0.00    +0.020 A 
ATOM     28  C   LIG    1      -20.785  77.062  29.425  0.00  0.00    +0.004 A 
ATOM     29  C   LIG    1      -20.061  77.447  30.554  0.00  0.00    +0.028 A 
ENDBRANCH  22  24
ENDBRANCH  14  16
ENDBRANCH   4  12
BRANCH   1  30
ATOM     30  C   LIG    1      -25.571  83.434  37.275  0.00  0.00    +0.233 C 
ATOM     31  N   LIG    1      -26.127  83.999  36.265  0.00  0.00    -0.243 NA
BRANCH  30  32
ATOM     32  O   LIG    1      -26.155  83.223  38.473  0.00  0.00    -0.491 OA
ATOM     33  H   LIG    1      -26.929  82.644  38.405  0.00  0.00    +0.294 HD
ENDBRANCH  30  32
BRANCH  31  34
ATOM     34  C   LIG    1      -27.515  84.440  36.321  0.00  0.00    +0.204 C 
BRANCH  34  35
ATOM     35  C   LIG    1      -27.730  85.662  35.503  0.00  0.00    +0.101 A 
ATOM     36  N   LIG    1      -26.765  86.645  35.422  0.00  0.00    -0.219 NA
ATOM     37  C   LIG    1      -27.325  87.557  34.653  0.00  0.00    +0.307 A 
ATOM     38  O   LIG    1      -28.575  87.253  34.212  0.00  0.00    -0.450 OA
ATOM     39  C   LIG    1      -28.827  86.031  34.759  0.00  0.00    +0.222 A 
ENDBRANCH  34  35
ENDBRANCH  31  34
ENDBRANCH   1  30
TORSDOF 8
ENDMDL
MODEL 3
REMARK VINA RESULT:      -6.4      9.087     14.427
REMARK  Name = pdb/CHEMBL3956444.pdb
REMARK                            x       y       z     vdW  Elec       q    Type
REMARK                         _______ _______ _______ _____ _____    ______ ____
ROOT
ATOM      1  C   LIG    1      -31.570  74.262  29.721  0.00  0.00    +0.131 C 
ATOM      2  N   LIG    1      -31.446  75.536  29.312  0.00  0.00    -0.141 NA
ATOM      3  N   LIG    1      -32.617  75.820  28.684  0.00  0.00    -0.201 N 
ATOM      4  C   LIG    1      -33.368  74.664  28.453  0.00  0.00    +0.185 C 
ATOM      5  C   LIG    1      -32.754  73.688  29.205  0.00  0.00    +0.056 C 
ENDROOT
BRANCH   3   6
ATOM      6  C   LIG    1      -32.930  77.158  28.327  0.00  0.00    +0.052 A 
ATOM      7  C   LIG    1      -33.943  77.840  29.017  0.00  0.00    +0.025 A 
ATOM      8  C   LIG    1      -34.269  79.153  28.660  0.00  0.00    +0.002 A 
ATOM      9  C   LIG    1      -33.611  79.774  27.603  0.00  0.00    +0.000 A 
ATOM     10  C   LIG    1      -32.620  79.091  26.897  0.00  0.00    +0.002 A 
ATOM     11  C   LIG    1      -32.280  77.786  27.257  0.00  0.00    +0.025 A 
ENDBRANCH   3   6
BRANCH   4  12
ATOM     12  N   LIG    1      -34.467  74.507  27.590  0.00  0.00    -0.282 N 
ATOM     13  H   LIG    1      -34.280  74.214  26.640  0.00  0.00    +0.152 HD
ATOM     14  C   LIG    1      -35.830  74.623  28.034  0.00  0.00    +0.247 C 
ATOM     15  O   LIG    1      -36.094  74.866  29.196  0.00  0.00    -0.270 OA
BRANCH  14  16
ATOM     16  C   LIG    1      -36.928  74.351  27.077  0.00  0.00    +0.056 A 
ATOM     17  C   LIG    1      -37.202  73.111  26.519  0.00  0.00    +0.054 A 
ATOM     18 CL   LIG    1      -36.277  71.695  26.859  0.00  0.00    -0.083 Cl
ATOM     19  C   LIG    1      -38.227  72.989  25.581  0.00  0.00    +0.041 A 
ATOM     20  C   LIG    1      -38.956  74.109  25.149  0.00  0.00    +0.052 A 
ATOM     21 CL   LIG    1      -40.138  73.791  23.925  0.00  0.00    -0.083 Cl
ATOM     22  C   LIG    1      -38.671  75.394  25.646  0.00  0.00    +0.019 A 
ATOM     23  C   LIG    1      -37.670  75.471  26.644  0.00  0.00    +0.026 A 
BRANCH  22  24
ATOM     24  C   LIG    1      -39.217  76.663  25.109  0.00  0.00    +0.072 A 
ATOM     25  N   LIG    1      -40.187  77.210  25.890  0.00  0.00    -0.255 NA
ATOM     26  C   LIG    1      -40.671  78.428  25.558  0.00  0.00    +0.111 A 
ATOM     27  C   LIG    1      -40.235  79.153  24.467  0.00  0.00    +0.020 A 
ATOM     28  C   LIG    1      -39.278  78.572  23.646  0.00  0.00    +0.004 A 
ATOM     29  C   LIG    1      -38.780  77.306  23.954  0.00  0.00    +0.028 A 
ENDBRANCH  22  24
ENDBRANCH  14  16
ENDBRANCH   4  12
BRANCH   1  30
ATOM     30  C   LIG    1      -30.583  73.571  30.554  0.00  0.00    +0.233 C 
ATOM     31  N   LIG    1      -30.219  74.109  31.661  0.00  0.00    -0.243 NA
BRANCH  30  32
ATOM     32  O   LIG    1      -30.150  72.384  30.080  0.00  0.00    -0.491 OA
ATOM     33  H   LIG    1      -29.656  72.481  29.252  0.00  0.00    +0.294 HD
ENDBRANCH  30  32
BRANCH  31  34
ATOM     34  C   LIG    1      -29.295  73.426  32.559  0.00  0.00    +0.204 C 
BRANCH  34  35
ATOM     35  C   LIG    1      -27.884  73.614  32.132  0.00  0.00    +0.101 A 
ATOM     36  N   LIG    1      -27.177  72.590  31.534  0.00  0.00    -0.219 NA
ATOM     37  C   LIG    1      -25.986  73.118  31.339  0.00  0.00    +0.307 A 
ATOM     38  O   LIG    1      -25.850  74.408  31.748  0.00  0.00    -0.450 OA
ATOM     39  C   LIG    1      -27.076  74.721  32.253  0.00  0.00    +0.222 A 
ENDBRANCH  34  35
ENDBRANCH  31  34
ENDBRANCH   1  30
TORSDOF 8
ENDMDL
MODEL 4
REMARK VINA RESULT:      -6.4     14.721     20.536
REMARK  Name = pdb/CHEMBL3956444.pdb
REMARK                            x       y       z     vdW  Elec       q    Type
REMARK                         _______ _______ _______ _____ _____    ______ ____
ROOT
ATOM      1  C   LIG    1      -37.497  75.782  25.926  0.00  0.00    +0.131 C 
ATOM      2  N   LIG    1      -38.070  74.572  25.808  0.00  0.00    -0.141 NA
ATOM      3  N   LIG    1      -39.000  74.717  24.828  0.00  0.00    -0.201 N 
ATOM      4  C   LIG    1      -39.211  76.063  24.516  0.00  0.00    +0.185 C 
ATOM      5  C   LIG    1      -38.181  76.735  25.136  0.00  0.00    +0.056 C 
ENDROOT
BRANCH   3   6
ATOM      6  C   LIG    1      -39.639  73.576  24.276  0.00  0.00    +0.052 A 
ATOM      7  C   LIG    1      -40.900  73.711  23.675  0.00  0.00    +0.025 A 
ATOM      8  C   LIG    1      -41.545  72.589  23.145  0.00  0.00    +0.002 A 
ATOM      9  C   LIG    1      -40.952  71.333  23.237  0.00  0.00    +0.000 A 
ATOM     10  C   LIG    1      -39.710  71.189  23.856  0.00  0.00    +0.002 A 
ATOM     11  C   LIG    1      -39.055  72.307  24.376  0.00  0.00    +0.025 A 
ENDBRANCH   3   6
BRANCH   4  12
ATOM     12  N   LIG    1      -40.275  76.624  23.789  0.00  0.00    -0.282 N 
ATOM     13  H   LIG    1      -40.186  76.668  22.783  0.00  0.00    +0.152 HD
ATOM     14  C   LIG    1      -41.516  77.017  24.402  0.00  0.00    +0.247 C 
ATOM     15  O   LIG    1      -41.701  76.876  25.596  0.00  0.00    -0.270 OA
BRANCH  14  16
ATOM     16  C   LIG    1      -42.619  77.515  23.547  0.00  0.00    +0.056 A 
ATOM     17  C   LIG    1      -43.133  78.803  23.590  0.00  0.00    +0.054 A 
ATOM     18 CL   LIG    1      -42.558  80.016  24.673  0.00  0.00    -0.083 Cl
ATOM     19  C   LIG    1      -44.215  79.140  22.776  0.00  0.00    +0.041 A 
ATOM     20  C   LIG    1      -44.831  78.186  21.950  0.00  0.00    +0.052 A 
ATOM     21 CL   LIG    1      -46.207  78.753  21.066  0.00  0.00    -0.083 Cl
ATOM     22  C   LIG    1      -44.377  76.854  21.920  0.00  0.00    +0.019 A 
ATOM     23  C   LIG    1      -43.238  76.563  22.708  0.00  0.00    +0.026 A 
BRANCH  22  24
ATOM     24  C   LIG    1      -45.076  75.723  21.264  0.00  0.00    +0.072 A 
ATOM     25  N   LIG    1      -44.716  75.544  19.965  0.00  0.00    -0.255 NA
ATOM     26  C   LIG    1      -45.202  74.469  19.304  0.00  0.00    +0.111 A 
ATOM     27  C   LIG    1      -46.045  73.537  19.875  0.00  0.00    +0.020 A 
ATOM     28  C   LIG    1      -46.447  73.748  21.187  0.00  0.00    +0.004 A 
ATOM     29  C   LIG    1      -45.979  74.863  21.883  0.00  0.00    +0.028 A 
ENDBRANCH  22  24
ENDBRANCH  14  16
ENDBRANCH   4  12
BRANCH   1  30
ATOM     30  C   LIG    1      -36.347  76.062  26.789  0.00  0.00    +0.233 C 
ATOM     31  N   LIG    1      -36.097  77.278  27.115  0.00  0.00    -0.243 NA
BRANCH  30  32
ATOM     32  O   LIG    1      -35.648  74.981  27.196  0.00  0.00    -0.491 OA
ATOM     33  H   LIG    1      -36.022  74.156  26.852  0.00  0.00    +0.294 HD
ENDBRANCH  30  32
BRANCH  31  34
ATOM     34  C   LIG    1      -35.009  77.600  28.030  0.00  0.00    +0.204 C 
BRANCH  34  35
ATOM     35  C   LIG    1      -33.748  77.883  27.296  0.00  0.00    +0.101 A 
ATOM     36  N   LIG    1      -33.372  79.177  26.995  0.00  0.00    -0.219 NA
ATOM     37  C   LIG    1      -32.247  79.019  26.328  0.00  0.00    +0.307 A 
ATOM     38  O   LIG    1      -31.843  77.729  26.173  0.00  0.00    -0.450 OA
ATOM     39  C   LIG    1      -32.811  77.005  26.801  0.00  0.00    +0.222 A 
ENDBRANCH  34  35
ENDBRANCH  31  34
ENDBRANCH   1  30
TORSDOF 8
ENDMDL
MODEL 5
REMARK VINA RESULT:      -6.4      1.796      2.259
REMARK  Name = pdb/CHEMBL3956444.pdb
REMARK                            x       y       z     vdW  Elec       q    Type
REMARK                         _______ _______ _______ _____ _____    ______ ____
ROOT
ATOM      1  C   LIG    1      -26.849  76.033  32.149  0.00  0.00    +0.131 C 
ATOM      2  N   LIG    1      -25.875  75.875  31.236  0.00  0.00    -0.141 NA
ATOM      3  N   LIG    1      -24.832  76.610  31.704  0.00  0.00    -0.201 N 
ATOM      4  C   LIG    1      -25.223  77.445  32.753  0.00  0.00    +0.185 C 
ATOM      5  C   LIG    1      -26.478  77.003  33.108  0.00  0.00    +0.056 C 
ENDROOT
BRANCH   3   6
ATOM      6  C   LIG    1      -23.549  76.488  31.108  0.00  0.00    +0.052 A 
ATOM      7  C   LIG    1      -22.651  75.524  31.590  0.00  0.00    +0.025 A 
ATOM      8  C   LIG    1      -21.378  75.408  31.021  0.00  0.00    +0.002 A 
ATOM      9  C   LIG    1      -20.990  76.267  29.997  0.00  0.00    +0.000 A 
ATOM     10  C   LIG    1      -21.871  77.244  29.531  0.00  0.00    +0.002 A 
ATOM     11  C   LIG    1      -23.147  77.356  30.085  0.00  0.00    +0.025 A 
ENDBRANCH   3   6
BRANCH   4  12
ATOM     12  N   LIG    1      -24.526  78.543  33.289  0.00  0.00    -0.282 N 
ATOM     13  H   LIG    1      -24.849  79.470  33.044  0.00  0.00    +0.152 HD
ATOM     14  C   LIG    1      -23.470  78.399  34.254  0.00  0.00    +0.247 C 
ATOM     15  O   LIG    1      -23.129  77.303  34.656  0.00  0.00    -0.270 OA
BRANCH  14  16
ATOM     16  C   LIG    1      -22.851  79.614  34.836  0.00  0.00    +0.056 A 
ATOM     17  C   LIG    1      -21.489  79.876  34.853  0.00  0.00    +0.054 A 
ATOM     18 CL   LIG    1      -20.309  78.800  34.202  0.00  0.00    -0.083 Cl
ATOM     19  C   LIG    1      -21.018  81.028  35.483  0.00  0.00    +0.041 A 
ATOM     20  C   LIG    1      -21.891  81.904  36.148  0.00  0.00    +0.052 A 
ATOM     21 CL   LIG    1      -21.131  83.241  36.943  0.00  0.00    -0.083 Cl
ATOM     22  C   LIG    1      -23.273  81.644  36.205  0.00  0.00    +0.019 A 
ATOM     23  C   LIG    1      -23.724  80.503  35.499  0.00  0.00    +0.026 A 
BRANCH  22  24
ATOM     24  C   LIG    1      -24.250  82.368  37.052  0.00  0.00    +0.072 A 
ATOM     25  N   LIG    1      -25.125  83.130  36.342  0.00  0.00    -0.255 NA
ATOM     26  C   LIG    1      -26.133  83.740  37.004  0.00  0.00    +0.111 A 
ATOM     27  C   LIG    1      -26.328  83.633  38.366  0.00  0.00    +0.020 A 
ATOM     28  C   LIG    1      -25.408  82.893  39.095  0.00  0.00    +0.004 A 
ATOM     29  C   LIG    1      -24.344  82.273  38.438  0.00  0.00    +0.028 A 
ENDBRANCH  22  24
ENDBRANCH  14  16
ENDBRANCH   4  12
BRANCH   1  30
ATOM     30  C   LIG    1      -28.126  75.317  32.114  0.00  0.00    +0.233 C 
ATOM     31  N   LIG    1      -29.136  75.876  31.553  0.00  0.00    -0.243 NA
BRANCH  30  32
ATOM     32  O   LIG    1      -28.120  74.087  32.669  0.00  0.00    -0.491 OA
ATOM     33  H   LIG    1      -28.947  73.894  33.137  0.00  0.00    +0.294 HD
ENDBRANCH  30  32
BRANCH  31  34
ATOM     34  C   LIG    1      -30.408  75.175  31.428  0.00  0.00    +0.204 C 
BRANCH  34  35
ATOM     35  C   LIG    1      -31.303  75.846  30.449  0.00  0.00    +0.101 A 
ATOM     36  N   LIG    1      -30.820  76.314  29.243  0.00  0.00    -0.219 NA
ATOM     37  C   LIG    1      -31.880  76.861  28.684  0.00  0.00    +0.307 A 
ATOM     38  O   LIG    1      -33.025  76.784  29.415  0.00  0.00    -0.450 OA
ATOM     39  C   LIG    1      -32.647  76.127  30.546  0.00  0.00    +0.222 A 
ENDBRANCH  34  35
ENDBRANCH  31  34
ENDBRANCH   1  30
TORSDOF 8
ENDMDL
MODEL 6
REMARK VINA RESULT:      -6.2     15.371     21.052
REMARK  Name = pdb/CHEMBL3956444.pdb
REMARK                            x       y       z     vdW  Elec       q    Type
REMARK                         _______ _______ _______ _____ _____    ______ ____
ROOT
ATOM      1  C   LIG    1      -37.905  76.805  25.714  0.00  0.00    +0.131 C 
ATOM      2  N   LIG    1      -38.358  78.008  25.323  0.00  0.00    -0.141 NA
ATOM      3  N   LIG    1      -39.517  77.749  24.661  0.00  0.00    -0.201 N 
ATOM      4  C   LIG    1      -39.661  76.386  24.394  0.00  0.00    +0.185 C 
ATOM      5  C   LIG    1      -38.691  75.771  25.154  0.00  0.00    +0.056 C 
ENDROOT
BRANCH   3   6
ATOM      6  C   LIG    1      -40.390  78.812  24.309  0.00  0.00    +0.052 A 
ATOM      7  C   LIG    1      -39.872  79.956  23.683  0.00  0.00    +0.025 A 
ATOM      8  C   LIG    1      -40.722  81.015  23.349  0.00  0.00    +0.002 A 
ATOM      9  C   LIG    1      -42.077  80.949  23.661  0.00  0.00    +0.000 A 
ATOM     10  C   LIG    1      -42.593  79.824  24.306  0.00  0.00    +0.002 A 
ATOM     11  C   LIG    1      -41.752  78.758  24.631  0.00  0.00    +0.025 A 
ENDBRANCH   3   6
BRANCH   4  12
ATOM     12  N   LIG    1      -40.551  75.771  23.495  0.00  0.00    -0.282 N 
ATOM     13  H   LIG    1      -40.262  75.692  22.528  0.00  0.00    +0.152 HD
ATOM     14  C   LIG    1      -41.779  75.153  23.914  0.00  0.00    +0.247 C 
ATOM     15  O   LIG    1      -42.106  75.133  25.085  0.00  0.00    -0.270 OA
BRANCH  14  16
ATOM     16  C   LIG    1      -42.613  74.448  22.911  0.00  0.00    +0.056 A 
ATOM     17  C   LIG    1      -42.486  73.107  22.579  0.00  0.00    +0.054 A 
ATOM     18 CL   LIG    1      -41.312  72.063  23.290  0.00  0.00    -0.083 Cl
ATOM     19  C   LIG    1      -43.290  72.568  21.575  0.00  0.00    +0.041 A 
ATOM     20  C   LIG    1      -44.190  73.368  20.853  0.00  0.00    +0.052 A 
ATOM     21 CL   LIG    1      -45.051  72.555  19.590  0.00  0.00    -0.083 Cl
ATOM     22  C   LIG    1      -44.308  74.744  21.119  0.00  0.00    +0.019 A 
ATOM     23  C   LIG    1      -43.526  75.245  22.188  0.00  0.00    +0.026 A 
BRANCH  22  24
ATOM     24  C   LIG    1      -45.053  75.719  20.287  0.00  0.00    +0.072 A 
ATOM     25  N   LIG    1      -46.106  76.290  20.932  0.00  0.00    -0.255 NA
ATOM     26  C   LIG    1      -46.783  77.281  20.308  0.00  0.00    +0.111 A 
ATOM     27  C   LIG    1      -46.465  77.750  19.050  0.00  0.00    +0.020 A 
ATOM     28  C   LIG    1      -45.420  77.134  18.376  0.00  0.00    +0.004 A 
ATOM     29  C   LIG    1      -44.720  76.093  18.987  0.00  0.00    +0.028 A 
ENDBRANCH  22  24
ENDBRANCH  14  16
ENDBRANCH   4  12
BRANCH   1  30
ATOM     30  C   LIG    1      -36.732  76.612  26.570  0.00  0.00    +0.233 C 
ATOM     31  N   LIG    1      -36.275  77.612  27.232  0.00  0.00    -0.243 NA
BRANCH  30  32
ATOM     32  O   LIG    1      -36.238  75.356  26.606  0.00  0.00    -0.491 OA
ATOM     33  H   LIG    1      -36.919  74.703  26.828  0.00  0.00    +0.294 HD
ENDBRANCH  30  32
BRANCH  31  34
ATOM     34  C   LIG    1      -35.156  77.454  28.153  0.00  0.00    +0.204 C 
BRANCH  34  35
ATOM     35  C   LIG    1      -33.866  77.805  27.505  0.00  0.00    +0.101 A 
ATOM     36  N   LIG    1      -33.532  79.120  27.244  0.00  0.00    -0.219 NA
ATOM     37  C   LIG    1      -32.361  79.023  26.649  0.00  0.00    +0.307 A 
ATOM     38  O   LIG    1      -31.888  77.756  26.504  0.00  0.00    -0.450 OA
ATOM     39  C   LIG    1      -32.860  76.980  27.060  0.00  0.00    +0.222 A 
ENDBRANCH  34  35
ENDBRANCH  31  34
ENDBRANCH   1  30
TORSDOF 8
ENDMDL
MODEL 7
REMARK VINA RESULT:      -6.2     12.776     19.515
REMARK  Name = pdb/CHEMBL3956444.pdb
REMARK                            x       y       z     vdW  Elec       q    Type
REMARK                         _______ _______ _______ _____ _____    ______ ____
ROOT
ATOM      1  C   LIG    1      -37.855  76.555  26.224  0.00  0.00    +0.131 C 
ATOM      2  N   LIG    1      -38.991  77.070  25.723  0.00  0.00    -0.141 NA
ATOM      3  N   LIG    1      -39.628  76.020  25.142  0.00  0.00    -0.201 N 
ATOM      4  C   LIG    1      -38.787  74.909  25.030  0.00  0.00    +0.185 C 
ATOM      5  C   LIG    1      -37.695  75.212  25.813  0.00  0.00    +0.056 C 
ENDROOT
BRANCH   3   6
ATOM      6  C   LIG    1      -40.974  76.150  24.713  0.00  0.00    +0.052 A 
ATOM      7  C   LIG    1      -41.957  75.302  25.245  0.00  0.00    +0.025 A 
ATOM      8  C   LIG    1      -43.283  75.412  24.815  0.00  0.00    +0.002 A 
ATOM      9  C   LIG    1      -43.626  76.341  23.838  0.00  0.00    +0.000 A 
ATOM     10  C   LIG    1      -42.648  77.171  23.286  0.00  0.00    +0.002 A 
ATOM     11  C   LIG    1      -41.325  77.075  23.721  0.00  0.00    +0.025 A 
ENDBRANCH   3   6
BRANCH   4  12
ATOM     12  N   LIG    1      -38.974  73.761  24.241  0.00  0.00    -0.282 N 
ATOM     13  H   LIG    1      -38.671  73.799  23.276  0.00  0.00    +0.152 HD
ATOM     14  C   LIG    1      -39.456  72.516  24.776  0.00  0.00    +0.247 C 
ATOM     15  O   LIG    1      -39.727  72.402  25.957  0.00  0.00    -0.270 OA
BRANCH  14  16
ATOM     16  C   LIG    1      -39.536  71.331  23.891  0.00  0.00    +0.056 A 
ATOM     17  C   LIG    1      -40.651  70.973  23.147  0.00  0.00    +0.054 A 
ATOM     18 CL   LIG    1      -42.125  71.868  23.161  0.00  0.00    -0.083 Cl
ATOM     19  C   LIG    1      -40.628  69.799  22.394  0.00  0.00    +0.041 A 
ATOM     20  C   LIG    1      -39.518  68.941  22.415  0.00  0.00    +0.052 A 
ATOM     21 CL   LIG    1      -39.688  67.490  21.486  0.00  0.00    -0.083 Cl
ATOM     22  C   LIG    1      -38.390  69.236  23.203  0.00  0.00    +0.019 A 
ATOM     23  C   LIG    1      -38.420  70.467  23.901  0.00  0.00    +0.026 A 
BRANCH  22  24
ATOM     24  C   LIG    1      -37.264  68.310  23.473  0.00  0.00    +0.072 A 
ATOM     25  N   LIG    1      -36.296  68.340  22.519  0.00  0.00    -0.255 NA
ATOM     26  C   LIG    1      -35.167  67.624  22.724  0.00  0.00    +0.111 A 
ATOM     27  C   LIG    1      -34.939  66.862  23.852  0.00  0.00    +0.020 A 
ATOM     28  C   LIG    1      -35.949  66.797  24.803  0.00  0.00    +0.004 A 
ATOM     29  C   LIG    1      -37.132  67.508  24.604  0.00  0.00    +0.028 A 
ENDBRANCH  22  24
ENDBRANCH  14  16
ENDBRANCH   4  12
BRANCH   1  30
ATOM     30  C   LIG    1      -36.908  77.311  27.047  0.00  0.00    +0.233 C 
ATOM     31  N   LIG    1      -35.932  76.688  27.601  0.00  0.00    -0.243 NA
BRANCH  30  32
ATOM     32  O   LIG    1      -37.141  78.637  27.133  0.00  0.00    -0.491 OA
ATOM     33  H   LIG    1      -36.659  79.045  27.869  0.00  0.00    +0.294 HD
ENDBRANCH  30  32
BRANCH  31  34
ATOM     34  C   LIG    1      -34.923  77.407  28.369  0.00  0.00    +0.204 C 
BRANCH  34  35
ATOM     35  C   LIG    1      -33.754  77.769  27.524  0.00  0.00    +0.101 A 
ATOM     36  N   LIG    1      -33.515  79.079  27.160  0.00  0.00    -0.219 NA
ATOM     37  C   LIG    1      -32.439  78.992  26.405  0.00  0.00    +0.307 A 
ATOM     38  O   LIG    1      -31.941  77.736  26.249  0.00  0.00    -0.450 OA
ATOM     39  C   LIG    1      -32.790  76.956  26.975  0.00  0.00    +0.222 A 
ENDBRANCH  34  35
ENDBRANCH  31  34
ENDBRANCH   1  30
TORSDOF 8
ENDMDL
MODEL 8
REMARK VINA RESULT:      -6.2      5.957     13.444
REMARK  Name = pdb/CHEMBL3956444.pdb
REMARK                            x       y       z     vdW  Elec       q    Type
REMARK                         _______ _______ _______ _____ _____    ______ ____
ROOT
ATOM      1  C   LIG    1      -29.702  75.794  31.115  0.00  0.00    +0.131 C 
ATOM      2  N   LIG    1      -30.521  76.157  30.114  0.00  0.00    -0.141 NA
ATOM      3  N   LIG    1      -31.436  75.155  30.027  0.00  0.00    -0.201 N 
ATOM      4  C   LIG    1      -31.047  74.040  30.773  0.00  0.00    +0.185 C 
ATOM      5  C   LIG    1      -29.999  74.482  31.550  0.00  0.00    +0.056 C 
ENDROOT
BRANCH   3   6
ATOM      6  C   LIG    1      -32.597  75.316  29.226  0.00  0.00    +0.052 A 
ATOM      7  C   LIG    1      -33.308  74.184  28.802  0.00  0.00    +0.025 A 
ATOM      8  C   LIG    1      -34.443  74.333  27.998  0.00  0.00    +0.002 A 
ATOM      9  C   LIG    1      -34.852  75.600  27.594  0.00  0.00    +0.000 A 
ATOM     10  C   LIG    1      -34.134  76.728  27.992  0.00  0.00    +0.002 A 
ATOM     11  C   LIG    1      -33.008  76.587  28.805  0.00  0.00    +0.025 A 
ENDBRANCH   3   6
BRANCH   4  12
ATOM     12  N   LIG    1      -31.559  72.732  30.702  0.00  0.00    -0.282 N 
ATOM     13  H   LIG    1      -32.452  72.553  31.141  0.00  0.00    +0.152 HD
ATOM     14  C   LIG    1      -30.931  71.690  29.936  0.00  0.00    +0.247 C 
ATOM     15  O   LIG    1      -29.912  71.899  29.305  0.00  0.00    -0.270 OA
BRANCH  14  16
ATOM     16  C   LIG    1      -31.588  70.365  29.843  0.00  0.00    +0.056 A 
ATOM     17  C   LIG    1      -31.162  69.222  30.503  0.00  0.00    +0.054 A 
ATOM     18 CL   LIG    1      -29.776  69.183  31.530  0.00  0.00    -0.083 Cl
ATOM     19  C   LIG    1      -31.828  68.015  30.290  0.00  0.00    +0.041 A 
ATOM     20  C   LIG    1      -32.891  67.920  29.378  0.00  0.00    +0.052 A 
ATOM     21 CL   LIG    1      -33.552  66.332  29.178  0.00  0.00    -0.083 Cl
ATOM     22  C   LIG    1      -33.317  69.042  28.644  0.00  0.00    +0.019 A 
ATOM     23  C   LIG    1      -32.663  70.264  28.933  0.00  0.00    +0.026 A 
BRANCH  22  24
ATOM     24  C   LIG    1      -34.269  69.015  27.509  0.00  0.00    +0.072 A 
ATOM     25  N   LIG    1      -35.539  69.358  27.856  0.00  0.00    -0.255 NA
ATOM     26  C   LIG    1      -36.463  69.482  26.878  0.00  0.00    +0.111 A 
ATOM     27  C   LIG    1      -36.193  69.281  25.540  0.00  0.00    +0.020 A 
ATOM     28  C   LIG    1      -34.908  68.886  25.193  0.00  0.00    +0.004 A 
ATOM     29  C   LIG    1      -33.941  68.728  26.186  0.00  0.00    +0.028 A 
ENDBRANCH  22  24
ENDBRANCH  14  16
ENDBRANCH   4  12
BRANCH   1  30
ATOM     30  C   LIG    1      -28.629  76.641  31.642  0.00  0.00    +0.233 C 
ATOM     31  N   LIG    1      -27.638  76.088  32.241  0.00  0.00    -0.243 NA
BRANCH  30  32
ATOM     32  O   LIG    1      -28.772  77.965  31.422  0.00  0.00    -0.491 OA
ATOM     33  H   LIG    1      -29.361  78.381  32.071  0.00  0.00    +0.294 HD
ENDBRANCH  30  32
BRANCH  31  34
ATOM     34  C   LIG    1      -26.512  76.882  32.717  0.00  0.00    +0.204 C 
BRANCH  34  35
ATOM     35  C   LIG    1      -25.446  76.985  31.687  0.00  0.00    +0.101 A 
ATOM     36  N   LIG    1      -25.149  78.191  31.084  0.00  0.00    -0.219 NA
ATOM     37  C   LIG    1      -24.200  77.876  30.227  0.00  0.00    +0.307 A 
ATOM     38  O   LIG    1      -23.838  76.565  30.220  0.00  0.00    -0.450 OA
ATOM     39  C   LIG    1      -24.640  76.000  31.164  0.00  0.00    +0.222 A 
ENDBRANCH  34  35
ENDBRANCH  31  34
ENDBRANCH   1  30
TORSDOF 8
ENDMDL
MODEL 9
REMARK VINA RESULT:      -6.2     17.876     20.138
REMARK  Name = pdb/CHEMBL3956444.pdb
REMARK                            x       y       z     vdW  Elec       q    Type
REMARK                         _______ _______ _______ _____ _____    ______ ____
ROOT
ATOM      1  C   LIG    1      -27.067  65.845  19.244  0.00  0.00    +0.131 C 
ATOM      2  N   LIG    1      -27.090  66.942  18.468  0.00  0.00    -0.141 NA
ATOM      3  N   LIG    1      -28.273  67.548  18.752  0.00  0.00    -0.201 N 
ATOM      4  C   LIG    1      -29.114  66.711  19.489  0.00  0.00    +0.185 C 
ATOM      5  C   LIG    1      -28.310  65.669  19.894  0.00  0.00    +0.056 C 
ENDROOT
BRANCH   3   6
ATOM      6  C   LIG    1      -28.531  68.864  18.284  0.00  0.00    +0.052 A 
ATOM      7  C   LIG    1      -29.005  69.054  16.978  0.00  0.00    +0.025 A 
ATOM      8  C   LIG    1      -29.245  70.348  16.503  0.00  0.00    +0.002 A 
ATOM      9  C   LIG    1      -28.987  71.449  17.314  0.00  0.00    +0.000 A 
ATOM     10  C   LIG    1      -28.492  71.266  18.606  0.00  0.00    +0.002 A 
ATOM     11  C   LIG    1      -28.263  69.978  19.090  0.00  0.00    +0.025 A 
ENDBRANCH   3   6
BRANCH   4  12
ATOM     12  N   LIG    1      -30.495  66.856  19.714  0.00  0.00    -0.282 N 
ATOM     13  H   LIG    1      -30.814  67.714  20.144  0.00  0.00    +0.152 HD
ATOM     14  C   LIG    1      -31.464  65.899  19.251  0.00  0.00    +0.247 C 
ATOM     15  O   LIG    1      -31.125  64.908  18.633  0.00  0.00    -0.270 OA
BRANCH  14  16
ATOM     16  C   LIG    1      -32.906  66.176  19.452  0.00  0.00    +0.056 A 
ATOM     17  C   LIG    1      -33.784  66.563  18.450  0.00  0.00    +0.054 A 
ATOM     18 CL   LIG    1      -33.306  66.792  16.808  0.00  0.00    -0.083 Cl
ATOM     19  C   LIG    1      -35.110  66.854  18.771  0.00  0.00    +0.041 A 
ATOM     20  C   LIG    1      -35.564  66.816  20.099  0.00  0.00    +0.052 A 
ATOM     21 CL   LIG    1      -37.215  67.282  20.329  0.00  0.00    -0.083 Cl
ATOM     22  C   LIG    1      -34.691  66.486  21.152  0.00  0.00    +0.019 A 
ATOM     23  C   LIG    1      -33.371  66.132  20.784  0.00  0.00    +0.026 A 
BRANCH  22  24
ATOM     24  C   LIG    1      -34.996  66.625  22.596  0.00  0.00    +0.072 A 
ATOM     25  N   LIG    1      -34.800  67.883  23.074  0.00  0.00    -0.255 NA
ATOM     26  C   LIG    1      -35.159  68.151  24.349  0.00  0.00    +0.111 A 
ATOM     27  C   LIG    1      -35.719  67.219  25.199  0.00  0.00    +0.020 A 
ATOM     28  C   LIG    1      -35.875  65.924  24.723  0.00  0.00    +0.004 A 
ATOM     29  C   LIG    1      -35.489  65.615  23.419  0.00  0.00    +0.028 A 
ENDBRANCH  22  24
ENDBRANCH  14  16
ENDBRANCH   4  12
BRANCH   1  30
ATOM     30  C   LIG    1      -25.915  64.947  19.356  0.00  0.00    +0.233 C 
ATOM     31  N   LIG    1      -25.281  64.615  18.291  0.00  0.00    -0.243 NA
BRANCH  30  32
ATOM     32  O   LIG    1      -25.601  64.556  20.609  0.00  0.00    -0.491 OA
ATOM     33  H   LIG    1      -26.014  63.712  20.842  0.00  0.00    +0.294 HD
ENDBRANCH  30  32
BRANCH  31  34
ATOM     34  C   LIG    1      -24.085  63.783  18.357  0.00  0.00    +0.204 C 
BRANCH  34  35
ATOM     35  C   LIG    1      -22.917  64.552  18.860  0.00  0.00    +0.101 A 
ATOM     36  N   LIG    1      -22.457  64.390  20.151  0.00  0.00    -0.219 NA
ATOM     37  C   LIG    1      -21.458  65.245  20.227  0.00  0.00    +0.307 A 
ATOM     38  O   LIG    1      -21.213  65.951  19.090  0.00  0.00    -0.450 OA
ATOM     39  C   LIG    1      -22.152  65.497  18.215  0.00  0.00    +0.222 A 
ENDBRANCH  34  35
ENDBRANCH  31  34
ENDBRANCH   1  30
TORSDOF 8
ENDMDL
