MODEL 1
REMARK VINA RESULT:      -6.1      0.000      0.000
REMARK  Name = pdb/CHEMBL3976094.pdb
REMARK                            x       y       z     vdW  Elec       q    Type
REMARK                         _______ _______ _______ _____ _____    ______ ____
ROOT
ATOM      1  C   LIG    1      -20.544  76.939  30.629  0.00  0.00    +0.027 A 
ATOM      2  C   LIG    1      -20.621  77.839  31.686  0.00  0.00    +0.060 A 
ATOM      3  C   LIG    1      -19.446  78.296  32.255  0.00  0.00    +0.157 A 
ATOM      4  N   LIG    1      -18.222  77.903  31.833  0.00  0.00    -0.236 NA
ATOM      5  C   LIG    1      -18.170  76.976  30.853  0.00  0.00    +0.114 A 
ATOM      6  C   LIG    1      -19.291  76.464  30.225  0.00  0.00    +0.031 A 
ENDROOT
BRANCH   1   7
ATOM      7  C   LIG    1      -21.769  76.393  29.975  0.00  0.00    +0.195 C 
ATOM      8  O   LIG    1      -21.856  76.476  28.757  0.00  0.00    -0.287 OA
BRANCH   7  16
ATOM      9  N   LIG    1      -23.934  74.405  32.186  0.00  0.00    -0.343 N 
ATOM     10  C   LIG    1      -24.813  75.426  31.871  0.00  0.00    +0.053 A 
ATOM     11  C   LIG    1      -26.139  75.664  32.246  0.00  0.00    +0.046 A 
ATOM     12  C   LIG    1      -26.702  76.830  31.750  0.00  0.00    +0.113 A 
ATOM     13  N   LIG    1      -26.064  77.725  30.972  0.00  0.00    -0.263 NA
ATOM     14  C   LIG    1      -24.777  77.485  30.620  0.00  0.00    +0.121 A 
ATOM     15  C   LIG    1      -24.122  76.320  31.040  0.00  0.00    +0.029 A 
ATOM     16  C   LIG    1      -22.823  75.768  30.787  0.00  0.00    +0.049 A 
ATOM     17  C   LIG    1      -22.767  74.573  31.478  0.00  0.00    +0.099 A 
BRANCH   9  19
ATOM     18  C   LIG    1      -24.824  72.115  32.508  0.00  0.00    +0.030 C 
ATOM     19  C   LIG    1      -24.191  73.341  33.164  0.00  0.00    +0.081 C 
ATOM     20  C   LIG    1      -22.940  72.950  33.960  0.00  0.00    +0.030 C 
ENDBRANCH   9  19
ENDBRANCH   7  16
ENDBRANCH   1   7
BRANCH   3  21
ATOM     21  N   LIG    1      -19.507  79.169  33.341  0.00  0.00    -0.197 NA
ATOM     22  C   LIG    1      -19.181  78.791  34.534  0.00  0.00    +0.193 C 
BRANCH  22  23
ATOM     23  O   LIG    1      -18.730  77.559  34.849  0.00  0.00    -0.495 OA
ATOM     24  H   LIG    1      -19.355  76.898  34.488  0.00  0.00    +0.293 HD
ENDBRANCH  22  23
BRANCH  22  25
ATOM     25  C   LIG    1      -19.276  79.703  35.727  0.00  0.00    +0.130 C 
BRANCH  25  26
ATOM     26  C   LIG    1      -20.692  80.149  36.010  0.00  0.00    -0.036 A 
ATOM     27  C   LIG    1      -21.601  79.280  36.627  0.00  0.00    +0.043 A 
ATOM     28  C   LIG    1      -22.910  79.693  36.872  0.00  0.00    +0.135 A 
ATOM     29  F   LIG    1      -23.752  78.838  37.470  0.00  0.00    -0.205 F 
ATOM     30  C   LIG    1      -23.350  80.963  36.512  0.00  0.00    +0.090 A 
ATOM     31  C   LIG    1      -22.444  81.833  35.889  0.00  0.00    +0.015 A 
ATOM     32  C   LIG    1      -21.128  81.427  35.637  0.00  0.00    +0.005 A 
BRANCH  30  33
ATOM     33  C   LIG    1      -24.768  81.355  36.797  0.00  0.00    +0.420 C 
ATOM     34  F   LIG    1      -25.070  82.609  36.362  0.00  0.00    -0.166 F 
ATOM     35  F   LIG    1      -25.073  81.328  38.124  0.00  0.00    -0.166 F 
ATOM     36  F   LIG    1      -25.680  80.534  36.199  0.00  0.00    -0.166 F 
ENDBRANCH  30  33
ENDBRANCH  25  26
ENDBRANCH  22  25
ENDBRANCH   3  21
TORSDOF 8
ENDMDL
MODEL 2
REMARK VINA RESULT:      -5.9     16.529     18.747
REMARK  Name = pdb/CHEMBL3976094.pdb
REMARK                            x       y       z     vdW  Elec       q    Type
REMARK                         _______ _______ _______ _____ _____    ______ ____
ROOT
ATOM      1  C   LIG    1      -20.666  80.709  15.817  0.00  0.00    +0.027 A 
ATOM      2  C   LIG    1      -20.478  79.333  15.883  0.00  0.00    +0.060 A 
ATOM      3  C   LIG    1      -19.215  78.823  15.645  0.00  0.00    +0.157 A 
ATOM      4  N   LIG    1      -18.151  79.603  15.346  0.00  0.00    -0.236 NA
ATOM      5  C   LIG    1      -18.368  80.930  15.218  0.00  0.00    +0.114 A 
ATOM      6  C   LIG    1      -19.596  81.527  15.439  0.00  0.00    +0.031 A 
ENDROOT
BRANCH   1   7
ATOM      7  C   LIG    1      -22.003  81.329  16.049  0.00  0.00    +0.195 C 
ATOM      8  O   LIG    1      -22.175  81.952  17.088  0.00  0.00    -0.287 OA
BRANCH   7  16
ATOM      9  N   LIG    1      -24.330  81.455  13.203  0.00  0.00    -0.343 N 
ATOM     10  C   LIG    1      -24.865  80.376  13.882  0.00  0.00    +0.053 A 
ATOM     11  C   LIG    1      -25.967  79.558  13.613  0.00  0.00    +0.046 A 
ATOM     12  C   LIG    1      -26.189  78.533  14.520  0.00  0.00    +0.113 A 
ATOM     13  N   LIG    1      -25.421  78.276  15.597  0.00  0.00    -0.263 NA
ATOM     14  C   LIG    1      -24.354  79.073  15.844  0.00  0.00    +0.121 A 
ATOM     15  C   LIG    1      -24.058  80.158  15.008  0.00  0.00    +0.029 A 
ATOM     16  C   LIG    1      -23.065  81.192  15.042  0.00  0.00    +0.049 A 
ATOM     17  C   LIG    1      -23.295  81.988  13.937  0.00  0.00    +0.099 A 
BRANCH   9  19
ATOM     18  C   LIG    1      -25.740  83.093  11.992  0.00  0.00    +0.030 C 
ATOM     19  C   LIG    1      -24.765  81.922  11.881  0.00  0.00    +0.081 C 
ATOM     20  C   LIG    1      -23.592  82.273  10.958  0.00  0.00    +0.030 C 
ENDBRANCH   9  19
ENDBRANCH   7  16
ENDBRANCH   1   7
BRANCH   3  21
ATOM     21  N   LIG    1      -19.019  77.443  15.669  0.00  0.00    -0.197 NA
ATOM     22  C   LIG    1      -18.417  76.861  16.654  0.00  0.00    +0.193 C 
BRANCH  22  23
ATOM     23  O   LIG    1      -17.954  77.496  17.750  0.00  0.00    -0.495 OA
ATOM     24  H   LIG    1      -18.706  77.938  18.194  0.00  0.00    +0.293 HD
ENDBRANCH  22  23
BRANCH  22  25
ATOM     25  C   LIG    1      -18.159  75.378  16.684  0.00  0.00    +0.130 C 
BRANCH  25  26
ATOM     26  C   LIG    1      -19.388  74.579  17.051  0.00  0.00    -0.036 A 
ATOM     27  C   LIG    1      -19.345  73.648  18.096  0.00  0.00    +0.043 A 
ATOM     28  C   LIG    1      -20.478  72.904  18.421  0.00  0.00    +0.135 A 
ATOM     29  F   LIG    1      -20.404  72.026  19.431  0.00  0.00    -0.205 F 
ATOM     30  C   LIG    1      -21.671  73.057  17.721  0.00  0.00    +0.090 A 
ATOM     31  C   LIG    1      -21.716  73.984  16.669  0.00  0.00    +0.015 A 
ATOM     32  C   LIG    1      -20.583  74.734  16.336  0.00  0.00    +0.005 A 
BRANCH  30  33
ATOM     33  C   LIG    1      -22.859  72.230  18.109  0.00  0.00    +0.420 C 
ATOM     34  F   LIG    1      -23.975  72.532  17.390  0.00  0.00    -0.166 F 
ATOM     35  F   LIG    1      -23.202  72.370  19.420  0.00  0.00    -0.166 F 
ATOM     36  F   LIG    1      -22.662  70.892  17.926  0.00  0.00    -0.166 F 
ENDBRANCH  30  33
ENDBRANCH  25  26
ENDBRANCH  22  25
ENDBRANCH   3  21
TORSDOF 8
ENDMDL
MODEL 3
REMARK VINA RESULT:      -5.9      5.894      9.946
REMARK  Name = pdb/CHEMBL3976094.pdb
REMARK                            x       y       z     vdW  Elec       q    Type
REMARK                         _______ _______ _______ _____ _____    ______ ____
ROOT
ATOM      1  C   LIG    1      -26.007  75.881  31.792  0.00  0.00    +0.027 A 
ATOM      2  C   LIG    1      -27.392  75.760  31.833  0.00  0.00    +0.060 A 
ATOM      3  C   LIG    1      -27.941  74.540  32.180  0.00  0.00    +0.157 A 
ATOM      4  N   LIG    1      -27.193  73.454  32.479  0.00  0.00    -0.236 NA
ATOM      5  C   LIG    1      -25.852  73.572  32.366  0.00  0.00    +0.114 A 
ATOM      6  C   LIG    1      -25.215  74.752  32.027  0.00  0.00    +0.031 A 
ENDROOT
BRANCH   1   7
ATOM      7  C   LIG    1      -25.343  77.163  31.413  0.00  0.00    +0.195 C 
ATOM      8  O   LIG    1      -26.010  78.002  30.822  0.00  0.00    -0.287 OA
BRANCH   7  16
ATOM      9  N   LIG    1      -22.041  77.835  32.886  0.00  0.00    -0.343 N 
ATOM     10  C   LIG    1      -21.648  77.476  31.610  0.00  0.00    +0.053 A 
ATOM     11  C   LIG    1      -20.387  77.393  31.011  0.00  0.00    +0.046 A 
ATOM     12  C   LIG    1      -20.375  76.959  29.694  0.00  0.00    +0.113 A 
ATOM     13  N   LIG    1      -21.467  76.606  28.988  0.00  0.00    -0.263 NA
ATOM     14  C   LIG    1      -22.682  76.686  29.582  0.00  0.00    +0.121 A 
ATOM     15  C   LIG    1      -22.811  77.144  30.900  0.00  0.00    +0.029 A 
ATOM     16  C   LIG    1      -23.933  77.394  31.757  0.00  0.00    +0.049 A 
ATOM     17  C   LIG    1      -23.415  77.855  32.952  0.00  0.00    +0.099 A 
BRANCH   9  19
ATOM     18  C   LIG    1      -21.265  79.533  34.515  0.00  0.00    +0.030 C 
ATOM     19  C   LIG    1      -21.131  78.098  34.008  0.00  0.00    +0.081 C 
ATOM     20  C   LIG    1      -21.295  77.095  35.156  0.00  0.00    +0.030 C 
ENDBRANCH   9  19
ENDBRANCH   7  16
ENDBRANCH   1   7
BRANCH   3  21
ATOM     21  N   LIG    1      -29.328  74.392  32.188  0.00  0.00    -0.197 NA
ATOM     22  C   LIG    1      -29.915  73.469  31.498  0.00  0.00    +0.193 C 
BRANCH  22  23
ATOM     23  O   LIG    1      -29.272  72.554  30.743  0.00  0.00    -0.495 OA
ATOM     24  H   LIG    1      -28.990  72.982  29.909  0.00  0.00    +0.293 HD
ENDBRANCH  22  23
BRANCH  22  25
ATOM     25  C   LIG    1      -31.411  73.314  31.459  0.00  0.00    +0.130 C 
BRANCH  25  26
ATOM     26  C   LIG    1      -32.058  74.161  30.388  0.00  0.00    -0.036 A 
ATOM     27  C   LIG    1      -31.529  75.415  30.057  0.00  0.00    +0.043 A 
ATOM     28  C   LIG    1      -32.138  76.197  29.077  0.00  0.00    +0.135 A 
ATOM     29  F   LIG    1      -31.602  77.390  28.781  0.00  0.00    -0.205 F 
ATOM     30  C   LIG    1      -33.279  75.765  28.409  0.00  0.00    +0.090 A 
ATOM     31  C   LIG    1      -33.815  74.513  28.742  0.00  0.00    +0.015 A 
ATOM     32  C   LIG    1      -33.212  73.721  29.725  0.00  0.00    +0.005 A 
BRANCH  30  33
ATOM     33  C   LIG    1      -33.896  76.647  27.366  0.00  0.00    +0.420 C 
ATOM     34  F   LIG    1      -34.996  76.094  26.786  0.00  0.00    -0.166 F 
ATOM     35  F   LIG    1      -33.041  76.950  26.350  0.00  0.00    -0.166 F 
ATOM     36  F   LIG    1      -34.313  77.849  27.860  0.00  0.00    -0.166 F 
ENDBRANCH  30  33
ENDBRANCH  25  26
ENDBRANCH  22  25
ENDBRANCH   3  21
TORSDOF 8
ENDMDL
MODEL 4
REMARK VINA RESULT:      -5.9     18.427     21.147
REMARK  Name = pdb/CHEMBL3976094.pdb
REMARK                            x       y       z     vdW  Elec       q    Type
REMARK                         _______ _______ _______ _____ _____    ______ ____
ROOT
ATOM      1  C   LIG    1      -36.945  67.967  21.573  0.00  0.00    +0.027 A 
ATOM      2  C   LIG    1      -37.595  68.812  22.466  0.00  0.00    +0.060 A 
ATOM      3  C   LIG    1      -36.990  69.089  23.678  0.00  0.00    +0.157 A 
ATOM      4  N   LIG    1      -35.793  68.572  24.039  0.00  0.00    -0.236 NA
ATOM      5  C   LIG    1      -35.211  67.699  23.188  0.00  0.00    +0.114 A 
ATOM      6  C   LIG    1      -35.742  67.364  21.955  0.00  0.00    +0.031 A 
ENDROOT
BRANCH   1   7
ATOM      7  C   LIG    1      -37.544  67.612  20.253  0.00  0.00    +0.195 C 
ATOM      8  O   LIG    1      -38.710  67.922  20.050  0.00  0.00    -0.287 OA
BRANCH   7  16
ATOM      9  N   LIG    1      -35.267  66.481  17.595  0.00  0.00    -0.343 N 
ATOM     10  C   LIG    1      -35.748  65.255  18.015  0.00  0.00    +0.053 A 
ATOM     11  C   LIG    1      -35.486  63.952  17.580  0.00  0.00    +0.046 A 
ATOM     12  C   LIG    1      -36.143  62.945  18.271  0.00  0.00    +0.113 A 
ATOM     13  N   LIG    1      -36.974  63.140  19.314  0.00  0.00    -0.263 NA
ATOM     14  C   LIG    1      -37.215  64.407  19.729  0.00  0.00    +0.121 A 
ATOM     15  C   LIG    1      -36.628  65.501  19.079  0.00  0.00    +0.029 A 
ATOM     16  C   LIG    1      -36.736  66.922  19.238  0.00  0.00    +0.049 A 
ATOM     17  C   LIG    1      -35.914  67.484  18.280  0.00  0.00    +0.099 A 
BRANCH   9  19
ATOM     18  C   LIG    1      -34.745  67.160  15.270  0.00  0.00    +0.030 C 
ATOM     19  C   LIG    1      -34.195  66.677  16.611  0.00  0.00    +0.081 C 
ATOM     20  C   LIG    1      -33.087  67.609  17.116  0.00  0.00    +0.030 C 
ENDBRANCH   9  19
ENDBRANCH   7  16
ENDBRANCH   1   7
BRANCH   3  21
ATOM     21  N   LIG    1      -37.647  69.903  24.601  0.00  0.00    -0.197 NA
ATOM     22  C   LIG    1      -37.274  71.123  24.815  0.00  0.00    +0.193 C 
BRANCH  22  23
ATOM     23  O   LIG    1      -36.262  71.737  24.169  0.00  0.00    -0.495 OA
ATOM     24  H   LIG    1      -35.415  71.412  24.538  0.00  0.00    +0.293 HD
ENDBRANCH  22  23
BRANCH  22  25
ATOM     25  C   LIG    1      -37.942  72.007  25.833  0.00  0.00    +0.130 C 
BRANCH  25  26
ATOM     26  C   LIG    1      -38.681  73.166  25.203  0.00  0.00    -0.036 A 
ATOM     27  C   LIG    1      -38.239  74.481  25.398  0.00  0.00    +0.043 A 
ATOM     28  C   LIG    1      -38.933  75.546  24.826  0.00  0.00    +0.135 A 
ATOM     29  F   LIG    1      -38.479  76.791  25.027  0.00  0.00    -0.205 F 
ATOM     30  C   LIG    1      -40.075  75.340  24.059  0.00  0.00    +0.090 A 
ATOM     31  C   LIG    1      -40.524  74.025  23.867  0.00  0.00    +0.015 A 
ATOM     32  C   LIG    1      -39.835  72.949  24.438  0.00  0.00    +0.005 A 
BRANCH  30  33
ATOM     33  C   LIG    1      -40.785  76.521  23.469  0.00  0.00    +0.420 C 
ATOM     34  F   LIG    1      -41.844  76.169  22.689  0.00  0.00    -0.166 F 
ATOM     35  F   LIG    1      -39.978  77.294  22.691  0.00  0.00    -0.166 F 
ATOM     36  F   LIG    1      -41.295  77.364  24.414  0.00  0.00    -0.166 F 
ENDBRANCH  30  33
ENDBRANCH  25  26
ENDBRANCH  22  25
ENDBRANCH   3  21
TORSDOF 8
ENDMDL
MODEL 5
REMARK VINA RESULT:      -5.9     13.191     16.972
REMARK  Name = pdb/CHEMBL3976094.pdb
REMARK                            x       y       z     vdW  Elec       q    Type
REMARK                         _______ _______ _______ _____ _____    ______ ____
ROOT
ATOM      1  C   LIG    1      -33.820  73.164  28.702  0.00  0.00    +0.027 A 
ATOM      2  C   LIG    1      -35.016  73.232  27.995  0.00  0.00    +0.060 A 
ATOM      3  C   LIG    1      -35.686  72.057  27.710  0.00  0.00    +0.157 A 
ATOM      4  N   LIG    1      -35.230  70.840  28.085  0.00  0.00    -0.236 NA
ATOM      5  C   LIG    1      -34.034  70.789  28.709  0.00  0.00    +0.114 A 
ATOM      6  C   LIG    1      -33.294  71.911  29.036  0.00  0.00    +0.031 A 
ENDROOT
BRANCH   1   7
ATOM      7  C   LIG    1      -33.035  74.389  29.033  0.00  0.00    +0.195 C 
ATOM      8  O   LIG    1      -31.834  74.265  29.231  0.00  0.00    -0.287 OA
BRANCH   7  16
ATOM      9  N   LIG    1      -35.026  77.403  29.727  0.00  0.00    -0.343 N 
ATOM     10  C   LIG    1      -34.203  77.902  28.734  0.00  0.00    +0.053 A 
ATOM     11  C   LIG    1      -34.126  79.162  28.133  0.00  0.00    +0.046 A 
ATOM     12  C   LIG    1      -33.136  79.309  27.174  0.00  0.00    +0.113 A 
ATOM     13  N   LIG    1      -32.262  78.349  26.812  0.00  0.00    -0.263 NA
ATOM     14  C   LIG    1      -32.345  77.134  27.406  0.00  0.00    +0.121 A 
ATOM     15  C   LIG    1      -33.330  76.867  28.366  0.00  0.00    +0.029 A 
ATOM     16  C   LIG    1      -33.703  75.696  29.104  0.00  0.00    +0.049 A 
ATOM     17  C   LIG    1      -34.774  76.061  29.897  0.00  0.00    +0.099 A 
BRANCH   9  19
ATOM     18  C   LIG    1      -37.401  78.066  29.968  0.00  0.00    +0.030 C 
ATOM     19  C   LIG    1      -35.980  78.196  30.512  0.00  0.00    +0.081 C 
ATOM     20  C   LIG    1      -35.936  77.868  32.010  0.00  0.00    +0.030 C 
ENDBRANCH   9  19
ENDBRANCH   7  16
ENDBRANCH   1   7
BRANCH   3  21
ATOM     21  N   LIG    1      -36.866  72.105  26.968  0.00  0.00    -0.197 NA
ATOM     22  C   LIG    1      -36.896  71.770  25.720  0.00  0.00    +0.193 C 
BRANCH  22  23
ATOM     23  O   LIG    1      -35.832  71.320  25.024  0.00  0.00    -0.495 OA
ATOM     24  H   LIG    1      -35.460  72.064  24.509  0.00  0.00    +0.293 HD
ENDBRANCH  22  23
BRANCH  22  25
ATOM     25  C   LIG    1      -38.148  71.851  24.889  0.00  0.00    +0.130 C 
BRANCH  25  26
ATOM     26  C   LIG    1      -38.629  73.271  24.696  0.00  0.00    -0.036 A 
ATOM     27  C   LIG    1      -39.877  73.525  24.112  0.00  0.00    +0.043 A 
ATOM     28  C   LIG    1      -40.310  74.837  23.924  0.00  0.00    +0.135 A 
ATOM     29  F   LIG    1      -41.512  75.045  23.369  0.00  0.00    -0.205 F 
ATOM     30  C   LIG    1      -39.523  75.922  24.301  0.00  0.00    +0.090 A 
ATOM     31  C   LIG    1      -38.270  75.670  24.879  0.00  0.00    +0.015 A 
ATOM     32  C   LIG    1      -37.827  74.357  25.071  0.00  0.00    +0.005 A 
BRANCH  30  33
ATOM     33  C   LIG    1      -40.035  77.311  24.074  0.00  0.00    +0.420 C 
ATOM     34  F   LIG    1      -41.228  77.545  24.688  0.00  0.00    -0.166 F 
ATOM     35  F   LIG    1      -40.220  77.604  22.757  0.00  0.00    -0.166 F 
ATOM     36  F   LIG    1      -39.191  78.275  24.545  0.00  0.00    -0.166 F 
ENDBRANCH  30  33
ENDBRANCH  25  26
ENDBRANCH  22  25
ENDBRANCH   3  21
TORSDOF 8
ENDMDL
MODEL 6
REMARK VINA RESULT:      -5.8     17.258     20.230
REMARK  Name = pdb/CHEMBL3976094.pdb
REMARK                            x       y       z     vdW  Elec       q    Type
REMARK                         _______ _______ _______ _____ _____    ______ ____
ROOT
ATOM      1  C   LIG    1      -21.323  82.135  14.783  0.00  0.00    +0.027 A 
ATOM      2  C   LIG    1      -21.172  80.828  14.335  0.00  0.00    +0.060 A 
ATOM      3  C   LIG    1      -21.694  79.800  15.099  0.00  0.00    +0.157 A 
ATOM      4  N   LIG    1      -22.344  80.008  16.267  0.00  0.00    -0.236 NA
ATOM      5  C   LIG    1      -22.419  81.278  16.720  0.00  0.00    +0.114 A 
ATOM      6  C   LIG    1      -21.927  82.368  16.023  0.00  0.00    +0.031 A 
ENDROOT
BRANCH   1   7
ATOM      7  C   LIG    1      -20.774  83.293  14.019  0.00  0.00    +0.195 C 
ATOM      8  O   LIG    1      -19.590  83.268  13.709  0.00  0.00    -0.287 OA
BRANCH   7  16
ATOM      9  N   LIG    1      -22.516  86.474  13.404  0.00  0.00    -0.343 N 
ATOM     10  C   LIG    1      -23.315  85.632  12.653  0.00  0.00    +0.053 A 
ATOM     11  C   LIG    1      -24.460  85.871  11.886  0.00  0.00    +0.046 A 
ATOM     12  C   LIG    1      -24.987  84.767  11.235  0.00  0.00    +0.113 A 
ATOM     13  N   LIG    1      -24.469  83.524  11.279  0.00  0.00    -0.263 NA
ATOM     14  C   LIG    1      -23.357  83.307  12.022  0.00  0.00    +0.121 A 
ATOM     15  C   LIG    1      -22.761  84.347  12.748  0.00  0.00    +0.029 A 
ATOM     16  C   LIG    1      -21.648  84.415  13.649  0.00  0.00    +0.049 A 
ATOM     17  C   LIG    1      -21.560  85.732  14.059  0.00  0.00    +0.099 A 
BRANCH   9  19
ATOM     18  C   LIG    1      -22.495  88.468  14.875  0.00  0.00    +0.030 C 
ATOM     19  C   LIG    1      -22.637  87.936  13.450  0.00  0.00    +0.081 C 
ATOM     20  C   LIG    1      -21.662  88.644  12.502  0.00  0.00    +0.030 C 
ENDBRANCH   9  19
ENDBRANCH   7  16
ENDBRANCH   1   7
BRANCH   3  21
ATOM     21  N   LIG    1      -21.517  78.481  14.683  0.00  0.00    -0.197 NA
ATOM     22  C   LIG    1      -20.554  77.750  15.140  0.00  0.00    +0.193 C 
BRANCH  22  23
ATOM     23  O   LIG    1      -19.659  78.155  16.064  0.00  0.00    -0.495 OA
ATOM     24  H   LIG    1      -19.918  79.045  16.378  0.00  0.00    +0.293 HD
ENDBRANCH  22  23
BRANCH  22  25
ATOM     25  C   LIG    1      -20.319  76.337  14.677  0.00  0.00    +0.130 C 
BRANCH  25  26
ATOM     26  C   LIG    1      -20.721  75.310  15.711  0.00  0.00    -0.036 A 
ATOM     27  C   LIG    1      -22.069  74.973  15.892  0.00  0.00    +0.043 A 
ATOM     28  C   LIG    1      -22.434  74.036  16.857  0.00  0.00    +0.135 A 
ATOM     29  F   LIG    1      -23.732  73.732  16.999  0.00  0.00    -0.205 F 
ATOM     30  C   LIG    1      -21.485  73.417  17.664  0.00  0.00    +0.090 A 
ATOM     31  C   LIG    1      -20.135  73.757  17.490  0.00  0.00    +0.015 A 
ATOM     32  C   LIG    1      -19.759  74.698  16.525  0.00  0.00    +0.005 A 
BRANCH  30  33
ATOM     33  C   LIG    1      -21.932  72.418  18.687  0.00  0.00    +0.420 C 
ATOM     34  F   LIG    1      -20.912  71.958  19.462  0.00  0.00    -0.166 F 
ATOM     35  F   LIG    1      -22.520  71.319  18.139  0.00  0.00    -0.166 F 
ATOM     36  F   LIG    1      -22.851  72.924  19.561  0.00  0.00    -0.166 F 
ENDBRANCH  30  33
ENDBRANCH  25  26
ENDBRANCH  22  25
ENDBRANCH   3  21
TORSDOF 8
ENDMDL
MODEL 7
REMARK VINA RESULT:      -5.7     12.794     16.517
REMARK  Name = pdb/CHEMBL3976094.pdb
REMARK                            x       y       z     vdW  Elec       q    Type
REMARK                         _______ _______ _______ _____ _____    ______ ____
ROOT
ATOM      1  C   LIG    1      -36.338  70.235  25.810  0.00  0.00    +0.027 A 
ATOM      2  C   LIG    1      -35.336  71.005  26.390  0.00  0.00    +0.060 A 
ATOM      3  C   LIG    1      -34.718  70.535  27.534  0.00  0.00    +0.157 A 
ATOM      4  N   LIG    1      -35.047  69.361  28.120  0.00  0.00    -0.236 NA
ATOM      5  C   LIG    1      -36.070  68.663  27.582  0.00  0.00    +0.114 A 
ATOM      6  C   LIG    1      -36.744  69.054  26.439  0.00  0.00    +0.031 A 
ENDROOT
BRANCH   1   7
ATOM      7  C   LIG    1      -37.059  70.684  24.582  0.00  0.00    +0.195 C 
ATOM      8  O   LIG    1      -36.813  70.110  23.530  0.00  0.00    -0.287 OA
BRANCH   7  16
ATOM      9  N   LIG    1      -39.011  73.769  25.035  0.00  0.00    -0.343 N 
ATOM     10  C   LIG    1      -39.944  73.012  24.350  0.00  0.00    +0.053 A 
ATOM     11  C   LIG    1      -41.253  73.289  23.944  0.00  0.00    +0.046 A 
ATOM     12  C   LIG    1      -41.888  72.279  23.238  0.00  0.00    +0.113 A 
ATOM     13  N   LIG    1      -41.332  71.095  22.914  0.00  0.00    -0.263 NA
ATOM     14  C   LIG    1      -40.061  70.841  23.310  0.00  0.00    +0.121 A 
ATOM     15  C   LIG    1      -39.338  71.780  24.057  0.00  0.00    +0.029 A 
ATOM     16  C   LIG    1      -38.037  71.778  24.660  0.00  0.00    +0.049 A 
ATOM     17  C   LIG    1      -37.895  73.003  25.283  0.00  0.00    +0.099 A 
BRANCH   9  19
ATOM     18  C   LIG    1      -37.996  75.686  26.232  0.00  0.00    +0.030 C 
ATOM     19  C   LIG    1      -39.168  75.184  25.391  0.00  0.00    +0.081 C 
ATOM     20  C   LIG    1      -39.389  76.084  24.169  0.00  0.00    +0.030 C 
ENDBRANCH   9  19
ENDBRANCH   7  16
ENDBRANCH   1   7
BRANCH   3  21
ATOM     21  N   LIG    1      -33.737  71.313  28.150  0.00  0.00    -0.197 NA
ATOM     22  C   LIG    1      -33.979  71.975  29.234  0.00  0.00    +0.193 C 
BRANCH  22  23
ATOM     23  O   LIG    1      -35.158  71.963  29.890  0.00  0.00    -0.495 OA
ATOM     24  H   LIG    1      -35.780  72.557  29.422  0.00  0.00    +0.293 HD
ENDBRANCH  22  23
BRANCH  22  25
ATOM     25  C   LIG    1      -32.950  72.851  29.895  0.00  0.00    +0.130 C 
BRANCH  25  26
ATOM     26  C   LIG    1      -32.840  74.213  29.248  0.00  0.00    -0.036 A 
ATOM     27  C   LIG    1      -33.788  74.629  28.304  0.00  0.00    +0.043 A 
ATOM     28  C   LIG    1      -33.674  75.880  27.701  0.00  0.00    +0.135 A 
ATOM     29  F   LIG    1      -34.601  76.250  26.806  0.00  0.00    -0.205 F 
ATOM     30  C   LIG    1      -32.626  76.742  28.009  0.00  0.00    +0.090 A 
ATOM     31  C   LIG    1      -31.672  76.326  28.949  0.00  0.00    +0.015 A 
ATOM     32  C   LIG    1      -31.777  75.071  29.560  0.00  0.00    +0.005 A 
BRANCH  30  33
ATOM     33  C   LIG    1      -32.549  78.076  27.329  0.00  0.00    +0.420 C 
ATOM     34  F   LIG    1      -33.725  78.762  27.372  0.00  0.00    -0.166 F 
ATOM     35  F   LIG    1      -32.208  77.986  26.014  0.00  0.00    -0.166 F 
ATOM     36  F   LIG    1      -31.624  78.908  27.889  0.00  0.00    -0.166 F 
ENDBRANCH  30  33
ENDBRANCH  25  26
ENDBRANCH  22  25
ENDBRANCH   3  21
TORSDOF 8
ENDMDL
MODEL 8
REMARK VINA RESULT:      -5.7     20.767     23.292
REMARK  Name = pdb/CHEMBL3976094.pdb
REMARK                            x       y       z     vdW  Elec       q    Type
REMARK                         _______ _______ _______ _____ _____    ______ ____
ROOT
ATOM      1  C   LIG    1      -23.098  87.381  12.931  0.00  0.00    +0.027 A 
ATOM      2  C   LIG    1      -22.872  86.040  13.223  0.00  0.00    +0.060 A 
ATOM      3  C   LIG    1      -22.350  85.710  14.460  0.00  0.00    +0.157 A 
ATOM      4  N   LIG    1      -22.045  86.633  15.401  0.00  0.00    -0.236 NA
ATOM      5  C   LIG    1      -22.206  87.933  15.072  0.00  0.00    +0.114 A 
ATOM      6  C   LIG    1      -22.722  88.356  13.861  0.00  0.00    +0.031 A 
ENDROOT
BRANCH   1   7
ATOM      7  C   LIG    1      -23.647  87.814  11.612  0.00  0.00    +0.195 C 
ATOM      8  O   LIG    1      -24.382  87.040  11.014  0.00  0.00    -0.287 OA
BRANCH   7  16
ATOM      9  N   LIG    1      -22.332  90.806   9.925  0.00  0.00    -0.343 N 
ATOM     10  C   LIG    1      -23.433  91.365  10.547  0.00  0.00    +0.053 A 
ATOM     11  C   LIG    1      -23.928  92.673  10.568  0.00  0.00    +0.046 A 
ATOM     12  C   LIG    1      -25.098  92.860  11.289  0.00  0.00    +0.113 A 
ATOM     13  N   LIG    1      -25.773  91.887  11.932  0.00  0.00    -0.263 NA
ATOM     14  C   LIG    1      -25.285  90.623  11.899  0.00  0.00    +0.121 A 
ATOM     15  C   LIG    1      -24.091  90.329  11.226  0.00  0.00    +0.029 A 
ATOM     16  C   LIG    1      -23.309  89.138  11.071  0.00  0.00    +0.049 A 
ATOM     17  C   LIG    1      -22.218  89.487  10.299  0.00  0.00    +0.099 A 
BRANCH   9  19
ATOM     18  C   LIG    1      -20.045  90.914   8.978  0.00  0.00    +0.030 C 
ATOM     19  C   LIG    1      -21.456  91.500   8.973  0.00  0.00    +0.081 C 
ATOM     20  C   LIG    1      -22.030  91.533   7.551  0.00  0.00    +0.030 C 
ENDBRANCH   9  19
ENDBRANCH   7  16
ENDBRANCH   1   7
BRANCH   3  21
ATOM     21  N   LIG    1      -22.081  84.373  14.754  0.00  0.00    -0.197 NA
ATOM     22  C   LIG    1      -22.462  83.834  15.865  0.00  0.00    +0.193 C 
BRANCH  22  23
ATOM     23  O   LIG    1      -23.168  84.471  16.822  0.00  0.00    -0.495 OA
ATOM     24  H   LIG    1      -22.556  85.035  17.336  0.00  0.00    +0.293 HD
ENDBRANCH  22  23
BRANCH  22  25
ATOM     25  C   LIG    1      -22.150  82.405  16.222  0.00  0.00    +0.130 C 
BRANCH  25  26
ATOM     26  C   LIG    1      -23.122  81.425  15.608  0.00  0.00    -0.036 A 
ATOM     27  C   LIG    1      -23.142  80.087  16.024  0.00  0.00    +0.043 A 
ATOM     28  C   LIG    1      -24.031  79.184  15.444  0.00  0.00    +0.135 A 
ATOM     29  F   LIG    1      -24.028  77.914  15.871  0.00  0.00    -0.205 F 
ATOM     30  C   LIG    1      -24.914  79.577  14.442  0.00  0.00    +0.090 A 
ATOM     31  C   LIG    1      -24.893  80.914  14.019  0.00  0.00    +0.015 A 
ATOM     32  C   LIG    1      -24.002  81.827  14.594  0.00  0.00    +0.005 A 
BRANCH  30  33
ATOM     33  C   LIG    1      -25.848  78.565  13.852  0.00  0.00    +0.420 C 
ATOM     34  F   LIG    1      -25.201  77.565  13.192  0.00  0.00    -0.166 F 
ATOM     35  F   LIG    1      -26.725  79.105  12.960  0.00  0.00    -0.166 F 
ATOM     36  F   LIG    1      -26.620  77.941  14.788  0.00  0.00    -0.166 F 
ENDBRANCH  30  33
ENDBRANCH  25  26
ENDBRANCH  22  25
ENDBRANCH   3  21
TORSDOF 8
ENDMDL
MODEL 9
REMARK VINA RESULT:      -5.7     13.786     18.146
REMARK  Name = pdb/CHEMBL3976094.pdb
REMARK                            x       y       z     vdW  Elec       q    Type
REMARK                         _______ _______ _______ _____ _____    ______ ____
ROOT
ATOM      1  C   LIG    1      -37.601  79.848  28.503  0.00  0.00    +0.027 A 
ATOM      2  C   LIG    1      -37.841  79.122  27.341  0.00  0.00    +0.060 A 
ATOM      3  C   LIG    1      -38.933  79.457  26.563  0.00  0.00    +0.157 A 
ATOM      4  N   LIG    1      -39.784  80.459  26.881  0.00  0.00    -0.236 NA
ATOM      5  C   LIG    1      -39.575  81.106  28.048  0.00  0.00    +0.114 A 
ATOM      6  C   LIG    1      -38.509  80.840  28.888  0.00  0.00    +0.031 A 
ENDROOT
BRANCH   1   7
ATOM      7  C   LIG    1      -36.450  79.534  29.399  0.00  0.00    +0.195 C 
ATOM      8  O   LIG    1      -36.323  80.192  30.423  0.00  0.00    -0.287 OA
BRANCH   7  16
ATOM      9  N   LIG    1      -34.524  76.448  28.853  0.00  0.00    -0.343 N 
ATOM     10  C   LIG    1      -33.796  77.311  28.054  0.00  0.00    +0.053 A 
ATOM     11  C   LIG    1      -32.655  77.116  27.269  0.00  0.00    +0.046 A 
ATOM     12  C   LIG    1      -32.213  78.227  26.567  0.00  0.00    +0.113 A 
ATOM     13  N   LIG    1      -32.808  79.436  26.582  0.00  0.00    -0.263 NA
ATOM     14  C   LIG    1      -33.915  79.610  27.342  0.00  0.00    +0.121 A 
ATOM     15  C   LIG    1      -34.428  78.561  28.118  0.00  0.00    +0.029 A 
ATOM     16  C   LIG    1      -35.514  78.457  29.048  0.00  0.00    +0.049 A 
ATOM     17  C   LIG    1      -35.510  77.153  29.504  0.00  0.00    +0.099 A 
BRANCH   9  19
ATOM     18  C   LIG    1      -34.408  74.508  30.389  0.00  0.00    +0.030 C 
ATOM     19  C   LIG    1      -34.310  74.999  28.946  0.00  0.00    +0.081 C 
ATOM     20  C   LIG    1      -35.246  74.199  28.031  0.00  0.00    +0.030 C 
ENDBRANCH   9  19
ENDBRANCH   7  16
ENDBRANCH   1   7
BRANCH   3  21
ATOM     21  N   LIG    1      -39.210  78.714  25.416  0.00  0.00    -0.197 NA
ATOM     22  C   LIG    1      -40.150  77.826  25.393  0.00  0.00    +0.193 C 
BRANCH  22  23
ATOM     23  O   LIG    1      -40.965  77.550  26.432  0.00  0.00    -0.495 OA
ATOM     24  H   LIG    1      -40.642  78.035  27.218  0.00  0.00    +0.293 HD
ENDBRANCH  22  23
BRANCH  22  25
ATOM     25  C   LIG    1      -40.441  76.985  24.180  0.00  0.00    +0.130 C 
BRANCH  25  26
ATOM     26  C   LIG    1      -39.861  75.593  24.283  0.00  0.00    -0.036 A 
ATOM     27  C   LIG    1      -40.581  74.487  23.813  0.00  0.00    +0.043 A 
ATOM     28  C   LIG    1      -40.046  73.204  23.923  0.00  0.00    +0.135 A 
ATOM     29  F   LIG    1      -40.759  72.168  23.457  0.00  0.00    -0.205 F 
ATOM     30  C   LIG    1      -38.800  72.984  24.501  0.00  0.00    +0.090 A 
ATOM     31  C   LIG    1      -38.080  74.089  24.978  0.00  0.00    +0.015 A 
ATOM     32  C   LIG    1      -38.608  75.380  24.873  0.00  0.00    +0.005 A 
BRANCH  30  33
ATOM     33  C   LIG    1      -38.273  71.584  24.596  0.00  0.00    +0.420 C 
ATOM     34  F   LIG    1      -36.919  71.534  24.725  0.00  0.00    -0.166 F 
ATOM     35  F   LIG    1      -38.581  70.823  23.510  0.00  0.00    -0.166 F 
ATOM     36  F   LIG    1      -38.765  70.901  25.671  0.00  0.00    -0.166 F 
ENDBRANCH  30  33
ENDBRANCH  25  26
ENDBRANCH  22  25
ENDBRANCH   3  21
TORSDOF 8
ENDMDL
