MODEL 1
REMARK VINA RESULT:      -6.5      0.000      0.000
REMARK  Name = pdb/CHEMBL3912700.pdb
REMARK                            x       y       z     vdW  Elec       q    Type
REMARK                         _______ _______ _______ _____ _____    ______ ____
ROOT
ATOM      1  C   LIG    1      -23.099  80.979  15.567  0.00  0.00    +0.042 A 
ATOM      2  C   LIG    1      -22.451  79.727  15.515  0.00  0.00    +0.042 A 
ATOM      3  C   LIG    1      -23.110  78.585  15.016  0.00  0.00    +0.086 A 
ATOM      4  C   LIG    1      -24.421  78.800  14.585  0.00  0.00    +0.138 A 
ATOM      5  N   LIG    1      -25.071  79.992  14.588  0.00  0.00    -0.260 NA
ATOM      6  C   LIG    1      -24.385  81.052  15.058  0.00  0.00    +0.122 A 
ENDROOT
BRANCH   1   7
ATOM      7  C   LIG    1      -22.424  82.202  16.087  0.00  0.00    +0.197 C 
ATOM      8  O   LIG    1      -22.449  82.409  17.312  0.00  0.00    -0.287 OA
BRANCH   7  17
ATOM      9  N   LIG    1      -21.248  85.006  13.979  0.00  0.00    -0.336 N 
ATOM     10  C   LIG    1      -20.277  84.062  13.649  0.00  0.00    +0.089 A 
ATOM     11  C   LIG    1      -19.192  84.053  12.756  0.00  0.00    +0.165 A 
ATOM     12  F   LIG    1      -18.927  85.060  11.916  0.00  0.00    -0.202 F 
ATOM     13  C   LIG    1      -18.366  82.939  12.761  0.00  0.00    +0.151 A 
ATOM     14  N   LIG    1      -18.539  81.861  13.552  0.00  0.00    -0.260 NA
ATOM     15  C   LIG    1      -19.610  81.836  14.382  0.00  0.00    +0.121 A 
ATOM     16  C   LIG    1      -20.512  82.917  14.446  0.00  0.00    +0.032 A 
ATOM     17  C   LIG    1      -21.731  83.125  15.173  0.00  0.00    +0.049 A 
ATOM     18  C   LIG    1      -22.114  84.417  14.883  0.00  0.00    +0.099 A 
BRANCH   9  20
ATOM     19  C   LIG    1      -22.561  87.152  14.223  0.00  0.00    +0.036 C 
ATOM     20  C   LIG    1      -21.367  86.425  13.527  0.00  0.00    +0.063 C 
ATOM     21  C   LIG    1      -21.641  86.510  12.010  0.00  0.00    +0.036 C 
BRANCH  20  22
ATOM     22  C   LIG    1      -20.089  87.243  13.863  0.00  0.00    +0.183 C 
BRANCH  22  23
ATOM     23  O   LIG    1      -19.983  87.470  15.274  0.00  0.00    -0.393 OA
ATOM     24  H   LIG    1      -19.115  87.874  15.445  0.00  0.00    +0.209 HD
ENDBRANCH  22  23
ENDBRANCH  20  22
ENDBRANCH   9  20
ENDBRANCH   7  17
ENDBRANCH   1   7
BRANCH   3  25
ATOM     25  N   LIG    1      -22.408  77.351  15.012  0.00  0.00    -0.214 NA
ATOM     26  C   LIG    1      -22.960  76.185  14.853  0.00  0.00    +0.210 C 
BRANCH  26  27
ATOM     27  O   LIG    1      -24.282  76.013  14.641  0.00  0.00    -0.494 OA
ATOM     28  H   LIG    1      -24.839  76.198  15.426  0.00  0.00    +0.293 HD
ENDBRANCH  26  27
BRANCH  26  29
ATOM     29  C   LIG    1      -22.142  74.915  14.874  0.00  0.00    +0.238 C 
BRANCH  29  30
ATOM     30  N   LIG    1      -22.236  74.234  16.156  0.00  0.00    -0.262 N 
ATOM     31  N   LIG    1      -23.286  74.499  16.965  0.00  0.00    -0.179 NA
ATOM     32  C   LIG    1      -23.063  73.732  18.037  0.00  0.00    +0.146 A 
ATOM     33  C   LIG    1      -21.812  73.083  17.984  0.00  0.00    +0.092 A 
ATOM     34  C   LIG    1      -21.281  73.478  16.767  0.00  0.00    +0.121 A 
BRANCH  33  35
ATOM     35  C   LIG    1      -21.239  72.188  19.015  0.00  0.00    +0.420 C 
ATOM     36  F   LIG    1      -22.062  72.076  20.088  0.00  0.00    -0.166 F 
ATOM     37  F   LIG    1      -20.047  72.644  19.476  0.00  0.00    -0.166 F 
ATOM     38  F   LIG    1      -21.029  70.934  18.544  0.00  0.00    -0.166 F 
ENDBRANCH  33  35
ENDBRANCH  29  30
ENDBRANCH  26  29
ENDBRANCH   3  25
TORSDOF 10
ENDMDL
MODEL 2
REMARK VINA RESULT:      -6.3     21.337     23.743
REMARK  Name = pdb/CHEMBL3912700.pdb
REMARK                            x       y       z     vdW  Elec       q    Type
REMARK                         _______ _______ _______ _____ _____    ______ ____
ROOT
ATOM      1  C   LIG    1      -27.569  89.140  35.519  0.00  0.00    +0.042 A 
ATOM      2  C   LIG    1      -26.347  89.716  35.928  0.00  0.00    +0.042 A 
ATOM      3  C   LIG    1      -26.290  91.038  36.415  0.00  0.00    +0.086 A 
ATOM      4  C   LIG    1      -27.516  91.705  36.458  0.00  0.00    +0.138 A 
ATOM      5  N   LIG    1      -28.718  91.180  36.105  0.00  0.00    -0.260 NA
ATOM      6  C   LIG    1      -28.714  89.906  35.666  0.00  0.00    +0.122 A 
ENDROOT
BRANCH   1   7
ATOM      7  C   LIG    1      -27.657  87.745  35.004  0.00  0.00    +0.197 C 
ATOM      8  O   LIG    1      -26.681  86.996  35.173  0.00  0.00    -0.287 OA
BRANCH   7  17
ATOM      9  N   LIG    1      -30.442  86.916  32.714  0.00  0.00    -0.336 N 
ATOM     10  C   LIG    1      -30.916  86.294  33.868  0.00  0.00    +0.089 A 
ATOM     11  C   LIG    1      -32.097  85.604  34.186  0.00  0.00    +0.165 A 
ATOM     12  F   LIG    1      -33.124  85.481  33.337  0.00  0.00    -0.202 F 
ATOM     13  C   LIG    1      -32.185  85.028  35.445  0.00  0.00    +0.151 A 
ATOM     14  N   LIG    1      -31.223  85.096  36.387  0.00  0.00    -0.260 NA
ATOM     15  C   LIG    1      -30.099  85.800  36.109  0.00  0.00    +0.121 A 
ATOM     16  C   LIG    1      -29.917  86.429  34.861  0.00  0.00    +0.032 A 
ATOM     17  C   LIG    1      -28.878  87.266  34.335  0.00  0.00    +0.049 A 
ATOM     18  C   LIG    1      -29.227  87.502  33.023  0.00  0.00    +0.099 A 
BRANCH   9  20
ATOM     19  C   LIG    1      -32.400  87.725  31.332  0.00  0.00    +0.036 C 
ATOM     20  C   LIG    1      -31.047  86.943  31.347  0.00  0.00    +0.063 C 
ATOM     21  C   LIG    1      -31.372  85.518  30.849  0.00  0.00    +0.036 C 
BRANCH  20  22
ATOM     22  C   LIG    1      -30.114  87.644  30.322  0.00  0.00    +0.183 C 
BRANCH  22  23
ATOM     23  O   LIG    1      -30.727  88.829  29.799  0.00  0.00    -0.393 OA
ATOM     24  H   LIG    1      -30.383  89.588  30.301  0.00  0.00    +0.209 HD
ENDBRANCH  22  23
ENDBRANCH  20  22
ENDBRANCH   9  20
ENDBRANCH   7  17
ENDBRANCH   1   7
BRANCH   3  25
ATOM     25  N   LIG    1      -25.025  91.563  36.789  0.00  0.00    -0.214 NA
ATOM     26  C   LIG    1      -24.193  92.140  35.975  0.00  0.00    +0.210 C 
BRANCH  26  27
ATOM     27  O   LIG    1      -24.451  92.335  34.664  0.00  0.00    -0.494 OA
ATOM     28  H   LIG    1      -24.967  91.613  34.248  0.00  0.00    +0.293 HD
ENDBRANCH  26  27
BRANCH  26  29
ATOM     29  C   LIG    1      -22.857  92.662  36.452  0.00  0.00    +0.238 C 
BRANCH  29  30
ATOM     30  N   LIG    1      -21.761  91.806  36.028  0.00  0.00    -0.262 N 
ATOM     31  N   LIG    1      -22.040  90.591  35.506  0.00  0.00    -0.179 NA
ATOM     32  C   LIG    1      -20.836  90.075  35.239  0.00  0.00    +0.146 A 
ATOM     33  C   LIG    1      -19.785  90.889  35.710  0.00  0.00    +0.092 A 
ATOM     34  C   LIG    1      -20.430  91.981  36.265  0.00  0.00    +0.121 A 
BRANCH  33  35
ATOM     35  C   LIG    1      -18.336  90.603  35.609  0.00  0.00    +0.420 C 
ATOM     36  F   LIG    1      -17.998  89.493  36.313  0.00  0.00    -0.166 F 
ATOM     37  F   LIG    1      -17.583  91.623  36.093  0.00  0.00    -0.166 F 
ATOM     38  F   LIG    1      -17.944  90.394  34.328  0.00  0.00    -0.166 F 
ENDBRANCH  33  35
ENDBRANCH  29  30
ENDBRANCH  26  29
ENDBRANCH   3  25
TORSDOF 10
ENDMDL
MODEL 3
REMARK VINA RESULT:      -6.2     16.534     20.142
REMARK  Name = pdb/CHEMBL3912700.pdb
REMARK                            x       y       z     vdW  Elec       q    Type
REMARK                         _______ _______ _______ _____ _____    ______ ____
ROOT
ATOM      1  C   LIG    1      -20.701  76.872  30.682  0.00  0.00    +0.042 A 
ATOM      2  C   LIG    1      -20.834  77.900  31.639  0.00  0.00    +0.042 A 
ATOM      3  C   LIG    1      -19.710  78.415  32.318  0.00  0.00    +0.086 A 
ATOM      4  C   LIG    1      -18.489  77.836  31.964  0.00  0.00    +0.138 A 
ATOM      5  N   LIG    1      -18.312  76.869  31.026  0.00  0.00    -0.260 NA
ATOM      6  C   LIG    1      -19.419  76.430  30.396  0.00  0.00    +0.122 A 
ENDROOT
BRANCH   1   7
ATOM      7  C   LIG    1      -21.871  76.313  29.948  0.00  0.00    +0.197 C 
ATOM      8  O   LIG    1      -21.866  76.372  28.707  0.00  0.00    -0.287 OA
BRANCH   7  17
ATOM      9  N   LIG    1      -24.195  74.159  31.857  0.00  0.00    -0.336 N 
ATOM     10  C   LIG    1      -25.035  75.250  31.643  0.00  0.00    +0.089 A 
ATOM     11  C   LIG    1      -26.379  75.519  31.952  0.00  0.00    +0.165 A 
ATOM     12  F   LIG    1      -27.195  74.620  32.513  0.00  0.00    -0.202 F 
ATOM     13  C   LIG    1      -26.864  76.784  31.656  0.00  0.00    +0.151 A 
ATOM     14  N   LIG    1      -26.142  77.767  31.081  0.00  0.00    -0.260 NA
ATOM     15  C   LIG    1      -24.859  77.504  30.734  0.00  0.00    +0.121 A 
ATOM     16  C   LIG    1      -24.275  76.246  30.986  0.00  0.00    +0.032 A 
ATOM     17  C   LIG    1      -22.989  75.691  30.677  0.00  0.00    +0.049 A 
ATOM     18  C   LIG    1      -22.980  74.441  31.258  0.00  0.00    +0.099 A 
BRANCH   9  20
ATOM     19  C   LIG    1      -24.826  73.211  34.114  0.00  0.00    +0.036 C 
ATOM     20  C   LIG    1      -24.464  72.906  32.626  0.00  0.00    +0.063 C 
ATOM     21  C   LIG    1      -23.218  71.994  32.667  0.00  0.00    +0.036 C 
BRANCH  20  22
ATOM     22  C   LIG    1      -25.660  72.113  32.029  0.00  0.00    +0.183 C 
BRANCH  22  23
ATOM     23  O   LIG    1      -25.583  72.068  30.599  0.00  0.00    -0.393 OA
ATOM     24  H   LIG    1      -25.974  72.889  30.255  0.00  0.00    +0.209 HD
ENDBRANCH  22  23
ENDBRANCH  20  22
ENDBRANCH   9  20
ENDBRANCH   7  17
ENDBRANCH   1   7
BRANCH   3  25
ATOM     25  N   LIG    1      -19.916  79.433  33.286  0.00  0.00    -0.214 NA
ATOM     26  C   LIG    1      -20.351  79.229  34.493  0.00  0.00    +0.210 C 
BRANCH  26  27
ATOM     27  O   LIG    1      -20.633  78.004  34.984  0.00  0.00    -0.494 OA
ATOM     28  H   LIG    1      -21.366  77.994  35.634  0.00  0.00    +0.293 HD
ENDBRANCH  26  27
BRANCH  26  29
ATOM     29  C   LIG    1      -20.555  80.372  35.461  0.00  0.00    +0.238 C 
BRANCH  29  30
ATOM     30  N   LIG    1      -21.966  80.613  35.720  0.00  0.00    -0.262 N 
ATOM     31  N   LIG    1      -22.890  79.874  35.066  0.00  0.00    -0.179 NA
ATOM     32  C   LIG    1      -24.055  80.348  35.519  0.00  0.00    +0.146 A 
ATOM     33  C   LIG    1      -23.891  81.475  36.352  0.00  0.00    +0.092 A 
ATOM     34  C   LIG    1      -22.518  81.648  36.414  0.00  0.00    +0.121 A 
BRANCH  33  35
ATOM     35  C   LIG    1      -24.969  82.260  36.993  0.00  0.00    +0.420 C 
ATOM     36  F   LIG    1      -26.171  81.640  36.880  0.00  0.00    -0.166 F 
ATOM     37  F   LIG    1      -25.103  83.489  36.434  0.00  0.00    -0.166 F 
ATOM     38  F   LIG    1      -24.745  82.450  38.317  0.00  0.00    -0.166 F 
ENDBRANCH  33  35
ENDBRANCH  29  30
ENDBRANCH  26  29
ENDBRANCH   3  25
TORSDOF 10
ENDMDL
MODEL 4
REMARK VINA RESULT:      -6.2     18.492     21.437
REMARK  Name = pdb/CHEMBL3912700.pdb
REMARK                            x       y       z     vdW  Elec       q    Type
REMARK                         _______ _______ _______ _____ _____    ______ ____
ROOT
ATOM      1  C   LIG    1      -22.931  80.063  36.244  0.00  0.00    +0.042 A 
ATOM      2  C   LIG    1      -24.238  80.594  36.262  0.00  0.00    +0.042 A 
ATOM      3  C   LIG    1      -24.471  81.949  36.578  0.00  0.00    +0.086 A 
ATOM      4  C   LIG    1      -23.325  82.696  36.858  0.00  0.00    +0.138 A 
ATOM      5  N   LIG    1      -22.048  82.234  36.821  0.00  0.00    -0.260 NA
ATOM      6  C   LIG    1      -21.885  80.937  36.494  0.00  0.00    +0.122 A 
ENDROOT
BRANCH   1   7
ATOM      7  C   LIG    1      -22.657  78.637  35.911  0.00  0.00    +0.197 C 
ATOM      8  O   LIG    1      -22.556  77.826  36.847  0.00  0.00    -0.287 OA
BRANCH   7  17
ATOM      9  N   LIG    1      -23.066  77.311  32.481  0.00  0.00    -0.336 N 
ATOM     10  C   LIG    1      -21.736  77.722  32.400  0.00  0.00    +0.089 A 
ATOM     11  C   LIG    1      -20.753  77.641  31.400  0.00  0.00    +0.165 A 
ATOM     12  F   LIG    1      -20.941  77.006  30.238  0.00  0.00    -0.202 F 
ATOM     13  C   LIG    1      -19.534  78.255  31.648  0.00  0.00    +0.151 A 
ATOM     14  N   LIG    1      -19.224  78.912  32.783  0.00  0.00    -0.260 NA
ATOM     15  C   LIG    1      -20.148  78.956  33.774  0.00  0.00    +0.121 A 
ATOM     16  C   LIG    1      -21.414  78.355  33.623  0.00  0.00    +0.032 A 
ATOM     17  C   LIG    1      -22.531  78.203  34.510  0.00  0.00    +0.049 A 
ATOM     18  C   LIG    1      -23.515  77.598  33.759  0.00  0.00    +0.099 A 
BRANCH   9  20
ATOM     19  C   LIG    1      -25.395  76.505  31.917  0.00  0.00    +0.036 C 
ATOM     20  C   LIG    1      -23.930  76.716  31.417  0.00  0.00    +0.063 C 
ATOM     21  C   LIG    1      -23.419  75.323  30.992  0.00  0.00    +0.036 C 
BRANCH  20  22
ATOM     22  C   LIG    1      -24.014  77.636  30.167  0.00  0.00    +0.183 C 
BRANCH  22  23
ATOM     23  O   LIG    1      -25.243  77.431  29.461  0.00  0.00    -0.393 OA
ATOM     24  H   LIG    1      -25.873  77.017  30.076  0.00  0.00    +0.209 HD
ENDBRANCH  22  23
ENDBRANCH  20  22
ENDBRANCH   9  20
ENDBRANCH   7  17
ENDBRANCH   1   7
BRANCH   3  25
ATOM     25  N   LIG    1      -25.812  82.413  36.600  0.00  0.00    -0.214 NA
ATOM     26  C   LIG    1      -26.496  82.650  37.679  0.00  0.00    +0.210 C 
BRANCH  26  27
ATOM     27  O   LIG    1      -25.993  82.507  38.923  0.00  0.00    -0.494 OA
ATOM     28  H   LIG    1      -26.539  82.920  39.624  0.00  0.00    +0.293 HD
ENDBRANCH  26  27
BRANCH  26  29
ATOM     29  C   LIG    1      -27.927  83.132  37.616  0.00  0.00    +0.238 C 
BRANCH  29  30
ATOM     30  N   LIG    1      -28.111  84.139  36.582  0.00  0.00    -0.262 N 
ATOM     31  N   LIG    1      -28.896  83.854  35.520  0.00  0.00    -0.179 NA
ATOM     32  C   LIG    1      -28.841  84.963  34.776  0.00  0.00    +0.146 A 
ATOM     33  C   LIG    1      -27.920  85.904  35.281  0.00  0.00    +0.092 A 
ATOM     34  C   LIG    1      -27.426  85.307  36.429  0.00  0.00    +0.121 A 
BRANCH  33  35
ATOM     35  C   LIG    1      -27.591  87.220  34.688  0.00  0.00    +0.420 C 
ATOM     36  F   LIG    1      -27.453  87.138  33.341  0.00  0.00    -0.166 F 
ATOM     37  F   LIG    1      -26.427  87.719  35.175  0.00  0.00    -0.166 F 
ATOM     38  F   LIG    1      -28.552  88.146  34.932  0.00  0.00    -0.166 F 
ENDBRANCH  33  35
ENDBRANCH  29  30
ENDBRANCH  26  29
ENDBRANCH   3  25
TORSDOF 10
ENDMDL
MODEL 5
REMARK VINA RESULT:      -6.1     18.737     19.778
REMARK  Name = pdb/CHEMBL3912700.pdb
REMARK                            x       y       z     vdW  Elec       q    Type
REMARK                         _______ _______ _______ _____ _____    ______ ____
ROOT
ATOM      1  C   LIG    1      -35.580  82.169  28.262  0.00  0.00    +0.042 A 
ATOM      2  C   LIG    1      -35.569  80.908  27.629  0.00  0.00    +0.042 A 
ATOM      3  C   LIG    1      -35.035  79.772  28.273  0.00  0.00    +0.086 A 
ATOM      4  C   LIG    1      -34.537  80.001  29.558  0.00  0.00    +0.138 A 
ATOM      5  N   LIG    1      -34.556  81.189  30.216  0.00  0.00    -0.260 NA
ATOM      6  C   LIG    1      -35.096  82.234  29.560  0.00  0.00    +0.122 A 
ENDROOT
BRANCH   1   7
ATOM      7  C   LIG    1      -36.140  83.383  27.606  0.00  0.00    +0.197 C 
ATOM      8  O   LIG    1      -35.776  84.495  28.024  0.00  0.00    -0.287 OA
BRANCH   7  17
ATOM      9  N   LIG    1      -38.667  82.397  25.090  0.00  0.00    -0.336 N 
ATOM     10  C   LIG    1      -38.300  83.632  24.559  0.00  0.00    +0.089 A 
ATOM     11  C   LIG    1      -38.664  84.340  23.401  0.00  0.00    +0.165 A 
ATOM     12  F   LIG    1      -39.475  83.840  22.462  0.00  0.00    -0.202 F 
ATOM     13  C   LIG    1      -38.148  85.618  23.242  0.00  0.00    +0.151 A 
ATOM     14  N   LIG    1      -37.314  86.221  24.112  0.00  0.00    -0.260 NA
ATOM     15  C   LIG    1      -36.918  85.530  25.208  0.00  0.00    +0.121 A 
ATOM     16  C   LIG    1      -37.380  84.222  25.457  0.00  0.00    +0.032 A 
ATOM     17  C   LIG    1      -37.083  83.263  26.482  0.00  0.00    +0.049 A 
ATOM     18  C   LIG    1      -37.915  82.193  26.234  0.00  0.00    +0.099 A 
BRANCH   9  20
ATOM     19  C   LIG    1      -41.127  82.092  24.592  0.00  0.00    +0.036 C 
ATOM     20  C   LIG    1      -39.708  81.440  24.606  0.00  0.00    +0.063 C 
ATOM     21  C   LIG    1      -39.812  80.208  25.531  0.00  0.00    +0.036 C 
BRANCH  20  22
ATOM     22  C   LIG    1      -39.420  80.967  23.153  0.00  0.00    +0.183 C 
BRANCH  22  23
ATOM     23  O   LIG    1      -39.353  79.538  23.083  0.00  0.00    -0.393 OA
ATOM     24  H   LIG    1      -39.763  79.263  22.245  0.00  0.00    +0.209 HD
ENDBRANCH  22  23
ENDBRANCH  20  22
ENDBRANCH   9  20
ENDBRANCH   7  17
ENDBRANCH   1   7
BRANCH   3  25
ATOM     25  N   LIG    1      -35.036  78.538  27.571  0.00  0.00    -0.214 NA
ATOM     26  C   LIG    1      -35.951  77.623  27.683  0.00  0.00    +0.210 C 
BRANCH  26  27
ATOM     27  O   LIG    1      -37.039  77.754  28.470  0.00  0.00    -0.494 OA
ATOM     28  H   LIG    1      -36.954  78.449  29.156  0.00  0.00    +0.293 HD
ENDBRANCH  26  27
BRANCH  26  29
ATOM     29  C   LIG    1      -35.871  76.329  26.907  0.00  0.00    +0.238 C 
BRANCH  29  30
ATOM     30  N   LIG    1      -37.041  76.131  26.065  0.00  0.00    -0.262 N 
ATOM     31  N   LIG    1      -37.671  77.211  25.552  0.00  0.00    -0.179 NA
ATOM     32  C   LIG    1      -38.683  76.687  24.854  0.00  0.00    +0.146 A 
ATOM     33  C   LIG    1      -38.790  75.291  25.027  0.00  0.00    +0.092 A 
ATOM     34  C   LIG    1      -37.735  74.975  25.866  0.00  0.00    +0.121 A 
BRANCH  33  35
ATOM     35  C   LIG    1      -39.814  74.405  24.426  0.00  0.00    +0.420 C 
ATOM     36  F   LIG    1      -40.729  74.008  25.346  0.00  0.00    -0.166 F 
ATOM     37  F   LIG    1      -39.265  73.281  23.902  0.00  0.00    -0.166 F 
ATOM     38  F   LIG    1      -40.496  75.017  23.427  0.00  0.00    -0.166 F 
ENDBRANCH  33  35
ENDBRANCH  29  30
ENDBRANCH  26  29
ENDBRANCH   3  25
TORSDOF 10
ENDMDL
MODEL 6
REMARK VINA RESULT:      -6.0      2.234      3.050
REMARK  Name = pdb/CHEMBL3912700.pdb
REMARK                            x       y       z     vdW  Elec       q    Type
REMARK                         _______ _______ _______ _____ _____    ______ ____
ROOT
ATOM      1  C   LIG    1      -20.836  82.023  14.916  0.00  0.00    +0.042 A 
ATOM      2  C   LIG    1      -20.546  80.652  14.747  0.00  0.00    +0.042 A 
ATOM      3  C   LIG    1      -21.119  79.677  15.589  0.00  0.00    +0.086 A 
ATOM      4  C   LIG    1      -21.977  80.174  16.572  0.00  0.00    +0.138 A 
ATOM      5  N   LIG    1      -22.308  81.480  16.750  0.00  0.00    -0.260 NA
ATOM      6  C   LIG    1      -21.746  82.365  15.903  0.00  0.00    +0.122 A 
ENDROOT
BRANCH   1   7
ATOM      7  C   LIG    1      -20.247  83.074  14.038  0.00  0.00    +0.197 C 
ATOM      8  O   LIG    1      -19.061  82.950  13.692  0.00  0.00    -0.287 OA
BRANCH   7  17
ATOM      9  N   LIG    1      -21.744  86.359  13.227  0.00  0.00    -0.336 N 
ATOM     10  C   LIG    1      -22.717  85.531  12.669  0.00  0.00    +0.089 A 
ATOM     11  C   LIG    1      -23.949  85.768  12.037  0.00  0.00    +0.165 A 
ATOM     12  F   LIG    1      -24.490  86.986  11.920  0.00  0.00    -0.202 F 
ATOM     13  C   LIG    1      -24.623  84.674  11.515  0.00  0.00    +0.151 A 
ATOM     14  N   LIG    1      -24.185  83.401  11.583  0.00  0.00    -0.260 NA
ATOM     15  C   LIG    1      -23.021  83.154  12.233  0.00  0.00    +0.121 A 
ATOM     16  C   LIG    1      -22.266  84.197  12.804  0.00  0.00    +0.032 A 
ATOM     17  C   LIG    1      -21.059  84.213  13.581  0.00  0.00    +0.049 A 
ATOM     18  C   LIG    1      -20.769  85.546  13.778  0.00  0.00    +0.099 A 
BRANCH   9  20
ATOM     19  C   LIG    1      -21.909  88.436  11.795  0.00  0.00    +0.036 C 
ATOM     20  C   LIG    1      -21.668  87.851  13.224  0.00  0.00    +0.063 C 
ATOM     21  C   LIG    1      -20.269  88.343  13.656  0.00  0.00    +0.036 C 
BRANCH  20  22
ATOM     22  C   LIG    1      -22.743  88.482  14.151  0.00  0.00    +0.183 C 
BRANCH  22  23
ATOM     23  O   LIG    1      -22.281  88.539  15.506  0.00  0.00    -0.393 OA
ATOM     24  H   LIG    1      -22.987  88.186  16.075  0.00  0.00    +0.209 HD
ENDBRANCH  22  23
ENDBRANCH  20  22
ENDBRANCH   9  20
ENDBRANCH   7  17
ENDBRANCH   1   7
BRANCH   3  25
ATOM     25  N   LIG    1      -20.768  78.317  15.379  0.00  0.00    -0.214 NA
ATOM     26  C   LIG    1      -21.528  77.438  14.797  0.00  0.00    +0.210 C 
BRANCH  26  27
ATOM     27  O   LIG    1      -22.745  77.727  14.291  0.00  0.00    -0.494 OA
ATOM     28  H   LIG    1      -22.857  77.472  13.352  0.00  0.00    +0.293 HD
ENDBRANCH  26  27
BRANCH  26  29
ATOM     29  C   LIG    1      -21.083  76.004  14.623  0.00  0.00    +0.238 C 
BRANCH  29  30
ATOM     30  N   LIG    1      -21.637  75.139  15.654  0.00  0.00    -0.262 N 
ATOM     31  N   LIG    1      -22.950  75.237  15.957  0.00  0.00    -0.179 NA
ATOM     32  C   LIG    1      -23.121  74.332  16.926  0.00  0.00    +0.146 A 
ATOM     33  C   LIG    1      -21.904  73.752  17.342  0.00  0.00    +0.092 A 
ATOM     34  C   LIG    1      -20.955  74.344  16.526  0.00  0.00    +0.121 A 
BRANCH  33  35
ATOM     35  C   LIG    1      -21.730  72.742  18.410  0.00  0.00    +0.420 C 
ATOM     36  F   LIG    1      -22.629  72.916  19.411  0.00  0.00    -0.166 F 
ATOM     37  F   LIG    1      -20.496  72.806  18.971  0.00  0.00    -0.166 F 
ATOM     38  F   LIG    1      -21.890  71.477  17.949  0.00  0.00    -0.166 F 
ENDBRANCH  33  35
ENDBRANCH  29  30
ENDBRANCH  26  29
ENDBRANCH   3  25
TORSDOF 10
ENDMDL
MODEL 7
REMARK VINA RESULT:      -6.0      2.040      2.504
REMARK  Name = pdb/CHEMBL3912700.pdb
REMARK                            x       y       z     vdW  Elec       q    Type
REMARK                         _______ _______ _______ _____ _____    ______ ____
ROOT
ATOM      1  C   LIG    1      -23.225  81.911  14.523  0.00  0.00    +0.042 A 
ATOM      2  C   LIG    1      -23.526  80.535  14.450  0.00  0.00    +0.042 A 
ATOM      3  C   LIG    1      -23.211  79.662  15.512  0.00  0.00    +0.086 A 
ATOM      4  C   LIG    1      -22.597  80.265  16.612  0.00  0.00    +0.138 A 
ATOM      5  N   LIG    1      -22.319  81.589  16.737  0.00  0.00    -0.260 NA
ATOM      6  C   LIG    1      -22.660  82.378  15.700  0.00  0.00    +0.122 A 
ENDROOT
BRANCH   1   7
ATOM      7  C   LIG    1      -23.550  82.856  13.418  0.00  0.00    +0.197 C 
ATOM      8  O   LIG    1      -24.566  82.634  12.738  0.00  0.00    -0.287 OA
BRANCH   7  17
ATOM      9  N   LIG    1      -21.734  86.079  13.402  0.00  0.00    -0.336 N 
ATOM     10  C   LIG    1      -21.224  85.535  12.225  0.00  0.00    +0.089 A 
ATOM     11  C   LIG    1      -20.346  86.008  11.235  0.00  0.00    +0.165 A 
ATOM     12  F   LIG    1      -19.850  87.251  11.229  0.00  0.00    -0.202 F 
ATOM     13  C   LIG    1      -19.986  85.130  10.224  0.00  0.00    +0.151 A 
ATOM     14  N   LIG    1      -20.429  83.861  10.118  0.00  0.00    -0.260 NA
ATOM     15  C   LIG    1      -21.314  83.409  11.039  0.00  0.00    +0.121 A 
ATOM     16  C   LIG    1      -21.748  84.227  12.101  0.00  0.00    +0.032 A 
ATOM     17  C   LIG    1      -22.700  84.029  13.157  0.00  0.00    +0.049 A 
ATOM     18  C   LIG    1      -22.625  85.164  13.935  0.00  0.00    +0.099 A 
BRANCH   9  20
ATOM     19  C   LIG    1      -21.839  88.597  13.196  0.00  0.00    +0.036 C 
ATOM     20  C   LIG    1      -21.391  87.376  14.061  0.00  0.00    +0.063 C 
ATOM     21  C   LIG    1      -19.866  87.524  14.251  0.00  0.00    +0.036 C 
BRANCH  20  22
ATOM     22  C   LIG    1      -22.096  87.523  15.438  0.00  0.00    +0.183 C 
BRANCH  22  23
ATOM     23  O   LIG    1      -22.460  88.886  15.686  0.00  0.00    -0.393 OA
ATOM     24  H   LIG    1      -23.359  88.890  16.056  0.00  0.00    +0.209 HD
ENDBRANCH  22  23
ENDBRANCH  20  22
ENDBRANCH   9  20
ENDBRANCH   7  17
ENDBRANCH   1   7
BRANCH   3  25
ATOM     25  N   LIG    1      -23.520  78.284  15.364  0.00  0.00    -0.214 NA
ATOM     26  C   LIG    1      -22.657  77.359  15.069  0.00  0.00    +0.210 C 
BRANCH  26  27
ATOM     27  O   LIG    1      -21.341  77.600  14.894  0.00  0.00    -0.494 OA
ATOM     28  H   LIG    1      -21.010  78.379  15.388  0.00  0.00    +0.293 HD
ENDBRANCH  26  27
BRANCH  26  29
ATOM     29  C   LIG    1      -23.071  75.913  14.918  0.00  0.00    +0.238 C 
BRANCH  29  30
ATOM     30  N   LIG    1      -22.382  75.053  15.867  0.00  0.00    -0.262 N 
ATOM     31  N   LIG    1      -21.064  74.810  15.697  0.00  0.00    -0.179 NA
ATOM     32  C   LIG    1      -20.757  73.996  16.712  0.00  0.00    +0.146 A 
ATOM     33  C   LIG    1      -21.892  73.605  17.451  0.00  0.00    +0.092 A 
ATOM     34  C   LIG    1      -22.938  74.272  16.836  0.00  0.00    +0.121 A 
BRANCH  33  35
ATOM     35  C   LIG    1      -21.914  72.689  18.614  0.00  0.00    +0.420 C 
ATOM     36  F   LIG    1      -22.876  73.038  19.504  0.00  0.00    -0.166 F 
ATOM     37  F   LIG    1      -20.734  72.693  19.284  0.00  0.00    -0.166 F 
ATOM     38  F   LIG    1      -22.158  71.406  18.249  0.00  0.00    -0.166 F 
ENDBRANCH  33  35
ENDBRANCH  29  30
ENDBRANCH  26  29
ENDBRANCH   3  25
TORSDOF 10
ENDMDL
MODEL 8
REMARK VINA RESULT:      -6.0      3.025     11.184
REMARK  Name = pdb/CHEMBL3912700.pdb
REMARK                            x       y       z     vdW  Elec       q    Type
REMARK                         _______ _______ _______ _____ _____    ______ ____
ROOT
ATOM      1  C   LIG    1      -19.593  77.526  15.500  0.00  0.00    +0.042 A 
ATOM      2  C   LIG    1      -20.673  78.432  15.526  0.00  0.00    +0.042 A 
ATOM      3  C   LIG    1      -20.490  79.776  15.913  0.00  0.00    +0.086 A 
ATOM      4  C   LIG    1      -19.180  80.120  16.253  0.00  0.00    +0.138 A 
ATOM      5  N   LIG    1      -18.106  79.289  16.211  0.00  0.00    -0.260 NA
ATOM      6  C   LIG    1      -18.338  78.023  15.815  0.00  0.00    +0.122 A 
ENDROOT
BRANCH   1   7
ATOM      7  C   LIG    1      -19.758  76.103  15.092  0.00  0.00    +0.197 C 
ATOM      8  O   LIG    1      -19.638  75.821  13.888  0.00  0.00    -0.287 OA
BRANCH   7  17
ATOM      9  N   LIG    1      -21.150  73.471  17.289  0.00  0.00    -0.336 N 
ATOM     10  C   LIG    1      -19.880  73.577  17.852  0.00  0.00    +0.089 A 
ATOM     11  C   LIG    1      -19.250  72.971  18.952  0.00  0.00    +0.165 A 
ATOM     12  F   LIG    1      -19.879  72.138  19.789  0.00  0.00    -0.202 F 
ATOM     13  C   LIG    1      -17.910  73.262  19.165  0.00  0.00    +0.151 A 
ATOM     14  N   LIG    1      -17.176  74.093  18.398  0.00  0.00    -0.260 NA
ATOM     15  C   LIG    1      -17.785  74.721  17.363  0.00  0.00    +0.121 A 
ATOM     16  C   LIG    1      -19.145  74.498  17.069  0.00  0.00    +0.032 A 
ATOM     17  C   LIG    1      -20.035  75.060  16.094  0.00  0.00    +0.049 A 
ATOM     18  C   LIG    1      -21.222  74.378  16.246  0.00  0.00    +0.099 A 
BRANCH   9  20
ATOM     19  C   LIG    1      -22.732  72.748  19.124  0.00  0.00    +0.036 C 
ATOM     20  C   LIG    1      -22.261  72.538  17.649  0.00  0.00    +0.063 C 
ATOM     21  C   LIG    1      -21.811  71.064  17.549  0.00  0.00    +0.036 C 
BRANCH  20  22
ATOM     22  C   LIG    1      -23.507  72.757  16.747  0.00  0.00    +0.183 C 
BRANCH  22  23
ATOM     23  O   LIG    1      -23.567  71.772  15.708  0.00  0.00    -0.393 OA
ATOM     24  H   LIG    1      -23.155  70.958  16.047  0.00  0.00    +0.209 HD
ENDBRANCH  22  23
ENDBRANCH  20  22
ENDBRANCH   9  20
ENDBRANCH   7  17
ENDBRANCH   1   7
BRANCH   3  25
ATOM     25  N   LIG    1      -21.625  80.629  15.939  0.00  0.00    -0.214 NA
ATOM     26  C   LIG    1      -21.979  81.420  14.970  0.00  0.00    +0.210 C 
BRANCH  26  27
ATOM     27  O   LIG    1      -21.316  81.500  13.797  0.00  0.00    -0.494 OA
ATOM     28  H   LIG    1      -21.209  80.639  13.341  0.00  0.00    +0.293 HD
ENDBRANCH  26  27
BRANCH  26  29
ATOM     29  C   LIG    1      -23.197  82.308  15.083  0.00  0.00    +0.238 C 
BRANCH  29  30
ATOM     30  N   LIG    1      -22.885  83.692  14.762  0.00  0.00    -0.262 N 
ATOM     31  N   LIG    1      -22.766  84.056  13.467  0.00  0.00    -0.179 NA
ATOM     32  C   LIG    1      -22.473  85.359  13.528  0.00  0.00    +0.146 A 
ATOM     33  C   LIG    1      -22.268  85.803  14.850  0.00  0.00    +0.092 A 
ATOM     34  C   LIG    1      -22.493  84.675  15.621  0.00  0.00    +0.121 A 
BRANCH  33  35
ATOM     35  C   LIG    1      -21.901  87.174  15.272  0.00  0.00    +0.420 C 
ATOM     36  F   LIG    1      -22.865  88.070  14.945  0.00  0.00    -0.166 F 
ATOM     37  F   LIG    1      -20.753  87.595  14.683  0.00  0.00    -0.166 F 
ATOM     38  F   LIG    1      -21.715  87.264  16.612  0.00  0.00    -0.166 F 
ENDBRANCH  33  35
ENDBRANCH  29  30
ENDBRANCH  26  29
ENDBRANCH   3  25
TORSDOF 10
ENDMDL
MODEL 9
REMARK VINA RESULT:      -6.0      4.610     12.016
REMARK  Name = pdb/CHEMBL3912700.pdb
REMARK                            x       y       z     vdW  Elec       q    Type
REMARK                         _______ _______ _______ _____ _____    ______ ____
ROOT
ATOM      1  C   LIG    1      -27.654  74.481  13.055  0.00  0.00    +0.042 A 
ATOM      2  C   LIG    1      -27.066  75.366  13.984  0.00  0.00    +0.042 A 
ATOM      3  C   LIG    1      -27.263  76.759  13.891  0.00  0.00    +0.086 A 
ATOM      4  C   LIG    1      -28.072  77.172  12.830  0.00  0.00    +0.138 A 
ATOM      5  N   LIG    1      -28.683  76.354  11.933  0.00  0.00    -0.260 NA
ATOM      6  C   LIG    1      -28.475  75.032  12.084  0.00  0.00    +0.122 A 
ENDROOT
BRANCH   1   7
ATOM      7  C   LIG    1      -27.465  73.006  13.133  0.00  0.00    +0.197 C 
ATOM      8  O   LIG    1      -27.372  72.370  12.069  0.00  0.00    -0.287 OA
BRANCH   7  17
ATOM      9  N   LIG    1      -27.994  71.272  16.358  0.00  0.00    -0.336 N 
ATOM     10  C   LIG    1      -26.606  71.396  16.402  0.00  0.00    +0.089 A 
ATOM     11  C   LIG    1      -25.630  71.064  17.356  0.00  0.00    +0.165 A 
ATOM     12  F   LIG    1      -25.924  70.577  18.566  0.00  0.00    -0.202 F 
ATOM     13  C   LIG    1      -24.301  71.258  17.007  0.00  0.00    +0.151 A 
ATOM     14  N   LIG    1      -23.883  71.753  15.825  0.00  0.00    -0.260 NA
ATOM     15  C   LIG    1      -24.818  72.122  14.915  0.00  0.00    +0.121 A 
ATOM     16  C   LIG    1      -26.194  71.973  15.177  0.00  0.00    +0.032 A 
ATOM     17  C   LIG    1      -27.371  72.327  14.436  0.00  0.00    +0.049 A 
ATOM     18  C   LIG    1      -28.429  71.848  15.178  0.00  0.00    +0.099 A 
BRANCH   9  20
ATOM     19  C   LIG    1      -28.495  69.119  17.586  0.00  0.00    +0.036 C 
ATOM     20  C   LIG    1      -28.907  70.605  17.336  0.00  0.00    +0.063 C 
ATOM     21  C   LIG    1      -30.358  70.565  16.812  0.00  0.00    +0.036 C 
BRANCH  20  22
ATOM     22  C   LIG    1      -28.881  71.314  18.719  0.00  0.00    +0.183 C 
BRANCH  22  23
ATOM     23  O   LIG    1      -29.250  72.693  18.595  0.00  0.00    -0.393 OA
ATOM     24  H   LIG    1      -30.221  72.741  18.593  0.00  0.00    +0.209 HD
ENDBRANCH  22  23
ENDBRANCH  20  22
ENDBRANCH   9  20
ENDBRANCH   7  17
ENDBRANCH   1   7
BRANCH   3  25
ATOM     25  N   LIG    1      -26.624  77.594  14.845  0.00  0.00    -0.214 NA
ATOM     26  C   LIG    1      -25.466  78.159  14.677  0.00  0.00    +0.210 C 
BRANCH  26  27
ATOM     27  O   LIG    1      -24.738  78.038  13.547  0.00  0.00    -0.494 OA
ATOM     28  H   LIG    1      -25.276  77.902  12.740  0.00  0.00    +0.293 HD
ENDBRANCH  26  27
BRANCH  26  29
ATOM     29  C   LIG    1      -24.849  79.026  15.750  0.00  0.00    +0.238 C 
BRANCH  29  30
ATOM     30  N   LIG    1      -24.408  80.307  15.220  0.00  0.00    -0.262 N 
ATOM     31  N   LIG    1      -25.014  80.808  14.121  0.00  0.00    -0.179 NA
ATOM     32  C   LIG    1      -24.375  81.961  13.903  0.00  0.00    +0.146 A 
ATOM     33  C   LIG    1      -23.275  82.139  14.767  0.00  0.00    +0.092 A 
ATOM     34  C   LIG    1      -23.297  81.014  15.574  0.00  0.00    +0.121 A 
BRANCH  33  35
ATOM     35  C   LIG    1      -22.337  83.285  14.775  0.00  0.00    +0.420 C 
ATOM     36  F   LIG    1      -22.213  83.834  13.540  0.00  0.00    -0.166 F 
ATOM     37  F   LIG    1      -21.093  82.919  15.172  0.00  0.00    -0.166 F 
ATOM     38  F   LIG    1      -22.745  84.273  15.609  0.00  0.00    -0.166 F 
ENDBRANCH  33  35
ENDBRANCH  29  30
ENDBRANCH  26  29
ENDBRANCH   3  25
TORSDOF 10
ENDMDL
