MODEL 1
REMARK VINA RESULT:      -6.5      0.000      0.000
REMARK  Name = pdb/CHEMBL3889913.pdb
REMARK                            x       y       z     vdW  Elec       q    Type
REMARK                         _______ _______ _______ _____ _____    ______ ____
ROOT
ATOM      1  C   LIG    1      -37.445  75.772  25.283  0.00  0.00    +0.251 C 
ATOM      2  N   LIG    1      -36.885  75.684  26.603  0.00  0.00    -0.266 N 
ATOM      3  H   LIG    1      -37.241  74.971  27.233  0.00  0.00    +0.157 HD
ATOM      4  O   LIG    1      -37.120  76.670  24.512  0.00  0.00    -0.270 OA
ENDROOT
BRANCH   1   7
ATOM      5  C   LIG    1      -38.694  72.290  24.545  0.00  0.00    +0.004 A 
ATOM      6  C   LIG    1      -37.901  73.387  24.918  0.00  0.00    +0.024 A 
ATOM      7  C   LIG    1      -38.376  74.715  24.841  0.00  0.00    +0.056 A 
ATOM      8  C   LIG    1      -39.661  74.963  24.355  0.00  0.00    +0.053 A 
ATOM      9 CL   LIG    1      -40.325  76.547  24.194  0.00  0.00    -0.083 Cl
ATOM     10  C   LIG    1      -40.458  73.892  23.954  0.00  0.00    +0.021 A 
ATOM     11  C   LIG    1      -39.977  72.581  24.046  0.00  0.00    +0.011 A 
BRANCH   5  14
ATOM     12  C   LIG    1      -37.213  69.105  23.565  0.00  0.00    +0.157 A 
ATOM     13  N   LIG    1      -37.648  70.381  23.550  0.00  0.00    -0.225 NA
ATOM     14  C   LIG    1      -38.227  70.889  24.670  0.00  0.00    +0.108 A 
ATOM     15  C   LIG    1      -38.382  70.113  25.818  0.00  0.00    +0.149 A 
ATOM     16  F   LIG    1      -38.943  70.606  26.932  0.00  0.00    -0.203 F 
ATOM     17  C   LIG    1      -37.979  68.785  25.809  0.00  0.00    +0.044 A 
ATOM     18  C   LIG    1      -37.398  68.268  24.658  0.00  0.00    +0.051 A 
BRANCH  12  21
ATOM     19  C   LIG    1      -38.707  68.340  21.079  0.00  0.00    +0.109 C 
ATOM     20  C   LIG    1      -37.233  68.272  21.364  0.00  0.00    +0.186 C 
ATOM     21  N   LIG    1      -36.586  68.596  22.431  0.00  0.00    -0.198 NA
BRANCH  20  22
ATOM     22  O   LIG    1      -36.501  67.852  20.308  0.00  0.00    -0.496 OA
ATOM     23  H   LIG    1      -35.935  68.541  19.929  0.00  0.00    +0.293 HD
ENDBRANCH  20  22
ENDBRANCH  12  21
ENDBRANCH   5  14
ENDBRANCH   1   7
BRANCH   2  24
ATOM     24  C   LIG    1      -35.952  76.589  27.117  0.00  0.00    +0.129 A 
ATOM     25  N   LIG    1      -36.186  77.875  27.610  0.00  0.00    -0.218 N 
ATOM     26  N   LIG    1      -35.019  78.552  27.811  0.00  0.00    -0.165 NA
ATOM     27  C   LIG    1      -34.055  77.629  27.650  0.00  0.00    +0.117 A 
ATOM     28  C   LIG    1      -34.591  76.410  27.190  0.00  0.00    +0.073 A 
BRANCH  25  29
ATOM     29  C   LIG    1      -37.428  78.490  27.927  0.00  0.00    +0.067 A 
ATOM     30  C   LIG    1      -38.250  79.019  26.921  0.00  0.00    +0.028 A 
ATOM     31  C   LIG    1      -39.489  79.574  27.256  0.00  0.00    +0.002 A 
ATOM     32  C   LIG    1      -39.904  79.620  28.587  0.00  0.00    +0.000 A 
ATOM     33  C   LIG    1      -39.092  79.090  29.587  0.00  0.00    +0.002 A 
ATOM     34  C   LIG    1      -37.865  78.508  29.260  0.00  0.00    +0.028 A 
ENDBRANCH  25  29
BRANCH  27  35
ATOM     35  C   LIG    1      -32.656  77.937  27.925  0.00  0.00    +0.225 C 
BRANCH  35  36
ATOM     36  O   LIG    1      -32.117  78.917  27.176  0.00  0.00    -0.365 OA
ATOM     37  H   LIG    1      -31.262  79.185  27.559  0.00  0.00    +0.212 HD
ENDBRANCH  35  36
BRANCH  35  38
ATOM     38  N   LIG    1      -31.948  77.354  28.824  0.00  0.00    -0.215 NA
ATOM     39  H   LIG    1      -32.487  76.677  29.365  0.00  0.00    +0.144 HD
ENDBRANCH  35  38
ENDBRANCH  27  35
ENDBRANCH   2  24
TORSDOF 9
ENDMDL
MODEL 2
REMARK VINA RESULT:      -6.5      4.449      7.260
REMARK  Name = pdb/CHEMBL3889913.pdb
REMARK                            x       y       z     vdW  Elec       q    Type
REMARK                         _______ _______ _______ _____ _____    ______ ____
ROOT
ATOM      1  C   LIG    1      -37.154  76.025  26.869  0.00  0.00    +0.251 C 
ATOM      2  N   LIG    1      -35.863  76.528  26.492  0.00  0.00    -0.266 N 
ATOM      3  H   LIG    1      -35.675  76.686  25.505  0.00  0.00    +0.157 HD
ATOM      4  O   LIG    1      -37.406  75.728  28.033  0.00  0.00    -0.270 OA
ENDROOT
BRANCH   1   7
ATOM      5  C   LIG    1      -39.890  77.185  24.547  0.00  0.00    +0.004 A 
ATOM      6  C   LIG    1      -38.883  77.133  25.523  0.00  0.00    +0.024 A 
ATOM      7  C   LIG    1      -38.205  75.934  25.836  0.00  0.00    +0.056 A 
ATOM      8  C   LIG    1      -38.555  74.750  25.184  0.00  0.00    +0.053 A 
ATOM      9 CL   LIG    1      -37.810  73.230  25.514  0.00  0.00    -0.083 Cl
ATOM     10  C   LIG    1      -39.570  74.771  24.230  0.00  0.00    +0.021 A 
ATOM     11  C   LIG    1      -40.226  75.969  23.922  0.00  0.00    +0.011 A 
BRANCH   5  14
ATOM     12  C   LIG    1      -40.274  80.659  23.505  0.00  0.00    +0.157 A 
ATOM     13  N   LIG    1      -39.739  79.466  23.839  0.00  0.00    -0.225 NA
ATOM     14  C   LIG    1      -40.574  78.445  24.171  0.00  0.00    +0.108 A 
ATOM     15  C   LIG    1      -41.958  78.616  24.177  0.00  0.00    +0.149 A 
ATOM     16  F   LIG    1      -42.791  77.614  24.492  0.00  0.00    -0.203 F 
ATOM     17  C   LIG    1      -42.498  79.860  23.881  0.00  0.00    +0.044 A 
ATOM     18  C   LIG    1      -41.640  80.903  23.554  0.00  0.00    +0.051 A 
BRANCH  12  21
ATOM     19  C   LIG    1      -38.767  82.333  25.485  0.00  0.00    +0.109 C 
ATOM     20  C   LIG    1      -38.773  82.407  23.983  0.00  0.00    +0.186 C 
ATOM     21  N   LIG    1      -39.422  81.693  23.128  0.00  0.00    -0.198 NA
BRANCH  20  22
ATOM     22  O   LIG    1      -37.929  83.339  23.488  0.00  0.00    -0.496 OA
ATOM     23  H   LIG    1      -37.429  83.811  24.171  0.00  0.00    +0.293 HD
ENDBRANCH  20  22
ENDBRANCH  12  21
ENDBRANCH   5  14
ENDBRANCH   1   7
BRANCH   2  24
ATOM     24  C   LIG    1      -34.805  76.713  27.386  0.00  0.00    +0.129 A 
ATOM     25  N   LIG    1      -34.440  77.885  28.052  0.00  0.00    -0.218 N 
ATOM     26  N   LIG    1      -33.226  77.755  28.661  0.00  0.00    -0.165 NA
ATOM     27  C   LIG    1      -32.931  76.448  28.560  0.00  0.00    +0.117 A 
ATOM     28  C   LIG    1      -33.868  75.775  27.752  0.00  0.00    +0.073 A 
BRANCH  25  29
ATOM     29  C   LIG    1      -35.168  79.100  28.170  0.00  0.00    +0.067 A 
ATOM     30  C   LIG    1      -36.412  79.138  28.815  0.00  0.00    +0.028 A 
ATOM     31  C   LIG    1      -37.083  80.357  28.961  0.00  0.00    +0.002 A 
ATOM     32  C   LIG    1      -36.529  81.531  28.454  0.00  0.00    +0.000 A 
ATOM     33  C   LIG    1      -35.291  81.498  27.817  0.00  0.00    +0.002 A 
ATOM     34  C   LIG    1      -34.599  80.291  27.691  0.00  0.00    +0.028 A 
ENDBRANCH  25  29
BRANCH  27  35
ATOM     35  C   LIG    1      -31.762  75.881  29.224  0.00  0.00    +0.225 C 
BRANCH  35  36
ATOM     36  O   LIG    1      -30.816  76.766  29.593  0.00  0.00    -0.365 OA
ATOM     37  H   LIG    1      -31.155  77.672  29.476  0.00  0.00    +0.212 HD
ENDBRANCH  35  36
BRANCH  35  38
ATOM     38  N   LIG    1      -31.606  74.633  29.480  0.00  0.00    -0.215 NA
ATOM     39  H   LIG    1      -32.488  74.120  29.467  0.00  0.00    +0.144 HD
ENDBRANCH  35  38
ENDBRANCH  27  35
ENDBRANCH   2  24
TORSDOF 9
ENDMDL
MODEL 3
REMARK VINA RESULT:      -6.5     15.416     19.970
REMARK  Name = pdb/CHEMBL3889913.pdb
REMARK                            x       y       z     vdW  Elec       q    Type
REMARK                         _______ _______ _______ _____ _____    ______ ____
ROOT
ATOM      1  C   LIG    1      -20.848  79.942  36.048  0.00  0.00    +0.251 C 
ATOM      2  N   LIG    1      -21.228  81.288  35.722  0.00  0.00    -0.266 N 
ATOM      3  H   LIG    1      -20.773  81.741  34.934  0.00  0.00    +0.157 HD
ATOM      4  O   LIG    1      -21.295  79.377  37.042  0.00  0.00    -0.270 OA
ENDROOT
BRANCH   1   7
ATOM      5  C   LIG    1      -19.786  78.086  32.940  0.00  0.00    +0.004 A 
ATOM      6  C   LIG    1      -20.532  78.771  33.913  0.00  0.00    +0.024 A 
ATOM      7  C   LIG    1      -19.955  79.218  35.122  0.00  0.00    +0.056 A 
ATOM      8  C   LIG    1      -18.609  78.953  35.385  0.00  0.00    +0.053 A 
ATOM      9 CL   LIG    1      -17.817  79.428  36.842  0.00  0.00    -0.083 Cl
ATOM     10  C   LIG    1      -17.855  78.252  34.447  0.00  0.00    +0.021 A 
ATOM     11  C   LIG    1      -18.438  77.825  33.248  0.00  0.00    +0.011 A 
BRANCH   5  14
ATOM     12  C   LIG    1      -22.339  77.279  30.464  0.00  0.00    +0.157 A 
ATOM     13  N   LIG    1      -21.724  77.674  31.598  0.00  0.00    -0.225 NA
ATOM     14  C   LIG    1      -20.366  77.659  31.645  0.00  0.00    +0.108 A 
ATOM     15  C   LIG    1      -19.610  77.237  30.551  0.00  0.00    +0.149 A 
ATOM     16  F   LIG    1      -18.269  77.228  30.582  0.00  0.00    -0.203 F 
ATOM     17  C   LIG    1      -20.251  76.783  29.407  0.00  0.00    +0.044 A 
ATOM     18  C   LIG    1      -21.640  76.791  29.369  0.00  0.00    +0.051 A 
BRANCH  12  21
ATOM     19  C   LIG    1      -24.088  74.926  31.098  0.00  0.00    +0.109 C 
ATOM     20  C   LIG    1      -24.477  76.317  30.679  0.00  0.00    +0.186 C 
ATOM     21  N   LIG    1      -23.729  77.331  30.402  0.00  0.00    -0.198 NA
BRANCH  20  22
ATOM     22  O   LIG    1      -25.813  76.514  30.644  0.00  0.00    -0.496 OA
ATOM     23  H   LIG    1      -26.214  76.609  31.521  0.00  0.00    +0.293 HD
ENDBRANCH  20  22
ENDBRANCH  12  21
ENDBRANCH   5  14
ENDBRANCH   1   7
BRANCH   2  24
ATOM     24  C   LIG    1      -22.109  82.057  36.487  0.00  0.00    +0.129 A 
ATOM     25  N   LIG    1      -21.846  82.730  37.681  0.00  0.00    -0.218 N 
ATOM     26  N   LIG    1      -22.994  83.183  38.263  0.00  0.00    -0.165 NA
ATOM     27  C   LIG    1      -23.947  82.984  37.337  0.00  0.00    +0.117 A 
ATOM     28  C   LIG    1      -23.446  82.262  36.237  0.00  0.00    +0.073 A 
BRANCH  25  29
ATOM     29  C   LIG    1      -20.589  82.994  38.291  0.00  0.00    +0.067 A 
ATOM     30  C   LIG    1      -19.978  84.251  38.176  0.00  0.00    +0.028 A 
ATOM     31  C   LIG    1      -18.765  84.498  38.827  0.00  0.00    +0.002 A 
ATOM     32  C   LIG    1      -18.152  83.495  39.577  0.00  0.00    +0.000 A 
ATOM     33  C   LIG    1      -18.759  82.247  39.698  0.00  0.00    +0.002 A 
ATOM     34  C   LIG    1      -19.984  81.999  39.074  0.00  0.00    +0.028 A 
ENDBRANCH  25  29
BRANCH  27  35
ATOM     35  C   LIG    1      -25.307  83.476  37.532  0.00  0.00    +0.225 C 
BRANCH  35  36
ATOM     36  O   LIG    1      -25.862  84.091  36.470  0.00  0.00    -0.365 OA
ATOM     37  H   LIG    1      -26.120  83.425  35.808  0.00  0.00    +0.212 HD
ENDBRANCH  35  36
BRANCH  35  38
ATOM     38  N   LIG    1      -25.980  83.339  38.616  0.00  0.00    -0.215 NA
ATOM     39  H   LIG    1      -26.973  83.538  38.487  0.00  0.00    +0.144 HD
ENDBRANCH  35  38
ENDBRANCH  27  35
ENDBRANCH   2  24
TORSDOF 9
ENDMDL
MODEL 4
REMARK VINA RESULT:      -6.4      2.679      9.084
REMARK  Name = pdb/CHEMBL3889913.pdb
REMARK                            x       y       z     vdW  Elec       q    Type
REMARK                         _______ _______ _______ _____ _____    ______ ____
ROOT
ATOM      1  C   LIG    1      -37.689  72.340  26.040  0.00  0.00    +0.251 C 
ATOM      2  N   LIG    1      -36.635  71.807  25.222  0.00  0.00    -0.266 N 
ATOM      3  H   LIG    1      -36.230  72.404  24.506  0.00  0.00    +0.157 HD
ATOM      4  O   LIG    1      -38.277  71.638  26.856  0.00  0.00    -0.270 OA
ENDROOT
BRANCH   1   7
ATOM      5  C   LIG    1      -37.561  76.026  26.827  0.00  0.00    +0.004 A 
ATOM      6  C   LIG    1      -37.357  74.637  26.839  0.00  0.00    +0.024 A 
ATOM      7  C   LIG    1      -38.008  73.777  25.929  0.00  0.00    +0.056 A 
ATOM      8  C   LIG    1      -38.908  74.305  25.000  0.00  0.00    +0.053 A 
ATOM      9 CL   LIG    1      -39.777  73.338  23.866  0.00  0.00    -0.083 Cl
ATOM     10  C   LIG    1      -39.147  75.678  24.986  0.00  0.00    +0.021 A 
ATOM     11  C   LIG    1      -38.485  76.520  25.887  0.00  0.00    +0.011 A 
BRANCH   5  14
ATOM     12  C   LIG    1      -35.060  78.433  27.949  0.00  0.00    +0.157 A 
ATOM     13  N   LIG    1      -35.785  77.591  27.184  0.00  0.00    -0.225 NA
ATOM     14  C   LIG    1      -36.844  76.947  27.742  0.00  0.00    +0.108 A 
ATOM     15  C   LIG    1      -37.181  77.137  29.082  0.00  0.00    +0.149 A 
ATOM     16  F   LIG    1      -38.230  76.515  29.640  0.00  0.00    -0.203 F 
ATOM     17  C   LIG    1      -36.400  77.964  29.876  0.00  0.00    +0.044 A 
ATOM     18  C   LIG    1      -35.312  78.612  29.303  0.00  0.00    +0.051 A 
BRANCH  12  21
ATOM     19  C   LIG    1      -32.258  77.366  27.895  0.00  0.00    +0.109 C 
ATOM     20  C   LIG    1      -32.797  78.657  27.345  0.00  0.00    +0.186 C 
ATOM     21  N   LIG    1      -33.999  79.122  27.368  0.00  0.00    -0.198 NA
BRANCH  20  22
ATOM     22  O   LIG    1      -31.869  79.392  26.694  0.00  0.00    -0.496 OA
ATOM     23  H   LIG    1      -31.769  79.153  25.761  0.00  0.00    +0.293 HD
ENDBRANCH  20  22
ENDBRANCH  12  21
ENDBRANCH   5  14
ENDBRANCH   1   7
BRANCH   2  24
ATOM     24  C   LIG    1      -36.202  70.480  25.274  0.00  0.00    +0.129 A 
ATOM     25  N   LIG    1      -36.716  69.381  24.581  0.00  0.00    -0.218 N 
ATOM     26  N   LIG    1      -36.199  68.209  25.050  0.00  0.00    -0.165 NA
ATOM     27  C   LIG    1      -35.212  68.580  25.883  0.00  0.00    +0.117 A 
ATOM     28  C   LIG    1      -35.201  69.975  26.071  0.00  0.00    +0.073 A 
BRANCH  25  29
ATOM     29  C   LIG    1      -37.635  69.369  23.496  0.00  0.00    +0.067 A 
ATOM     30  C   LIG    1      -37.236  68.967  22.214  0.00  0.00    +0.028 A 
ATOM     31  C   LIG    1      -38.173  68.917  21.177  0.00  0.00    +0.002 A 
ATOM     32  C   LIG    1      -39.499  69.281  21.408  0.00  0.00    +0.000 A 
ATOM     33  C   LIG    1      -39.900  69.675  22.682  0.00  0.00    +0.002 A 
ATOM     34  C   LIG    1      -38.978  69.702  23.731  0.00  0.00    +0.028 A 
ENDBRANCH  25  29
BRANCH  27  35
ATOM     35  C   LIG    1      -34.317  67.596  26.482  0.00  0.00    +0.225 C 
BRANCH  35  36
ATOM     36  O   LIG    1      -34.115  66.476  25.762  0.00  0.00    -0.365 OA
ATOM     37  H   LIG    1      -33.590  65.844  26.285  0.00  0.00    +0.212 HD
ENDBRANCH  35  36
BRANCH  35  38
ATOM     38  N   LIG    1      -33.721  67.748  27.609  0.00  0.00    -0.215 NA
ATOM     39  H   LIG    1      -33.755  66.905  28.184  0.00  0.00    +0.144 HD
ENDBRANCH  35  38
ENDBRANCH  27  35
ENDBRANCH   2  24
TORSDOF 9
ENDMDL
MODEL 5
REMARK VINA RESULT:      -6.4      2.235      3.721
REMARK  Name = pdb/CHEMBL3889913.pdb
REMARK                            x       y       z     vdW  Elec       q    Type
REMARK                         _______ _______ _______ _____ _____    ______ ____
ROOT
ATOM      1  C   LIG    1      -38.182  76.492  25.070  0.00  0.00    +0.251 C 
ATOM      2  N   LIG    1      -38.422  77.089  26.354  0.00  0.00    -0.266 N 
ATOM      3  H   LIG    1      -39.277  76.848  26.848  0.00  0.00    +0.157 HD
ATOM      4  O   LIG    1      -37.214  76.815  24.389  0.00  0.00    -0.270 OA
ENDROOT
BRANCH   1   7
ATOM      5  C   LIG    1      -39.465  72.991  24.501  0.00  0.00    +0.004 A 
ATOM      6  C   LIG    1      -38.683  74.097  24.872  0.00  0.00    +0.024 A 
ATOM      7  C   LIG    1      -39.090  75.423  24.610  0.00  0.00    +0.056 A 
ATOM      8  C   LIG    1      -40.291  75.658  23.938  0.00  0.00    +0.053 A 
ATOM      9 CL   LIG    1      -40.864  77.237  23.544  0.00  0.00    -0.083 Cl
ATOM     10  C   LIG    1      -41.072  74.576  23.537  0.00  0.00    +0.021 A 
ATOM     11  C   LIG    1      -40.661  73.267  23.813  0.00  0.00    +0.011 A 
BRANCH   5  14
ATOM     12  C   LIG    1      -37.327  70.054  24.828  0.00  0.00    +0.157 A 
ATOM     13  N   LIG    1      -37.766  71.307  24.590  0.00  0.00    -0.225 NA
ATOM     14  C   LIG    1      -39.075  71.596  24.816  0.00  0.00    +0.108 A 
ATOM     15  C   LIG    1      -39.960  70.622  25.278  0.00  0.00    +0.149 A 
ATOM     16  F   LIG    1      -41.251  70.898  25.515  0.00  0.00    -0.203 F 
ATOM     17  C   LIG    1      -39.512  69.323  25.472  0.00  0.00    +0.044 A 
ATOM     18  C   LIG    1      -38.176  69.031  25.228  0.00  0.00    +0.051 A 
BRANCH  12  21
ATOM     19  C   LIG    1      -35.214  70.690  26.860  0.00  0.00    +0.109 C 
ATOM     20  C   LIG    1      -35.075  70.040  25.511  0.00  0.00    +0.186 C 
ATOM     21  N   LIG    1      -35.978  69.768  24.633  0.00  0.00    -0.198 NA
BRANCH  20  22
ATOM     22  O   LIG    1      -33.811  69.654  25.229  0.00  0.00    -0.496 OA
ATOM     23  H   LIG    1      -33.139  70.298  25.498  0.00  0.00    +0.293 HD
ENDBRANCH  20  22
ENDBRANCH  12  21
ENDBRANCH   5  14
ENDBRANCH   1   7
BRANCH   2  24
ATOM     24  C   LIG    1      -37.604  78.069  26.925  0.00  0.00    +0.129 A 
ATOM     25  N   LIG    1      -36.402  77.888  27.614  0.00  0.00    -0.218 N 
ATOM     26  N   LIG    1      -36.001  79.039  28.227  0.00  0.00    -0.165 NA
ATOM     27  C   LIG    1      -36.828  79.986  27.751  0.00  0.00    +0.117 A 
ATOM     28  C   LIG    1      -37.852  79.421  26.966  0.00  0.00    +0.073 A 
BRANCH  25  29
ATOM     29  C   LIG    1      -35.603  76.717  27.709  0.00  0.00    +0.067 A 
ATOM     30  C   LIG    1      -34.222  76.762  27.469  0.00  0.00    +0.028 A 
ATOM     31  C   LIG    1      -33.451  75.604  27.618  0.00  0.00    +0.002 A 
ATOM     32  C   LIG    1      -34.052  74.401  27.988  0.00  0.00    +0.000 A 
ATOM     33  C   LIG    1      -35.422  74.355  28.233  0.00  0.00    +0.002 A 
ATOM     34  C   LIG    1      -36.196  75.511  28.114  0.00  0.00    +0.028 A 
ENDBRANCH  25  29
BRANCH  27  35
ATOM     35  C   LIG    1      -36.626  81.396  28.066  0.00  0.00    +0.225 C 
BRANCH  35  36
ATOM     36  O   LIG    1      -35.533  81.964  27.522  0.00  0.00    -0.365 OA
ATOM     37  H   LIG    1      -35.153  81.363  26.855  0.00  0.00    +0.212 HD
ENDBRANCH  35  36
BRANCH  35  38
ATOM     38  N   LIG    1      -37.418  82.098  28.792  0.00  0.00    -0.215 NA
ATOM     39  H   LIG    1      -37.936  81.531  29.464  0.00  0.00    +0.144 HD
ENDBRANCH  35  38
ENDBRANCH  27  35
ENDBRANCH   2  24
TORSDOF 9
ENDMDL
MODEL 6
REMARK VINA RESULT:      -6.3      2.125      2.686
REMARK  Name = pdb/CHEMBL3889913.pdb
REMARK                            x       y       z     vdW  Elec       q    Type
REMARK                         _______ _______ _______ _____ _____    ______ ____
ROOT
ATOM      1  C   LIG    1      -36.766  75.441  27.100  0.00  0.00    +0.251 C 
ATOM      2  N   LIG    1      -35.522  76.035  26.696  0.00  0.00    -0.266 N 
ATOM      3  H   LIG    1      -35.350  76.169  25.703  0.00  0.00    +0.157 HD
ATOM      4  O   LIG    1      -36.990  75.171  28.276  0.00  0.00    -0.270 OA
ENDROOT
BRANCH   1   7
ATOM      5  C   LIG    1      -38.978  73.544  24.705  0.00  0.00    +0.004 A 
ATOM      6  C   LIG    1      -38.007  73.888  25.659  0.00  0.00    +0.024 A 
ATOM      7  C   LIG    1      -37.807  75.222  26.076  0.00  0.00    +0.056 A 
ATOM      8  C   LIG    1      -38.571  76.246  25.513  0.00  0.00    +0.053 A 
ATOM      9 CL   LIG    1      -38.386  77.909  25.932  0.00  0.00    -0.083 Cl
ATOM     10  C   LIG    1      -39.524  75.932  24.545  0.00  0.00    +0.021 A 
ATOM     11  C   LIG    1      -39.718  74.604  24.149  0.00  0.00    +0.011 A 
BRANCH   5  14
ATOM     12  C   LIG    1      -38.254  70.101  23.744  0.00  0.00    +0.157 A 
ATOM     13  N   LIG    1      -38.117  71.384  24.137  0.00  0.00    -0.225 NA
ATOM     14  C   LIG    1      -39.234  72.143  24.296  0.00  0.00    +0.108 A 
ATOM     15  C   LIG    1      -40.503  71.619  24.054  0.00  0.00    +0.149 A 
ATOM     16  F   LIG    1      -41.613  72.354  24.217  0.00  0.00    -0.203 F 
ATOM     17  C   LIG    1      -40.633  70.313  23.601  0.00  0.00    +0.044 A 
ATOM     18  C   LIG    1      -39.487  69.546  23.429  0.00  0.00    +0.051 A 
BRANCH  12  21
ATOM     19  C   LIG    1      -37.386  68.893  21.140  0.00  0.00    +0.109 C 
ATOM     20  C   LIG    1      -36.743  68.799  22.496  0.00  0.00    +0.186 C 
ATOM     21  N   LIG    1      -37.113  69.313  23.618  0.00  0.00    -0.198 NA
BRANCH  20  22
ATOM     22  O   LIG    1      -35.582  68.108  22.492  0.00  0.00    -0.496 OA
ATOM     23  H   LIG    1      -35.312  67.798  23.370  0.00  0.00    +0.293 HD
ENDBRANCH  20  22
ENDBRANCH  12  21
ENDBRANCH   5  14
ENDBRANCH   1   7
BRANCH   2  24
ATOM     24  C   LIG    1      -34.482  76.344  27.577  0.00  0.00    +0.129 A 
ATOM     25  N   LIG    1      -34.178  77.583  28.145  0.00  0.00    -0.218 N 
ATOM     26  N   LIG    1      -32.965  77.562  28.769  0.00  0.00    -0.165 NA
ATOM     27  C   LIG    1      -32.608  76.266  28.778  0.00  0.00    +0.117 A 
ATOM     28  C   LIG    1      -33.505  75.485  28.025  0.00  0.00    +0.073 A 
BRANCH  25  29
ATOM     29  C   LIG    1      -34.963  78.768  28.158  0.00  0.00    +0.067 A 
ATOM     30  C   LIG    1      -36.246  78.779  28.723  0.00  0.00    +0.028 A 
ATOM     31  C   LIG    1      -36.977  79.971  28.767  0.00  0.00    +0.002 A 
ATOM     32  C   LIG    1      -36.442  81.145  28.238  0.00  0.00    +0.000 A 
ATOM     33  C   LIG    1      -35.166  81.139  27.682  0.00  0.00    +0.002 A 
ATOM     34  C   LIG    1      -34.417  79.959  27.657  0.00  0.00    +0.028 A 
ENDBRANCH  25  29
BRANCH  27  35
ATOM     35  C   LIG    1      -31.419  75.813  29.493  0.00  0.00    +0.225 C 
BRANCH  35  36
ATOM     36  O   LIG    1      -31.241  74.479  29.539  0.00  0.00    -0.365 OA
ATOM     37  H   LIG    1      -30.923  74.224  30.424  0.00  0.00    +0.212 HD
ENDBRANCH  35  36
BRANCH  35  38
ATOM     38  N   LIG    1      -30.561  76.593  30.042  0.00  0.00    -0.215 NA
ATOM     39  H   LIG    1      -30.792  77.579  29.914  0.00  0.00    +0.144 HD
ENDBRANCH  35  38
ENDBRANCH  27  35
ENDBRANCH   2  24
TORSDOF 9
ENDMDL
MODEL 7
REMARK VINA RESULT:      -6.3      2.819      3.934
REMARK  Name = pdb/CHEMBL3889913.pdb
REMARK                            x       y       z     vdW  Elec       q    Type
REMARK                         _______ _______ _______ _____ _____    ______ ____
ROOT
ATOM      1  C   LIG    1      -35.965  74.891  27.798  0.00  0.00    +0.251 C 
ATOM      2  N   LIG    1      -34.601  74.651  27.419  0.00  0.00    -0.266 N 
ATOM      3  H   LIG    1      -34.412  74.318  26.477  0.00  0.00    +0.157 HD
ATOM      4  O   LIG    1      -36.260  75.205  28.948  0.00  0.00    -0.270 OA
ENDROOT
BRANCH   1   7
ATOM      5  C   LIG    1      -38.252  73.338  25.233  0.00  0.00    +0.004 A 
ATOM      6  C   LIG    1      -37.271  73.543  26.216  0.00  0.00    +0.024 A 
ATOM      7  C   LIG    1      -37.009  74.820  26.757  0.00  0.00    +0.056 A 
ATOM      8  C   LIG    1      -37.719  75.928  26.290  0.00  0.00    +0.053 A 
ATOM      9 CL   LIG    1      -37.455  77.534  26.863  0.00  0.00    -0.083 Cl
ATOM     10  C   LIG    1      -38.679  75.754  25.296  0.00  0.00    +0.021 A 
ATOM     11  C   LIG    1      -38.936  74.480  24.776  0.00  0.00    +0.011 A 
BRANCH   5  14
ATOM     12  C   LIG    1      -37.713  70.091  23.660  0.00  0.00    +0.157 A 
ATOM     13  N   LIG    1      -37.510  71.314  24.192  0.00  0.00    -0.225 NA
ATOM     14  C   LIG    1      -38.574  71.995  24.694  0.00  0.00    +0.108 A 
ATOM     15  C   LIG    1      -39.859  71.454  24.659  0.00  0.00    +0.149 A 
ATOM     16  F   LIG    1      -40.915  72.111  25.161  0.00  0.00    -0.203 F 
ATOM     17  C   LIG    1      -40.068  70.218  24.064  0.00  0.00    +0.044 A 
ATOM     18  C   LIG    1      -38.978  69.532  23.543  0.00  0.00    +0.051 A 
BRANCH  12  21
ATOM     19  C   LIG    1      -35.981  68.386  25.417  0.00  0.00    +0.109 C 
ATOM     20  C   LIG    1      -35.879  68.644  23.939  0.00  0.00    +0.186 C 
ATOM     21  N   LIG    1      -36.618  69.378  23.180  0.00  0.00    -0.198 NA
BRANCH  20  22
ATOM     22  O   LIG    1      -34.885  67.951  23.341  0.00  0.00    -0.496 OA
ATOM     23  H   LIG    1      -34.375  67.398  23.952  0.00  0.00    +0.293 HD
ENDBRANCH  20  22
ENDBRANCH  12  21
ENDBRANCH   5  14
ENDBRANCH   1   7
BRANCH   2  24
ATOM     24  C   LIG    1      -33.518  74.744  28.298  0.00  0.00    +0.129 A 
ATOM     25  N   LIG    1      -32.745  75.869  28.591  0.00  0.00    -0.218 N 
ATOM     26  N   LIG    1      -31.635  75.537  29.312  0.00  0.00    -0.165 NA
ATOM     27  C   LIG    1      -31.820  74.251  29.652  0.00  0.00    +0.117 A 
ATOM     28  C   LIG    1      -32.958  73.715  29.019  0.00  0.00    +0.073 A 
BRANCH  25  29
ATOM     29  C   LIG    1      -32.997  77.228  28.259  0.00  0.00    +0.067 A 
ATOM     30  C   LIG    1      -32.346  77.842  27.180  0.00  0.00    +0.028 A 
ATOM     31  C   LIG    1      -32.650  79.166  26.846  0.00  0.00    +0.002 A 
ATOM     32  C   LIG    1      -33.585  79.883  27.591  0.00  0.00    +0.000 A 
ATOM     33  C   LIG    1      -34.237  79.275  28.660  0.00  0.00    +0.002 A 
ATOM     34  C   LIG    1      -33.961  77.944  28.985  0.00  0.00    +0.028 A 
ENDBRANCH  25  29
BRANCH  27  35
ATOM     35  C   LIG    1      -30.904  73.567  30.559  0.00  0.00    +0.225 C 
BRANCH  35  36
ATOM     36  O   LIG    1      -30.825  74.078  31.802  0.00  0.00    -0.365 OA
ATOM     37  H   LIG    1      -31.714  74.342  32.102  0.00  0.00    +0.212 HD
ENDBRANCH  35  36
BRANCH  35  38
ATOM     38  N   LIG    1      -30.212  72.532  30.247  0.00  0.00    -0.215 NA
ATOM     39  H   LIG    1      -30.216  71.824  30.982  0.00  0.00    +0.144 HD
ENDBRANCH  35  38
ENDBRANCH  27  35
ENDBRANCH   2  24
TORSDOF 9
ENDMDL
MODEL 8
REMARK VINA RESULT:      -6.3     15.690     18.574
REMARK  Name = pdb/CHEMBL3889913.pdb
REMARK                            x       y       z     vdW  Elec       q    Type
REMARK                         _______ _______ _______ _____ _____    ______ ____
ROOT
ATOM      1  C   LIG    1      -21.680  79.840  36.122  0.00  0.00    +0.251 C 
ATOM      2  N   LIG    1      -22.564  80.780  35.492  0.00  0.00    -0.266 N 
ATOM      3  H   LIG    1      -22.296  81.166  34.590  0.00  0.00    +0.157 HD
ATOM      4  O   LIG    1      -21.906  79.412  37.251  0.00  0.00    -0.270 OA
ENDROOT
BRANCH   1   7
ATOM      5  C   LIG    1      -19.783  78.297  33.251  0.00  0.00    +0.004 A 
ATOM      6  C   LIG    1      -20.798  78.791  34.085  0.00  0.00    +0.024 A 
ATOM      7  C   LIG    1      -20.522  79.339  35.357  0.00  0.00    +0.056 A 
ATOM      8  C   LIG    1      -19.207  79.371  35.826  0.00  0.00    +0.053 A 
ATOM      9 CL   LIG    1      -18.767  79.991  37.375  0.00  0.00    -0.083 Cl
ATOM     10  C   LIG    1      -18.185  78.862  35.027  0.00  0.00    +0.021 A 
ATOM     11  C   LIG    1      -18.473  78.332  33.763  0.00  0.00    +0.011 A 
BRANCH   5  14
ATOM     12  C   LIG    1      -21.670  77.476  30.240  0.00  0.00    +0.157 A 
ATOM     13  N   LIG    1      -21.328  77.945  31.457  0.00  0.00    -0.225 NA
ATOM     14  C   LIG    1      -20.053  77.768  31.893  0.00  0.00    +0.108 A 
ATOM     15  C   LIG    1      -19.107  77.107  31.109  0.00  0.00    +0.149 A 
ATOM     16  F   LIG    1      -17.843  76.935  31.524  0.00  0.00    -0.203 F 
ATOM     17  C   LIG    1      -19.480  76.581  29.880  0.00  0.00    +0.044 A 
ATOM     18  C   LIG    1      -20.787  76.756  29.445  0.00  0.00    +0.051 A 
BRANCH  12  21
ATOM     19  C   LIG    1      -23.985  75.729  31.005  0.00  0.00    +0.109 C 
ATOM     20  C   LIG    1      -23.958  76.939  30.112  0.00  0.00    +0.186 C 
ATOM     21  N   LIG    1      -22.965  77.691  29.777  0.00  0.00    -0.198 NA
BRANCH  20  22
ATOM     22  O   LIG    1      -25.176  77.292  29.648  0.00  0.00    -0.496 OA
ATOM     23  H   LIG    1      -25.174  78.114  29.135  0.00  0.00    +0.293 HD
ENDBRANCH  20  22
ENDBRANCH  12  21
ENDBRANCH   5  14
ENDBRANCH   1   7
BRANCH   2  24
ATOM     24  C   LIG    1      -23.722  81.285  36.089  0.00  0.00    +0.129 A 
ATOM     25  N   LIG    1      -24.967  80.663  36.209  0.00  0.00    -0.218 N 
ATOM     26  N   LIG    1      -25.922  81.536  36.640  0.00  0.00    -0.165 NA
ATOM     27  C   LIG    1      -25.242  82.640  36.993  0.00  0.00    +0.117 A 
ATOM     28  C   LIG    1      -23.883  82.535  36.639  0.00  0.00    +0.073 A 
BRANCH  25  29
ATOM     29  C   LIG    1      -25.304  79.302  35.970  0.00  0.00    +0.067 A 
ATOM     30  C   LIG    1      -25.192  78.744  34.689  0.00  0.00    +0.028 A 
ATOM     31  C   LIG    1      -25.483  77.390  34.492  0.00  0.00    +0.002 A 
ATOM     32  C   LIG    1      -25.900  76.597  35.560  0.00  0.00    +0.000 A 
ATOM     33  C   LIG    1      -26.006  77.147  36.835  0.00  0.00    +0.002 A 
ATOM     34  C   LIG    1      -25.691  78.491  37.048  0.00  0.00    +0.028 A 
ENDBRANCH  25  29
BRANCH  27  35
ATOM     35  C   LIG    1      -25.906  83.764  37.644  0.00  0.00    +0.225 C 
BRANCH  35  36
ATOM     36  O   LIG    1      -26.513  84.639  36.819  0.00  0.00    -0.365 OA
ATOM     37  H   LIG    1      -26.298  84.417  35.895  0.00  0.00    +0.212 HD
ENDBRANCH  35  36
BRANCH  35  38
ATOM     38  N   LIG    1      -25.953  83.943  38.914  0.00  0.00    -0.215 NA
ATOM     39  H   LIG    1      -26.122  83.074  39.423  0.00  0.00    +0.144 HD
ENDBRANCH  35  38
ENDBRANCH  27  35
ENDBRANCH   2  24
TORSDOF 9
ENDMDL
MODEL 9
REMARK VINA RESULT:      -6.1     11.524     15.303
REMARK  Name = pdb/CHEMBL3889913.pdb
REMARK                            x       y       z     vdW  Elec       q    Type
REMARK                         _______ _______ _______ _____ _____    ______ ____
ROOT
ATOM      1  C   LIG    1      -27.710  67.571  18.854  0.00  0.00    +0.251 C 
ATOM      2  N   LIG    1      -28.678  67.708  17.802  0.00  0.00    -0.266 N 
ATOM      3  H   LIG    1      -28.501  67.238  16.918  0.00  0.00    +0.157 HD
ATOM      4  O   LIG    1      -27.825  68.189  19.909  0.00  0.00    -0.270 OA
ENDROOT
BRANCH   1   7
ATOM      5  C   LIG    1      -25.573  64.528  19.483  0.00  0.00    +0.004 A 
ATOM      6  C   LIG    1      -26.565  65.518  19.562  0.00  0.00    +0.024 A 
ATOM      7  C   LIG    1      -26.602  66.614  18.672  0.00  0.00    +0.056 A 
ATOM      8  C   LIG    1      -25.612  66.746  17.695  0.00  0.00    +0.053 A 
ATOM      9 CL   LIG    1      -25.550  68.060  16.580  0.00  0.00    -0.083 Cl
ATOM     10  C   LIG    1      -24.602  65.790  17.614  0.00  0.00    +0.021 A 
ATOM     11  C   LIG    1      -24.584  64.703  18.496  0.00  0.00    +0.011 A 
BRANCH   5  14
ATOM     12  C   LIG    1      -26.761  61.507  21.144  0.00  0.00    +0.157 A 
ATOM     13  N   LIG    1      -26.682  62.591  20.346  0.00  0.00    -0.225 NA
ATOM     14  C   LIG    1      -25.552  63.346  20.376  0.00  0.00    +0.108 A 
ATOM     15  C   LIG    1      -24.488  63.020  21.218  0.00  0.00    +0.149 A 
ATOM     16  F   LIG    1      -23.364  63.751  21.248  0.00  0.00    -0.203 F 
ATOM     17  C   LIG    1      -24.597  61.933  22.073  0.00  0.00    +0.044 A 
ATOM     18  C   LIG    1      -25.759  61.172  22.046  0.00  0.00    +0.051 A 
BRANCH  12  21
ATOM     19  C   LIG    1      -27.071  59.237  19.208  0.00  0.00    +0.109 C 
ATOM     20  C   LIG    1      -28.029  59.736  20.254  0.00  0.00    +0.186 C 
ATOM     21  N   LIG    1      -27.902  60.712  21.086  0.00  0.00    -0.198 NA
BRANCH  20  22
ATOM     22  O   LIG    1      -29.159  59.000  20.341  0.00  0.00    -0.496 OA
ATOM     23  H   LIG    1      -29.348  58.483  19.544  0.00  0.00    +0.293 HD
ENDBRANCH  20  22
ENDBRANCH  12  21
ENDBRANCH   5  14
ENDBRANCH   1   7
BRANCH   2  24
ATOM     24  C   LIG    1      -29.801  68.537  17.877  0.00  0.00    +0.129 A 
ATOM     25  N   LIG    1      -31.141  68.159  17.981  0.00  0.00    -0.218 N 
ATOM     26  N   LIG    1      -31.976  69.223  17.798  0.00  0.00    -0.165 NA
ATOM     27  C   LIG    1      -31.166  70.295  17.792  0.00  0.00    +0.117 A 
ATOM     28  C   LIG    1      -29.811  69.911  17.808  0.00  0.00    +0.073 A 
BRANCH  25  29
ATOM     29  C   LIG    1      -31.680  66.875  18.266  0.00  0.00    +0.067 A 
ATOM     30  C   LIG    1      -32.195  66.571  19.534  0.00  0.00    +0.028 A 
ATOM     31  C   LIG    1      -32.765  65.316  19.772  0.00  0.00    +0.002 A 
ATOM     32  C   LIG    1      -32.807  64.359  18.759  0.00  0.00    +0.000 A 
ATOM     33  C   LIG    1      -32.301  64.659  17.497  0.00  0.00    +0.002 A 
ATOM     34  C   LIG    1      -31.756  65.919  17.241  0.00  0.00    +0.028 A 
ENDBRANCH  25  29
BRANCH  27  35
ATOM     35  C   LIG    1      -31.704  71.651  17.760  0.00  0.00    +0.225 C 
BRANCH  35  36
ATOM     36  O   LIG    1      -31.011  72.569  18.460  0.00  0.00    -0.365 OA
ATOM     37  H   LIG    1      -31.078  73.434  18.016  0.00  0.00    +0.212 HD
ENDBRANCH  35  36
BRANCH  35  38
ATOM     38  N   LIG    1      -32.752  72.001  17.107  0.00  0.00    -0.215 NA
ATOM     39  H   LIG    1      -33.349  72.635  17.640  0.00  0.00    +0.144 HD
ENDBRANCH  35  38
ENDBRANCH  27  35
ENDBRANCH   2  24
TORSDOF 9
ENDMDL
