MODEL 1
REMARK VINA RESULT:      -5.9      0.000      0.000
REMARK  Name = pdb/CHEMBL2151322.pdb
REMARK                            x       y       z     vdW  Elec       q    Type
REMARK                         _______ _______ _______ _____ _____    ______ ____
ROOT
ATOM      1  N   LIG    1      -21.823  77.430  31.073  0.00  0.00    -0.266 N 
ATOM      2  C   LIG    1      -21.165  77.974  32.159  0.00  0.00    +0.168 A 
ATOM      3  N   LIG    1      -21.680  78.426  33.328  0.00  0.00    -0.213 NA
ATOM      4  C   LIG    1      -20.761  78.947  34.174  0.00  0.00    +0.122 A 
ATOM      5  C   LIG    1      -19.401  79.062  33.860  0.00  0.00    +0.046 A 
ATOM      6  C   LIG    1      -18.903  78.563  32.654  0.00  0.00    +0.035 A 
ATOM      7  C   LIG    1      -19.827  77.997  31.776  0.00  0.00    +0.108 A 
ATOM      8  N   LIG    1      -19.636  77.446  30.540  0.00  0.00    -0.234 NA
ATOM      9  C   LIG    1      -20.846  77.112  30.145  0.00  0.00    +0.207 A 
ENDROOT
BRANCH   1  14
ATOM     10  C   LIG    1      -25.346  76.663  30.966  0.00  0.00    +0.213 A 
ATOM     11  N   LIG    1      -25.121  77.672  30.068  0.00  0.00    -0.245 N 
ATOM     12  H   LIG    1      -25.800  78.171  29.510  0.00  0.00    +0.192 HD
ATOM     13  N   LIG    1      -23.821  78.022  29.962  0.00  0.00    -0.153 NA
ATOM     14  C   LIG    1      -23.214  77.244  30.859  0.00  0.00    +0.165 A 
ATOM     15  C   LIG    1      -24.106  76.359  31.494  0.00  0.00    +0.115 A 
BRANCH  10  16
ATOM     16  O   LIG    1      -26.596  76.230  31.168  0.00  0.00    -0.474 OA
BRANCH  16  18
ATOM     17  C   LIG    1      -28.885  76.892  31.772  0.00  0.00    +0.051 C 
ATOM     18  C   LIG    1      -27.396  76.949  32.119  0.00  0.00    +0.169 C 
ATOM     19  C   LIG    1      -27.209  76.284  33.484  0.00  0.00    +0.051 C 
ENDBRANCH  16  18
ENDBRANCH  10  16
ENDBRANCH   1  14
BRANCH   4  20
ATOM     20  N   LIG    1      -21.181  79.472  35.412  0.00  0.00    -0.318 N 
ATOM     21  H   LIG    1      -22.074  79.077  35.694  0.00  0.00    +0.148 HD
BRANCH  20  22
ATOM     22  CA  LIG    1      -21.251  80.945  35.474  0.00  0.00    +0.146 C 
BRANCH  22  23
ATOM     23  C   LIG    1      -20.475  81.399  36.722  0.00  0.00    +0.064 A 
ATOM     24  N   LIG    1      -20.580  82.705  37.107  0.00  0.00    -0.255 NA
ATOM     25  C   LIG    1      -19.913  83.081  38.228  0.00  0.00    +0.149 A 
ATOM     26  C   LIG    1      -19.144  82.219  38.986  0.00  0.00    +0.141 A 
ATOM     27  F   LIG    1      -18.514  82.652  40.086  0.00  0.00    -0.204 F 
ATOM     28  C   LIG    1      -19.044  80.895  38.594  0.00  0.00    +0.042 A 
ATOM     29  C   LIG    1      -19.724  80.473  37.451  0.00  0.00    +0.028 A 
ENDBRANCH  22  23
BRANCH  22  30
ATOM     30  C   LIG    1      -22.722  81.441  35.548  0.00  0.00    +0.184 C 
BRANCH  30  31
ATOM     31  O   LIG    1      -22.821  82.864  35.435  0.00  0.00    -0.393 OA
ATOM     32  H   LIG    1      -22.010  83.218  35.847  0.00  0.00    +0.209 HD
ENDBRANCH  30  31
ENDBRANCH  22  30
ENDBRANCH  20  22
ENDBRANCH   4  20
TORSDOF 8
ENDMDL
MODEL 2
REMARK VINA RESULT:      -5.8      2.361      2.806
REMARK  Name = pdb/CHEMBL2151322.pdb
REMARK                            x       y       z     vdW  Elec       q    Type
REMARK                         _______ _______ _______ _____ _____    ______ ____
ROOT
ATOM      1  N   LIG    1      -21.759  77.242  30.562  0.00  0.00    -0.266 N 
ATOM      2  C   LIG    1      -20.912  77.729  31.539  0.00  0.00    +0.168 A 
ATOM      3  N   LIG    1      -21.221  78.320  32.718  0.00  0.00    -0.213 NA
ATOM      4  C   LIG    1      -20.146  78.728  33.432  0.00  0.00    +0.122 A 
ATOM      5  C   LIG    1      -18.827  78.603  32.980  0.00  0.00    +0.046 A 
ATOM      6  C   LIG    1      -18.545  77.968  31.768  0.00  0.00    +0.035 A 
ATOM      7  C   LIG    1      -19.635  77.514  31.026  0.00  0.00    +0.108 A 
ATOM      8  N   LIG    1      -19.666  76.875  29.818  0.00  0.00    -0.234 NA
ATOM      9  C   LIG    1      -20.949  76.721  29.567  0.00  0.00    +0.207 A 
ENDROOT
BRANCH   1  14
ATOM     10  C   LIG    1      -25.347  76.925  30.745  0.00  0.00    +0.213 A 
ATOM     11  N   LIG    1      -25.074  78.102  30.101  0.00  0.00    -0.245 N 
ATOM     12  H   LIG    1      -25.730  78.802  29.780  0.00  0.00    +0.192 HD
ATOM     13  N   LIG    1      -23.756  78.321  29.910  0.00  0.00    -0.153 NA
ATOM     14  C   LIG    1      -23.177  77.274  30.498  0.00  0.00    +0.165 A 
ATOM     15  C   LIG    1      -24.115  76.358  31.010  0.00  0.00    +0.115 A 
BRANCH  10  16
ATOM     16  O   LIG    1      -26.619  76.594  31.000  0.00  0.00    -0.474 OA
BRANCH  16  18
ATOM     17  C   LIG    1      -26.878  76.991  33.412  0.00  0.00    +0.051 C 
ATOM     18  C   LIG    1      -26.896  75.977  32.267  0.00  0.00    +0.169 C 
ATOM     19  C   LIG    1      -28.303  75.379  32.196  0.00  0.00    +0.051 C 
ENDBRANCH  16  18
ENDBRANCH  10  16
ENDBRANCH   1  14
BRANCH   4  20
ATOM     20  N   LIG    1      -20.343  79.379  34.666  0.00  0.00    -0.318 N 
ATOM     21  H   LIG    1      -19.511  79.322  35.247  0.00  0.00    +0.148 HD
BRANCH  20  22
ATOM     22  CA  LIG    1      -21.516  78.918  35.435  0.00  0.00    +0.146 C 
BRANCH  22  23
ATOM     23  C   LIG    1      -22.375  80.150  35.765  0.00  0.00    +0.064 A 
ATOM     24  N   LIG    1      -23.719  79.975  35.926  0.00  0.00    -0.255 NA
ATOM     25  C   LIG    1      -24.456  81.069  36.246  0.00  0.00    +0.149 A 
ATOM     26  C   LIG    1      -23.921  82.331  36.416  0.00  0.00    +0.141 A 
ATOM     27  F   LIG    1      -24.703  83.369  36.737  0.00  0.00    -0.204 F 
ATOM     28  C   LIG    1      -22.556  82.503  36.255  0.00  0.00    +0.042 A 
ATOM     29  C   LIG    1      -21.767  81.397  35.932  0.00  0.00    +0.028 A 
ENDBRANCH  22  23
BRANCH  22  30
ATOM     30  C   LIG    1      -21.089  78.196  36.743  0.00  0.00    +0.184 C 
BRANCH  30  31
ATOM     31  O   LIG    1      -22.155  78.123  37.695  0.00  0.00    -0.393 OA
ATOM     32  H   LIG    1      -22.393  79.048  37.896  0.00  0.00    +0.209 HD
ENDBRANCH  30  31
ENDBRANCH  22  30
ENDBRANCH  20  22
ENDBRANCH   4  20
TORSDOF 8
ENDMDL
MODEL 3
REMARK VINA RESULT:      -5.8     14.313     18.242
REMARK  Name = pdb/CHEMBL2151322.pdb
REMARK                            x       y       z     vdW  Elec       q    Type
REMARK                         _______ _______ _______ _____ _____    ______ ____
ROOT
ATOM      1  N   LIG    1      -39.929  78.485  24.143  0.00  0.00    -0.266 N 
ATOM      2  C   LIG    1      -39.159  77.427  24.586  0.00  0.00    +0.168 A 
ATOM      3  N   LIG    1      -37.942  77.449  25.181  0.00  0.00    -0.213 NA
ATOM      4  C   LIG    1      -37.436  76.223  25.452  0.00  0.00    +0.122 A 
ATOM      5  C   LIG    1      -38.080  75.029  25.107  0.00  0.00    +0.046 A 
ATOM      6  C   LIG    1      -39.345  75.046  24.515  0.00  0.00    +0.035 A 
ATOM      7  C   LIG    1      -39.900  76.297  24.249  0.00  0.00    +0.108 A 
ATOM      8  N   LIG    1      -41.099  76.620  23.677  0.00  0.00    -0.234 NA
ATOM      9  C   LIG    1      -41.091  77.935  23.630  0.00  0.00    +0.207 A 
ENDROOT
BRANCH   1  14
ATOM     10  C   LIG    1      -39.112  81.962  24.651  0.00  0.00    +0.213 A 
ATOM     11  N   LIG    1      -39.099  81.733  23.301  0.00  0.00    -0.245 N 
ATOM     12  H   LIG    1      -38.852  82.378  22.563  0.00  0.00    +0.192 HD
ATOM     13  N   LIG    1      -39.449  80.473  22.962  0.00  0.00    -0.153 NA
ATOM     14  C   LIG    1      -39.638  79.875  24.139  0.00  0.00    +0.165 A 
ATOM     15  C   LIG    1      -39.471  80.756  25.224  0.00  0.00    +0.115 A 
BRANCH  10  16
ATOM     16  O   LIG    1      -38.779  83.172  25.116  0.00  0.00    -0.474 OA
BRANCH  16  18
ATOM     17  C   LIG    1      -36.428  83.347  25.812  0.00  0.00    +0.051 C 
ATOM     18  C   LIG    1      -37.890  83.221  26.243  0.00  0.00    +0.169 C 
ATOM     19  C   LIG    1      -38.244  84.464  27.063  0.00  0.00    +0.051 C 
ENDBRANCH  16  18
ENDBRANCH  10  16
ENDBRANCH   1  14
BRANCH   4  20
ATOM     20  N   LIG    1      -36.164  76.117  26.049  0.00  0.00    -0.318 N 
ATOM     21  H   LIG    1      -35.730  75.225  25.830  0.00  0.00    +0.148 HD
BRANCH  20  22
ATOM     22  CA  LIG    1      -36.140  76.334  27.509  0.00  0.00    +0.146 C 
BRANCH  22  23
ATOM     23  C   LIG    1      -35.716  77.791  27.760  0.00  0.00    +0.064 A 
ATOM     24  N   LIG    1      -34.403  78.120  27.585  0.00  0.00    -0.255 NA
ATOM     25  C   LIG    1      -34.053  79.416  27.781  0.00  0.00    +0.149 A 
ATOM     26  C   LIG    1      -34.947  80.405  28.144  0.00  0.00    +0.141 A 
ATOM     27  F   LIG    1      -34.539  81.668  28.317  0.00  0.00    -0.204 F 
ATOM     28  C   LIG    1      -36.279  80.067  28.316  0.00  0.00    +0.042 A 
ATOM     29  C   LIG    1      -36.675  78.744  28.115  0.00  0.00    +0.028 A 
ENDBRANCH  22  23
BRANCH  22  30
ATOM     30  C   LIG    1      -35.153  75.361  28.211  0.00  0.00    +0.184 C 
BRANCH  30  31
ATOM     31  O   LIG    1      -34.013  75.064  27.399  0.00  0.00    -0.393 OA
ATOM     32  H   LIG    1      -33.467  75.874  27.406  0.00  0.00    +0.209 HD
ENDBRANCH  30  31
ENDBRANCH  22  30
ENDBRANCH  20  22
ENDBRANCH   4  20
TORSDOF 8
ENDMDL
MODEL 4
REMARK VINA RESULT:      -5.6     15.763     21.385
REMARK  Name = pdb/CHEMBL2151322.pdb
REMARK                            x       y       z     vdW  Elec       q    Type
REMARK                         _______ _______ _______ _____ _____    ______ ____
ROOT
ATOM      1  N   LIG    1      -39.636  74.717  24.593  0.00  0.00    -0.266 N 
ATOM      2  C   LIG    1      -39.905  73.421  24.197  0.00  0.00    +0.168 A 
ATOM      3  N   LIG    1      -39.169  72.300  24.391  0.00  0.00    -0.213 NA
ATOM      4  C   LIG    1      -39.696  71.187  23.830  0.00  0.00    +0.122 A 
ATOM      5  C   LIG    1      -40.872  71.188  23.070  0.00  0.00    +0.046 A 
ATOM      6  C   LIG    1      -41.617  72.360  22.911  0.00  0.00    +0.035 A 
ATOM      7  C   LIG    1      -41.108  73.516  23.501  0.00  0.00    +0.108 A 
ATOM      8  N   LIG    1      -41.606  74.789  23.505  0.00  0.00    -0.234 NA
ATOM      9  C   LIG    1      -40.707  75.485  24.168  0.00  0.00    +0.207 A 
ENDROOT
BRANCH   1  14
ATOM     10  C   LIG    1      -36.831  75.669  26.650  0.00  0.00    +0.213 A 
ATOM     11  N   LIG    1      -36.700  76.323  25.454  0.00  0.00    -0.245 N 
ATOM     12  H   LIG    1      -35.942  76.919  25.151  0.00  0.00    +0.192 HD
ATOM     13  N   LIG    1      -37.723  76.102  24.601  0.00  0.00    -0.153 NA
ATOM     14  C   LIG    1      -38.498  75.240  25.261  0.00  0.00    +0.165 A 
ATOM     15  C   LIG    1      -38.010  74.956  26.550  0.00  0.00    +0.115 A 
BRANCH  10  16
ATOM     16  O   LIG    1      -35.877  75.803  27.580  0.00  0.00    -0.474 OA
BRANCH  16  18
ATOM     17  C   LIG    1      -34.816  77.957  28.106  0.00  0.00    +0.051 C 
ATOM     18  C   LIG    1      -34.778  76.675  27.273  0.00  0.00    +0.169 C 
ATOM     19  C   LIG    1      -33.484  75.933  27.618  0.00  0.00    +0.051 C 
ENDBRANCH  16  18
ENDBRANCH  10  16
ENDBRANCH   1  14
BRANCH   4  20
ATOM     20  N   LIG    1      -39.007  69.963  23.945  0.00  0.00    -0.318 N 
ATOM     21  H   LIG    1      -39.214  69.508  24.830  0.00  0.00    +0.148 HD
BRANCH  20  22
ATOM     22  CA  LIG    1      -37.545  70.051  23.764  0.00  0.00    +0.146 C 
BRANCH  22  23
ATOM     23  C   LIG    1      -37.155  69.091  22.627  0.00  0.00    +0.064 A 
ATOM     24  N   LIG    1      -36.070  68.284  22.809  0.00  0.00    -0.255 NA
ATOM     25  C   LIG    1      -35.759  67.422  21.807  0.00  0.00    +0.149 A 
ATOM     26  C   LIG    1      -36.476  67.323  20.631  0.00  0.00    +0.141 A 
ATOM     27  F   LIG    1      -36.120  66.447  19.683  0.00  0.00    -0.204 F 
ATOM     28  C   LIG    1      -37.579  68.142  20.453  0.00  0.00    +0.042 A 
ATOM     29  C   LIG    1      -37.931  69.034  21.466  0.00  0.00    +0.028 A 
ENDBRANCH  22  23
BRANCH  22  30
ATOM     30  C   LIG    1      -36.787  69.673  25.067  0.00  0.00    +0.184 C 
BRANCH  30  31
ATOM     31  O   LIG    1      -35.419  70.088  25.039  0.00  0.00    -0.393 OA
ATOM     32  H   LIG    1      -34.906  69.327  25.372  0.00  0.00    +0.209 HD
ENDBRANCH  30  31
ENDBRANCH  22  30
ENDBRANCH  20  22
ENDBRANCH   4  20
TORSDOF 8
ENDMDL
MODEL 5
REMARK VINA RESULT:      -5.5     11.900     16.526
REMARK  Name = pdb/CHEMBL2151322.pdb
REMARK                            x       y       z     vdW  Elec       q    Type
REMARK                         _______ _______ _______ _____ _____    ______ ____
ROOT
ATOM      1  N   LIG    1      -38.599  78.735  26.562  0.00  0.00    -0.266 N 
ATOM      2  C   LIG    1      -37.462  79.212  27.187  0.00  0.00    +0.168 A 
ATOM      3  N   LIG    1      -36.342  78.541  27.547  0.00  0.00    -0.213 NA
ATOM      4  C   LIG    1      -35.424  79.299  28.189  0.00  0.00    +0.122 A 
ATOM      5  C   LIG    1      -35.623  80.648  28.506  0.00  0.00    +0.046 A 
ATOM      6  C   LIG    1      -36.782  81.313  28.099  0.00  0.00    +0.035 A 
ATOM      7  C   LIG    1      -37.732  80.560  27.411  0.00  0.00    +0.108 A 
ATOM      8  N   LIG    1      -38.947  80.932  26.906  0.00  0.00    -0.234 NA
ATOM      9  C   LIG    1      -39.441  79.822  26.401  0.00  0.00    +0.207 A 
ENDROOT
BRANCH   1  14
ATOM     10  C   LIG    1      -39.245  75.499  25.106  0.00  0.00    +0.213 A 
ATOM     11  N   LIG    1      -39.397  75.374  26.461  0.00  0.00    -0.245 N 
ATOM     12  H   LIG    1      -39.593  74.536  26.990  0.00  0.00    +0.192 HD
ATOM     13  N   LIG    1      -39.241  76.535  27.133  0.00  0.00    -0.153 NA
ATOM     14  C   LIG    1      -38.928  77.409  26.175  0.00  0.00    +0.165 A 
ATOM     15  C   LIG    1      -38.943  76.831  24.893  0.00  0.00    +0.115 A 
BRANCH  10  16
ATOM     16  O   LIG    1      -39.370  74.417  24.328  0.00  0.00    -0.474 OA
BRANCH  16  18
ATOM     17  C   LIG    1      -41.637  74.528  23.385  0.00  0.00    +0.051 C 
ATOM     18  C   LIG    1      -40.657  73.781  24.290  0.00  0.00    +0.169 C 
ATOM     19  C   LIG    1      -40.466  72.377  23.712  0.00  0.00    +0.051 C 
ENDBRANCH  16  18
ENDBRANCH  10  16
ENDBRANCH   1  14
BRANCH   4  20
ATOM     20  N   LIG    1      -34.226  78.705  28.634  0.00  0.00    -0.318 N 
ATOM     21  H   LIG    1      -33.617  79.391  29.072  0.00  0.00    +0.148 HD
BRANCH  20  22
ATOM     22  CA  LIG    1      -33.475  77.964  27.602  0.00  0.00    +0.146 C 
BRANCH  22  23
ATOM     23  C   LIG    1      -32.913  76.691  28.254  0.00  0.00    +0.064 A 
ATOM     24  N   LIG    1      -31.718  76.775  28.909  0.00  0.00    -0.255 NA
ATOM     25  C   LIG    1      -31.252  75.648  29.505  0.00  0.00    +0.149 A 
ATOM     26  C   LIG    1      -31.917  74.438  29.481  0.00  0.00    +0.141 A 
ATOM     27  F   LIG    1      -31.405  73.362  30.093  0.00  0.00    -0.204 F 
ATOM     28  C   LIG    1      -33.131  74.357  28.818  0.00  0.00    +0.042 A 
ATOM     29  C   LIG    1      -33.643  75.500  28.201  0.00  0.00    +0.028 A 
ENDBRANCH  22  23
BRANCH  22  30
ATOM     30  C   LIG    1      -32.319  78.821  27.016  0.00  0.00    +0.184 C 
BRANCH  30  31
ATOM     31  O   LIG    1      -32.302  78.805  25.586  0.00  0.00    -0.393 OA
ATOM     32  H   LIG    1      -31.683  79.511  25.321  0.00  0.00    +0.209 HD
ENDBRANCH  30  31
ENDBRANCH  22  30
ENDBRANCH  20  22
ENDBRANCH   4  20
TORSDOF 8
ENDMDL
MODEL 6
REMARK VINA RESULT:      -5.5      4.339      7.760
REMARK  Name = pdb/CHEMBL2151322.pdb
REMARK                            x       y       z     vdW  Elec       q    Type
REMARK                         _______ _______ _______ _____ _____    ______ ____
ROOT
ATOM      1  N   LIG    1      -30.186  74.848  31.463  0.00  0.00    -0.266 N 
ATOM      2  C   LIG    1      -28.856  75.121  31.720  0.00  0.00    +0.168 A 
ATOM      3  N   LIG    1      -28.139  76.230  31.414  0.00  0.00    -0.213 NA
ATOM      4  C   LIG    1      -26.835  76.160  31.768  0.00  0.00    +0.122 A 
ATOM      5  C   LIG    1      -26.252  75.029  32.353  0.00  0.00    +0.046 A 
ATOM      6  C   LIG    1      -27.029  73.913  32.674  0.00  0.00    +0.035 A 
ATOM      7  C   LIG    1      -28.382  73.970  32.344  0.00  0.00    +0.108 A 
ATOM      8  N   LIG    1      -29.367  73.040  32.526  0.00  0.00    -0.234 NA
ATOM      9  C   LIG    1      -30.436  73.594  31.993  0.00  0.00    +0.207 A 
ENDROOT
BRANCH   1  14
ATOM     10  C   LIG    1      -32.411  76.627  29.251  0.00  0.00    +0.213 A 
ATOM     11  N   LIG    1      -32.932  76.719  30.514  0.00  0.00    -0.245 N 
ATOM     12  H   LIG    1      -33.804  77.145  30.798  0.00  0.00    +0.192 HD
ATOM     13  N   LIG    1      -32.162  76.141  31.461  0.00  0.00    -0.153 NA
ATOM     14  C   LIG    1      -31.149  75.623  30.765  0.00  0.00    +0.165 A 
ATOM     15  C   LIG    1      -31.234  75.917  29.391  0.00  0.00    +0.115 A 
BRANCH  10  16
ATOM     16  O   LIG    1      -33.084  77.157  28.222  0.00  0.00    -0.474 OA
BRANCH  16  18
ATOM     17  C   LIG    1      -32.297  78.562  26.366  0.00  0.00    +0.051 C 
ATOM     18  C   LIG    1      -32.738  78.494  27.829  0.00  0.00    +0.169 C 
ATOM     19  C   LIG    1      -33.988  79.363  27.981  0.00  0.00    +0.051 C 
ENDBRANCH  16  18
ENDBRANCH  10  16
ENDBRANCH   1  14
BRANCH   4  20
ATOM     20  N   LIG    1      -25.982  77.245  31.479  0.00  0.00    -0.318 N 
ATOM     21  H   LIG    1      -26.270  77.720  30.628  0.00  0.00    +0.148 HD
BRANCH  20  22
ATOM     22  CA  LIG    1      -24.548  76.906  31.395  0.00  0.00    +0.146 C 
BRANCH  22  23
ATOM     23  C   LIG    1      -23.799  77.784  32.411  0.00  0.00    +0.064 A 
ATOM     24  N   LIG    1      -24.530  78.625  33.199  0.00  0.00    -0.255 NA
ATOM     25  C   LIG    1      -23.854  79.370  34.111  0.00  0.00    +0.149 A 
ATOM     26  C   LIG    1      -22.484  79.318  34.278  0.00  0.00    +0.141 A 
ATOM     27  F   LIG    1      -21.878  80.077  35.201  0.00  0.00    -0.204 F 
ATOM     28  C   LIG    1      -21.747  78.461  33.479  0.00  0.00    +0.042 A 
ATOM     29  C   LIG    1      -22.411  77.675  32.536  0.00  0.00    +0.028 A 
ENDBRANCH  22  23
BRANCH  22  30
ATOM     30  C   LIG    1      -23.990  77.148  29.964  0.00  0.00    +0.184 C 
BRANCH  30  31
ATOM     31  O   LIG    1      -23.954  78.537  29.624  0.00  0.00    -0.393 OA
ATOM     32  H   LIG    1      -24.768  78.704  29.111  0.00  0.00    +0.209 HD
ENDBRANCH  30  31
ENDBRANCH  22  30
ENDBRANCH  20  22
ENDBRANCH   4  20
TORSDOF 8
ENDMDL
MODEL 7
REMARK VINA RESULT:      -5.3      3.829      8.047
REMARK  Name = pdb/CHEMBL2151322.pdb
REMARK                            x       y       z     vdW  Elec       q    Type
REMARK                         _______ _______ _______ _____ _____    ______ ____
ROOT
ATOM      1  N   LIG    1      -20.282  78.568  33.081  0.00  0.00    -0.266 N 
ATOM      2  C   LIG    1      -20.777  77.912  31.970  0.00  0.00    +0.168 A 
ATOM      3  N   LIG    1      -22.055  77.558  31.689  0.00  0.00    -0.213 NA
ATOM      4  C   LIG    1      -22.198  76.878  30.528  0.00  0.00    +0.122 A 
ATOM      5  C   LIG    1      -21.123  76.520  29.705  0.00  0.00    +0.046 A 
ATOM      6  C   LIG    1      -19.822  76.923  30.017  0.00  0.00    +0.035 A 
ATOM      7  C   LIG    1      -19.651  77.648  31.195  0.00  0.00    +0.108 A 
ATOM      8  N   LIG    1      -18.512  78.158  31.752  0.00  0.00    -0.234 NA
ATOM      9  C   LIG    1      -18.920  78.706  32.876  0.00  0.00    +0.207 A 
ENDROOT
BRANCH   1  14
ATOM     10  C   LIG    1      -22.439  79.661  35.757  0.00  0.00    +0.213 A 
ATOM     11  N   LIG    1      -21.234  79.327  36.315  0.00  0.00    -0.245 N 
ATOM     12  H   LIG    1      -20.983  79.320  37.294  0.00  0.00    +0.192 HD
ATOM     13  N   LIG    1      -20.304  78.954  35.410  0.00  0.00    -0.153 NA
ATOM     14  C   LIG    1      -20.960  79.003  34.250  0.00  0.00    +0.165 A 
ATOM     15  C   LIG    1      -22.281  79.462  34.399  0.00  0.00    +0.115 A 
BRANCH  10  16
ATOM     16  O   LIG    1      -23.448  80.043  36.550  0.00  0.00    -0.474 OA
BRANCH  16  18
ATOM     17  C   LIG    1      -23.115  82.472  36.374  0.00  0.00    +0.051 C 
ATOM     18  C   LIG    1      -23.274  81.259  37.293  0.00  0.00    +0.169 C 
ATOM     19  C   LIG    1      -24.532  81.475  38.137  0.00  0.00    +0.051 C 
ENDBRANCH  16  18
ENDBRANCH  10  16
ENDBRANCH   1  14
BRANCH   4  20
ATOM     20  N   LIG    1      -23.478  76.435  30.140  0.00  0.00    -0.318 N 
ATOM     21  H   LIG    1      -23.882  77.050  29.439  0.00  0.00    +0.148 HD
BRANCH  20  22
ATOM     22  CA  LIG    1      -24.436  76.250  31.247  0.00  0.00    +0.146 C 
BRANCH  22  23
ATOM     23  C   LIG    1      -24.882  74.778  31.241  0.00  0.00    +0.064 A 
ATOM     24  N   LIG    1      -26.152  74.487  31.649  0.00  0.00    -0.255 NA
ATOM     25  C   LIG    1      -26.538  73.186  31.608  0.00  0.00    +0.149 A 
ATOM     26  C   LIG    1      -25.721  72.158  31.179  0.00  0.00    +0.141 A 
ATOM     27  F   LIG    1      -26.164  70.895  31.158  0.00  0.00    -0.204 F 
ATOM     28  C   LIG    1      -24.434  72.459  30.762  0.00  0.00    +0.042 A 
ATOM     29  C   LIG    1      -24.008  73.787  30.784  0.00  0.00    +0.028 A 
ENDBRANCH  22  23
BRANCH  22  30
ATOM     30  C   LIG    1      -25.669  77.183  31.093  0.00  0.00    +0.184 C 
BRANCH  30  31
ATOM     31  O   LIG    1      -25.445  78.226  30.140  0.00  0.00    -0.393 OA
ATOM     32  H   LIG    1      -26.220  78.816  30.207  0.00  0.00    +0.209 HD
ENDBRANCH  30  31
ENDBRANCH  22  30
ENDBRANCH  20  22
ENDBRANCH   4  20
TORSDOF 8
ENDMDL
MODEL 8
REMARK VINA RESULT:      -5.3     15.302     20.687
REMARK  Name = pdb/CHEMBL2151322.pdb
REMARK                            x       y       z     vdW  Elec       q    Type
REMARK                         _______ _______ _______ _____ _____    ______ ____
ROOT
ATOM      1  N   LIG    1      -39.068  76.324  25.214  0.00  0.00    -0.266 N 
ATOM      2  C   LIG    1      -39.400  75.021  24.894  0.00  0.00    +0.168 A 
ATOM      3  N   LIG    1      -38.800  73.869  25.282  0.00  0.00    -0.213 NA
ATOM      4  C   LIG    1      -39.348  72.753  24.748  0.00  0.00    +0.122 A 
ATOM      5  C   LIG    1      -40.409  72.775  23.834  0.00  0.00    +0.046 A 
ATOM      6  C   LIG    1      -41.016  73.981  23.475  0.00  0.00    +0.035 A 
ATOM      7  C   LIG    1      -40.487  75.144  24.032  0.00  0.00    +0.108 A 
ATOM      8  N   LIG    1      -40.863  76.447  23.860  0.00  0.00    -0.234 NA
ATOM      9  C   LIG    1      -39.999  77.130  24.581  0.00  0.00    +0.207 A 
ENDROOT
BRANCH   1  14
ATOM     10  C   LIG    1      -36.682  77.709  27.537  0.00  0.00    +0.213 A 
ATOM     11  N   LIG    1      -35.975  77.012  26.593  0.00  0.00    -0.245 N 
ATOM     12  H   LIG    1      -34.979  76.847  26.559  0.00  0.00    +0.192 HD
ATOM     13  N   LIG    1      -36.748  76.485  25.619  0.00  0.00    -0.153 NA
ATOM     14  C   LIG    1      -37.985  76.816  25.989  0.00  0.00    +0.165 A 
ATOM     15  C   LIG    1      -38.006  77.601  27.157  0.00  0.00    +0.115 A 
BRANCH  10  16
ATOM     16  O   LIG    1      -36.031  78.276  28.560  0.00  0.00    -0.474 OA
BRANCH  16  18
ATOM     17  C   LIG    1      -36.120  80.627  27.851  0.00  0.00    +0.051 C 
ATOM     18  C   LIG    1      -35.247  79.444  28.273  0.00  0.00    +0.169 C 
ATOM     19  C   LIG    1      -34.513  79.840  29.557  0.00  0.00    +0.051 C 
ENDBRANCH  16  18
ENDBRANCH  10  16
ENDBRANCH   1  14
BRANCH   4  20
ATOM     20  N   LIG    1      -38.794  71.495  25.059  0.00  0.00    -0.318 N 
ATOM     21  H   LIG    1      -38.782  71.339  26.064  0.00  0.00    +0.148 HD
BRANCH  20  22
ATOM     22  CA  LIG    1      -37.449  71.251  24.504  0.00  0.00    +0.146 C 
BRANCH  22  23
ATOM     23  C   LIG    1      -37.528  69.995  23.620  0.00  0.00    +0.064 A 
ATOM     24  N   LIG    1      -36.408  69.227  23.489  0.00  0.00    -0.255 NA
ATOM     25  C   LIG    1      -36.505  68.106  22.729  0.00  0.00    +0.149 A 
ATOM     26  C   LIG    1      -37.665  67.711  22.091  0.00  0.00    +0.141 A 
ATOM     27  F   LIG    1      -37.696  66.590  21.359  0.00  0.00    -0.204 F 
ATOM     28  C   LIG    1      -38.800  68.492  22.230  0.00  0.00    +0.042 A 
ATOM     29  C   LIG    1      -38.737  69.647  23.010  0.00  0.00    +0.028 A 
ENDBRANCH  22  23
BRANCH  22  30
ATOM     30  C   LIG    1      -36.398  71.047  25.630  0.00  0.00    +0.184 C 
BRANCH  30  31
ATOM     31  O   LIG    1      -35.058  71.217  25.159  0.00  0.00    -0.393 OA
ATOM     32  H   LIG    1      -34.631  70.345  25.259  0.00  0.00    +0.209 HD
ENDBRANCH  30  31
ENDBRANCH  22  30
ENDBRANCH  20  22
ENDBRANCH   4  20
TORSDOF 8
ENDMDL
MODEL 9
REMARK VINA RESULT:      -5.3     12.248     16.132
REMARK  Name = pdb/CHEMBL2151322.pdb
REMARK                            x       y       z     vdW  Elec       q    Type
REMARK                         _______ _______ _______ _____ _____    ______ ____
ROOT
ATOM      1  N   LIG    1      -38.334  76.538  26.319  0.00  0.00    -0.266 N 
ATOM      2  C   LIG    1      -37.505  77.481  26.896  0.00  0.00    +0.168 A 
ATOM      3  N   LIG    1      -36.216  77.352  27.295  0.00  0.00    -0.213 NA
ATOM      4  C   LIG    1      -35.701  78.464  27.870  0.00  0.00    +0.122 A 
ATOM      5  C   LIG    1      -36.439  79.634  28.085  0.00  0.00    +0.046 A 
ATOM      6  C   LIG    1      -37.759  79.737  27.639  0.00  0.00    +0.035 A 
ATOM      7  C   LIG    1      -38.305  78.614  27.019  0.00  0.00    +0.108 A 
ATOM      8  N   LIG    1      -39.554  78.421  26.499  0.00  0.00    -0.234 NA
ATOM      9  C   LIG    1      -39.541  77.172  26.084  0.00  0.00    +0.207 A 
ENDROOT
BRANCH   1  14
ATOM     10  C   LIG    1      -37.829  72.973  26.106  0.00  0.00    +0.213 A 
ATOM     11  N   LIG    1      -37.837  73.461  24.827  0.00  0.00    -0.245 N 
ATOM     12  H   LIG    1      -37.776  72.940  23.962  0.00  0.00    +0.192 HD
ATOM     13  N   LIG    1      -37.960  74.804  24.760  0.00  0.00    -0.153 NA
ATOM     14  C   LIG    1      -38.086  75.168  26.037  0.00  0.00    +0.165 A 
ATOM     15  C   LIG    1      -37.984  74.078  26.921  0.00  0.00    +0.115 A 
BRANCH  10  16
ATOM     16  O   LIG    1      -37.718  71.654  26.306  0.00  0.00    -0.474 OA
BRANCH  16  18
ATOM     17  C   LIG    1      -35.400  70.842  26.221  0.00  0.00    +0.051 C 
ATOM     18  C   LIG    1      -36.751  70.948  25.513  0.00  0.00    +0.169 C 
ATOM     19  C   LIG    1      -37.276  69.527  25.293  0.00  0.00    +0.051 C 
ENDBRANCH  16  18
ENDBRANCH  10  16
ENDBRANCH   1  14
BRANCH   4  20
ATOM     20  N   LIG    1      -34.376  78.444  28.348  0.00  0.00    -0.318 N 
ATOM     21  H   LIG    1      -34.040  79.384  28.538  0.00  0.00    +0.148 HD
BRANCH  20  22
ATOM     22  CA  LIG    1      -33.410  77.739  27.482  0.00  0.00    +0.146 C 
BRANCH  22  23
ATOM     23  C   LIG    1      -32.828  76.566  28.287  0.00  0.00    +0.064 A 
ATOM     24  N   LIG    1      -33.492  75.374  28.262  0.00  0.00    -0.255 NA
ATOM     25  C   LIG    1      -32.946  74.341  28.953  0.00  0.00    +0.149 A 
ATOM     26  C   LIG    1      -31.769  74.436  29.670  0.00  0.00    +0.141 A 
ATOM     27  F   LIG    1      -31.281  73.377  30.328  0.00  0.00    -0.204 F 
ATOM     28  C   LIG    1      -31.097  75.647  29.690  0.00  0.00    +0.042 A 
ATOM     29  C   LIG    1      -31.626  76.727  28.983  0.00  0.00    +0.028 A 
ENDBRANCH  22  23
BRANCH  22  30
ATOM     30  C   LIG    1      -32.271  78.687  27.014  0.00  0.00    +0.184 C 
BRANCH  30  31
ATOM     31  O   LIG    1      -32.264  78.868  25.596  0.00  0.00    -0.393 OA
ATOM     32  H   LIG    1      -32.548  78.014  25.219  0.00  0.00    +0.209 HD
ENDBRANCH  30  31
ENDBRANCH  22  30
ENDBRANCH  20  22
ENDBRANCH   4  20
TORSDOF 8
ENDMDL
