MODEL 1
REMARK VINA RESULT:      -7.2      0.000      0.000
REMARK  Name = pdb/CHEMBL3919320.pdb
REMARK                            x       y       z     vdW  Elec       q    Type
REMARK                         _______ _______ _______ _____ _____    ______ ____
ROOT
ATOM      1  C   LIG    1      -36.723  66.962  19.813  0.00  0.00    +0.323 A 
ATOM      2  N   LIG    1      -36.976  68.226  19.460  0.00  0.00    -0.201 NA
ATOM      3  C   LIG    1      -37.660  68.952  20.369  0.00  0.00    +0.145 A 
ATOM      4  C   LIG    1      -38.190  68.471  21.556  0.00  0.00    +0.105 A 
ATOM      5  C   LIG    1      -37.834  67.162  21.816  0.00  0.00    +0.145 A 
ATOM      6  N   LIG    1      -37.147  66.402  20.957  0.00  0.00    -0.201 NA
ENDROOT
BRANCH   4   7
ATOM      7  N   LIG    1      -38.934  69.151  22.496  0.00  0.00    -0.196 NA
ATOM      8  C   LIG    1      -38.402  69.978  23.364  0.00  0.00    +0.285 C 
BRANCH   8   9
ATOM      9  N   LIG    1      -39.031  70.737  24.269  0.00  0.00    -0.269 N 
ATOM     10  H   LIG    1      -39.358  70.196  25.071  0.00  0.00    +0.157 HD
BRANCH   9  11
ATOM     11  C   LIG    1      -39.470  72.069  24.204  0.00  0.00    +0.043 A 
ATOM     12  C   LIG    1      -40.723  72.449  23.640  0.00  0.00    +0.005 A 
ATOM     13  C   LIG    1      -41.008  73.836  23.623  0.00  0.00    +0.011 A 
ATOM     14  C   LIG    1      -40.123  74.805  24.136  0.00  0.00    +0.013 A 
ATOM     15  C   LIG    1      -38.914  74.426  24.718  0.00  0.00    +0.057 A 
ATOM     16  C   LIG    1      -38.601  73.064  24.733  0.00  0.00    +0.036 A 
BRANCH  12  17
ATOM     17  C   LIG    1      -41.746  71.471  23.109  0.00  0.00    +0.002 A 
ATOM     18  C   LIG    1      -42.660  70.783  23.918  0.00  0.00    +0.119 A 
ATOM     19  N   LIG    1      -43.665  69.967  23.497  0.00  0.00    -0.263 NA
ATOM     20  C   LIG    1      -43.752  69.748  22.175  0.00  0.00    +0.111 A 
ATOM     21  C   LIG    1      -42.877  70.306  21.266  0.00  0.00    +0.020 A 
ATOM     22  C   LIG    1      -41.869  71.161  21.740  0.00  0.00    +0.011 A 
ENDBRANCH  12  17
BRANCH  15  23
ATOM     23  C   LIG    1      -37.952  75.435  25.303  0.00  0.00    +0.417 C 
ATOM     24  F   LIG    1      -37.141  76.001  24.367  0.00  0.00    -0.166 F 
ATOM     25  F   LIG    1      -37.124  74.888  26.234  0.00  0.00    -0.166 F 
ATOM     26  F   LIG    1      -38.572  76.476  25.929  0.00  0.00    -0.166 F 
ENDBRANCH  15  23
ENDBRANCH   9  11
ENDBRANCH   8   9
BRANCH   8  27
ATOM     27  O   LIG    1      -37.088  70.160  23.537  0.00  0.00    -0.481 OA
ATOM     28  H   LIG    1      -36.880  70.763  24.255  0.00  0.00    +0.295 HD
ENDBRANCH   8  27
ENDBRANCH   4   7
BRANCH   1  29
ATOM     29  O   LIG    1      -35.967  66.227  18.913  0.00  0.00    -0.424 OA
BRANCH  29  33
ATOM     30  C   LIG    1      -31.785  66.548  18.884  0.00  0.00    +0.002 A 
ATOM     31  C   LIG    1      -32.549  66.592  17.709  0.00  0.00    +0.013 A 
ATOM     32  C   LIG    1      -33.944  66.483  17.750  0.00  0.00    +0.047 A 
ATOM     33  C   LIG    1      -34.595  66.316  18.970  0.00  0.00    +0.132 A 
ATOM     34  C   LIG    1      -33.823  66.207  20.127  0.00  0.00    +0.047 A 
ATOM     35  C   LIG    1      -32.442  66.344  20.092  0.00  0.00    +0.013 A 
BRANCH  30  39
ATOM     36  C   LIG    1      -29.223  69.997  18.467  0.00  0.00    +0.233 A 
ATOM     37  N   LIG    1      -30.142  69.110  18.634  0.00  0.00    -0.127 NA
ATOM     38  N   LIG    1      -29.618  67.845  18.754  0.00  0.00    -0.209 N 
ATOM     39  C   LIG    1      -30.331  66.670  18.893  0.00  0.00    +0.093 A 
ATOM     40  C   LIG    1      -29.355  65.702  19.082  0.00  0.00    +0.141 A 
ATOM     41  N   LIG    1      -28.091  66.218  18.983  0.00  0.00    -0.234 NA
ATOM     42  C   LIG    1      -28.272  67.500  18.759  0.00  0.00    +0.155 A 
ATOM     43  C   LIG    1      -27.336  68.529  18.523  0.00  0.00    +0.053 A 
ATOM     44  C   LIG    1      -27.769  69.784  18.369  0.00  0.00    +0.072 A 
BRANCH  36  46
ATOM     45  C   LIG    1      -28.528  72.082  17.555  0.00  0.00    +0.279 C 
ATOM     46  O   LIG    1      -29.463  71.322  18.328  0.00  0.00    -0.479 OA
ENDBRANCH  36  46
ENDBRANCH  30  39
ENDBRANCH  29  33
ENDBRANCH   1  29
TORSDOF 10
ENDMDL
MODEL 2
REMARK VINA RESULT:      -6.9      1.635      1.891
REMARK  Name = pdb/CHEMBL3919320.pdb
REMARK                            x       y       z     vdW  Elec       q    Type
REMARK                         _______ _______ _______ _____ _____    ______ ____
ROOT
ATOM      1  C   LIG    1      -37.261  66.860  20.079  0.00  0.00    +0.323 A 
ATOM      2  N   LIG    1      -38.168  66.234  20.837  0.00  0.00    -0.201 NA
ATOM      3  C   LIG    1      -38.938  67.040  21.597  0.00  0.00    +0.145 A 
ATOM      4  C   LIG    1      -38.795  68.413  21.723  0.00  0.00    +0.105 A 
ATOM      5  C   LIG    1      -37.846  68.938  20.870  0.00  0.00    +0.145 A 
ATOM      6  N   LIG    1      -37.064  68.187  20.087  0.00  0.00    -0.201 NA
ENDROOT
BRANCH   4   7
ATOM      7  N   LIG    1      -39.519  69.277  22.517  0.00  0.00    -0.196 NA
ATOM      8  C   LIG    1      -40.582  69.915  22.090  0.00  0.00    +0.285 C 
BRANCH   8   9
ATOM      9  N   LIG    1      -41.393  70.719  22.787  0.00  0.00    -0.269 N 
ATOM     10  H   LIG    1      -42.301  70.289  22.974  0.00  0.00    +0.157 HD
BRANCH   9  11
ATOM     11  C   LIG    1      -41.275  72.078  23.120  0.00  0.00    +0.043 A 
ATOM     12  C   LIG    1      -42.259  73.051  22.779  0.00  0.00    +0.005 A 
ATOM     13  C   LIG    1      -41.979  74.386  23.160  0.00  0.00    +0.011 A 
ATOM     14  C   LIG    1      -40.806  74.755  23.848  0.00  0.00    +0.013 A 
ATOM     15  C   LIG    1      -39.863  73.793  24.211  0.00  0.00    +0.057 A 
ATOM     16  C   LIG    1      -40.107  72.471  23.831  0.00  0.00    +0.036 A 
BRANCH  12  17
ATOM     17  C   LIG    1      -43.562  72.733  22.082  0.00  0.00    +0.002 A 
ATOM     18  C   LIG    1      -44.757  72.450  22.756  0.00  0.00    +0.119 A 
ATOM     19  N   LIG    1      -45.981  72.252  22.193  0.00  0.00    -0.263 NA
ATOM     20  C   LIG    1      -46.039  72.265  20.852  0.00  0.00    +0.111 A 
ATOM     21  C   LIG    1      -44.928  72.465  20.059  0.00  0.00    +0.020 A 
ATOM     22  C   LIG    1      -43.689  72.690  20.680  0.00  0.00    +0.011 A 
ENDBRANCH  12  17
BRANCH  15  23
ATOM     23  C   LIG    1      -38.606  74.147  24.972  0.00  0.00    +0.417 C 
ATOM     24  F   LIG    1      -37.633  73.201  24.862  0.00  0.00    -0.166 F 
ATOM     25  F   LIG    1      -38.829  74.302  26.306  0.00  0.00    -0.166 F 
ATOM     26  F   LIG    1      -38.031  75.313  24.558  0.00  0.00    -0.166 F 
ENDBRANCH  15  23
ENDBRANCH   9  11
ENDBRANCH   8   9
BRANCH   8  27
ATOM     27  O   LIG    1      -41.011  69.920  20.823  0.00  0.00    -0.481 OA
ATOM     28  H   LIG    1      -41.282  70.788  20.517  0.00  0.00    +0.295 HD
ENDBRANCH   8  27
ENDBRANCH   4   7
BRANCH   1  29
ATOM     29  O   LIG    1      -36.507  66.045  19.249  0.00  0.00    -0.424 OA
BRANCH  29  33
ATOM     30  C   LIG    1      -32.344  66.515  19.059  0.00  0.00    +0.002 A 
ATOM     31  C   LIG    1      -33.160  66.590  17.922  0.00  0.00    +0.013 A 
ATOM     32  C   LIG    1      -34.547  66.429  18.015  0.00  0.00    +0.047 A 
ATOM     33  C   LIG    1      -35.138  66.180  19.252  0.00  0.00    +0.132 A 
ATOM     34  C   LIG    1      -34.312  66.042  20.369  0.00  0.00    +0.047 A 
ATOM     35  C   LIG    1      -32.940  66.230  20.283  0.00  0.00    +0.013 A 
BRANCH  30  39
ATOM     36  C   LIG    1      -29.924  70.010  18.303  0.00  0.00    +0.233 A 
ATOM     37  N   LIG    1      -30.804  69.106  18.565  0.00  0.00    -0.127 NA
ATOM     38  N   LIG    1      -30.231  67.873  18.764  0.00  0.00    -0.209 N 
ATOM     39  C   LIG    1      -30.895  66.689  19.013  0.00  0.00    +0.093 A 
ATOM     40  C   LIG    1      -29.879  65.772  19.243  0.00  0.00    +0.141 A 
ATOM     41  N   LIG    1      -28.639  66.322  19.066  0.00  0.00    -0.234 NA
ATOM     42  C   LIG    1      -28.874  67.577  18.752  0.00  0.00    +0.155 A 
ATOM     43  C   LIG    1      -27.984  68.616  18.410  0.00  0.00    +0.053 A 
ATOM     44  C   LIG    1      -28.467  69.841  18.176  0.00  0.00    +0.072 A 
BRANCH  36  46
ATOM     45  C   LIG    1      -29.148  72.256  18.185  0.00  0.00    +0.279 C 
ATOM     46  O   LIG    1      -30.218  71.311  18.074  0.00  0.00    -0.479 OA
ENDBRANCH  36  46
ENDBRANCH  30  39
ENDBRANCH  29  33
ENDBRANCH   1  29
TORSDOF 10
ENDMDL
MODEL 3
REMARK VINA RESULT:      -6.9     17.172     20.825
REMARK  Name = pdb/CHEMBL3919320.pdb
REMARK                            x       y       z     vdW  Elec       q    Type
REMARK                         _______ _______ _______ _____ _____    ______ ____
ROOT
ATOM      1  C   LIG    1      -26.101  82.722  37.075  0.00  0.00    +0.323 A 
ATOM      2  N   LIG    1      -27.285  82.181  37.379  0.00  0.00    -0.201 NA
ATOM      3  C   LIG    1      -28.361  82.881  36.965  0.00  0.00    +0.145 A 
ATOM      4  C   LIG    1      -28.332  84.127  36.359  0.00  0.00    +0.105 A 
ATOM      5  C   LIG    1      -27.052  84.560  36.076  0.00  0.00    +0.145 A 
ATOM      6  N   LIG    1      -25.951  83.901  36.452  0.00  0.00    -0.201 NA
ENDROOT
BRANCH   4   7
ATOM      7  N   LIG    1      -29.396  84.908  35.959  0.00  0.00    -0.196 NA
ATOM      8  C   LIG    1      -30.005  84.745  34.808  0.00  0.00    +0.285 C 
BRANCH   8   9
ATOM      9  N   LIG    1      -31.081  85.394  34.350  0.00  0.00    -0.269 N 
ATOM     10  H   LIG    1      -31.918  85.201  34.903  0.00  0.00    +0.157 HD
BRANCH   9  11
ATOM     11  C   LIG    1      -31.282  86.114  33.161  0.00  0.00    +0.043 A 
ATOM     12  C   LIG    1      -30.727  87.407  32.931  0.00  0.00    +0.005 A 
ATOM     13  C   LIG    1      -31.045  88.014  31.692  0.00  0.00    +0.011 A 
ATOM     14  C   LIG    1      -31.855  87.393  30.721  0.00  0.00    +0.013 A 
ATOM     15  C   LIG    1      -32.367  86.113  30.936  0.00  0.00    +0.057 A 
ATOM     16  C   LIG    1      -32.081  85.498  32.158  0.00  0.00    +0.036 A 
BRANCH  12  17
ATOM     17  C   LIG    1      -29.813  88.123  33.900  0.00  0.00    +0.002 A 
ATOM     18  C   LIG    1      -30.240  89.134  34.771  0.00  0.00    +0.119 A 
ATOM     19  N   LIG    1      -29.495  89.748  35.730  0.00  0.00    -0.263 NA
ATOM     20  C   LIG    1      -28.202  89.397  35.809  0.00  0.00    +0.111 A 
ATOM     21  C   LIG    1      -27.629  88.464  34.969  0.00  0.00    +0.020 A 
ATOM     22  C   LIG    1      -28.438  87.836  34.009  0.00  0.00    +0.011 A 
ENDBRANCH  12  17
BRANCH  15  23
ATOM     23  C   LIG    1      -33.218  85.404  29.907  0.00  0.00    +0.417 C 
ATOM     24  F   LIG    1      -32.794  85.616  28.630  0.00  0.00    -0.166 F 
ATOM     25  F   LIG    1      -34.518  85.802  29.941  0.00  0.00    -0.166 F 
ATOM     26  F   LIG    1      -33.243  84.049  30.065  0.00  0.00    -0.166 F 
ENDBRANCH  15  23
ENDBRANCH   9  11
ENDBRANCH   8   9
BRANCH   8  27
ATOM     27  O   LIG    1      -29.598  83.917  33.840  0.00  0.00    -0.481 OA
ATOM     28  H   LIG    1      -29.145  83.139  34.172  0.00  0.00    +0.295 HD
ENDBRANCH   8  27
ENDBRANCH   4   7
BRANCH   1  29
ATOM     29  O   LIG    1      -24.989  81.979  37.443  0.00  0.00    -0.424 OA
BRANCH  29  33
ATOM     30  C   LIG    1      -23.256  79.487  34.548  0.00  0.00    +0.002 A 
ATOM     31  C   LIG    1      -24.430  79.140  35.232  0.00  0.00    +0.013 A 
ATOM     32  C   LIG    1      -24.986  79.992  36.193  0.00  0.00    +0.047 A 
ATOM     33  C   LIG    1      -24.366  81.204  36.492  0.00  0.00    +0.132 A 
ATOM     34  C   LIG    1      -23.164  81.512  35.855  0.00  0.00    +0.047 A 
ATOM     35  C   LIG    1      -22.627  80.682  34.880  0.00  0.00    +0.013 A 
BRANCH  30  39
ATOM     36  C   LIG    1      -25.016  77.155  31.369  0.00  0.00    +0.233 A 
ATOM     37  N   LIG    1      -24.679  77.952  32.324  0.00  0.00    -0.127 NA
ATOM     38  N   LIG    1      -23.323  77.939  32.550  0.00  0.00    -0.209 N 
ATOM     39  C   LIG    1      -22.647  78.638  33.529  0.00  0.00    +0.093 A 
ATOM     40  C   LIG    1      -21.309  78.374  33.272  0.00  0.00    +0.141 A 
ATOM     41  N   LIG    1      -21.148  77.488  32.241  0.00  0.00    -0.234 NA
ATOM     42  C   LIG    1      -22.370  77.219  31.840  0.00  0.00    +0.155 A 
ATOM     43  C   LIG    1      -22.832  76.335  30.843  0.00  0.00    +0.053 A 
ATOM     44  C   LIG    1      -24.142  76.270  30.580  0.00  0.00    +0.072 A 
BRANCH  36  46
ATOM     45  C   LIG    1      -27.159  76.199  31.760  0.00  0.00    +0.279 C 
ATOM     46  O   LIG    1      -26.287  76.982  30.938  0.00  0.00    -0.479 OA
ENDBRANCH  36  46
ENDBRANCH  30  39
ENDBRANCH  29  33
ENDBRANCH   1  29
TORSDOF 10
ENDMDL
MODEL 4
REMARK VINA RESULT:      -6.6     14.898     19.171
REMARK  Name = pdb/CHEMBL3919320.pdb
REMARK                            x       y       z     vdW  Elec       q    Type
REMARK                         _______ _______ _______ _____ _____    ______ ____
ROOT
ATOM      1  C   LIG    1      -28.705  78.041  11.450  0.00  0.00    +0.323 A 
ATOM      2  N   LIG    1      -27.793  79.018  11.484  0.00  0.00    -0.201 NA
ATOM      3  C   LIG    1      -26.824  78.868  12.411  0.00  0.00    +0.145 A 
ATOM      4  C   LIG    1      -26.764  77.865  13.365  0.00  0.00    +0.105 A 
ATOM      5  C   LIG    1      -27.745  76.907  13.204  0.00  0.00    +0.145 A 
ATOM      6  N   LIG    1      -28.721  76.999  12.295  0.00  0.00    -0.201 NA
ENDROOT
BRANCH   4   7
ATOM      7  N   LIG    1      -25.829  77.690  14.362  0.00  0.00    -0.196 NA
ATOM      8  C   LIG    1      -24.575  77.391  14.118  0.00  0.00    +0.285 C 
BRANCH   8   9
ATOM      9  N   LIG    1      -23.574  77.265  14.997  0.00  0.00    -0.269 N 
ATOM     10  H   LIG    1      -23.705  76.472  15.627  0.00  0.00    +0.157 HD
BRANCH   9  11
ATOM     11  C   LIG    1      -22.513  78.130  15.309  0.00  0.00    +0.043 A 
ATOM     12  C   LIG    1      -21.147  77.724  15.295  0.00  0.00    +0.005 A 
ATOM     13  C   LIG    1      -20.196  78.707  15.663  0.00  0.00    +0.011 A 
ATOM     14  C   LIG    1      -20.555  80.023  16.017  0.00  0.00    +0.013 A 
ATOM     15  C   LIG    1      -21.890  80.426  15.996  0.00  0.00    +0.057 A 
ATOM     16  C   LIG    1      -22.850  79.469  15.652  0.00  0.00    +0.036 A 
BRANCH  12  17
ATOM     17  C   LIG    1      -20.675  76.347  14.884  0.00  0.00    +0.002 A 
ATOM     18  C   LIG    1      -20.483  75.954  13.554  0.00  0.00    +0.119 A 
ATOM     19  N   LIG    1      -19.971  74.769  13.123  0.00  0.00    -0.263 NA
ATOM     20  C   LIG    1      -19.678  73.858  14.065  0.00  0.00    +0.111 A 
ATOM     21  C   LIG    1      -19.881  74.084  15.410  0.00  0.00    +0.020 A 
ATOM     22  C   LIG    1      -20.388  75.329  15.815  0.00  0.00    +0.011 A 
ENDBRANCH  12  17
BRANCH  15  23
ATOM     23  C   LIG    1      -22.310  81.835  16.344  0.00  0.00    +0.417 C 
ATOM     24  F   LIG    1      -22.613  81.989  17.663  0.00  0.00    -0.166 F 
ATOM     25  F   LIG    1      -23.413  82.237  15.656  0.00  0.00    -0.166 F 
ATOM     26  F   LIG    1      -21.350  82.769  16.078  0.00  0.00    -0.166 F 
ENDBRANCH  15  23
ENDBRANCH   9  11
ENDBRANCH   8   9
BRANCH   8  27
ATOM     27  O   LIG    1      -24.084  77.087  12.911  0.00  0.00    -0.481 OA
ATOM     28  H   LIG    1      -23.194  77.418  12.769  0.00  0.00    +0.295 HD
ENDBRANCH   8  27
ENDBRANCH   4   7
BRANCH   1  29
ATOM     29  O   LIG    1      -29.670  78.154  10.460  0.00  0.00    -0.424 OA
BRANCH  29  33
ATOM     30  C   LIG    1      -32.496  81.250  10.605  0.00  0.00    +0.002 A 
ATOM     31  C   LIG    1      -31.491  81.195   9.628  0.00  0.00    +0.013 A 
ATOM     32  C   LIG    1      -30.562  80.149   9.604  0.00  0.00    +0.047 A 
ATOM     33  C   LIG    1      -30.618  79.145  10.568  0.00  0.00    +0.132 A 
ATOM     34  C   LIG    1      -31.579  79.241  11.575  0.00  0.00    +0.047 A 
ATOM     35  C   LIG    1      -32.519  80.262  11.583  0.00  0.00    +0.013 A 
BRANCH  30  39
ATOM     36  C   LIG    1      -32.117  85.459  11.488  0.00  0.00    +0.233 A 
ATOM     37  N   LIG    1      -32.019  84.208  11.192  0.00  0.00    -0.127 NA
ATOM     38  N   LIG    1      -33.246  83.639  10.955  0.00  0.00    -0.209 N 
ATOM     39  C   LIG    1      -33.494  82.312  10.663  0.00  0.00    +0.093 A 
ATOM     40  C   LIG    1      -34.858  82.270  10.407  0.00  0.00    +0.141 A 
ATOM     41  N   LIG    1      -35.457  83.484  10.608  0.00  0.00    -0.234 NA
ATOM     42  C   LIG    1      -34.477  84.284  10.963  0.00  0.00    +0.155 A 
ATOM     43  C   LIG    1      -34.497  85.642  11.344  0.00  0.00    +0.053 A 
ATOM     44  C   LIG    1      -33.344  86.263  11.617  0.00  0.00    +0.072 A 
BRANCH  36  46
ATOM     45  C   LIG    1      -29.835  85.988  11.071  0.00  0.00    +0.279 C 
ATOM     46  O   LIG    1      -31.060  86.259  11.760  0.00  0.00    -0.479 OA
ENDBRANCH  36  46
ENDBRANCH  30  39
ENDBRANCH  29  33
ENDBRANCH   1  29
TORSDOF 10
ENDMDL
MODEL 5
REMARK VINA RESULT:      -6.6     14.301     18.995
REMARK  Name = pdb/CHEMBL3919320.pdb
REMARK                            x       y       z     vdW  Elec       q    Type
REMARK                         _______ _______ _______ _____ _____    ______ ____
ROOT
ATOM      1  C   LIG    1      -28.648  75.618  32.239  0.00  0.00    +0.323 A 
ATOM      2  N   LIG    1      -28.726  76.299  33.386  0.00  0.00    -0.201 NA
ATOM      3  C   LIG    1      -27.675  77.104  33.650  0.00  0.00    +0.145 A 
ATOM      4  C   LIG    1      -26.515  77.195  32.896  0.00  0.00    +0.105 A 
ATOM      5  C   LIG    1      -26.573  76.464  31.726  0.00  0.00    +0.145 A 
ATOM      6  N   LIG    1      -27.594  75.662  31.409  0.00  0.00    -0.201 NA
ENDROOT
BRANCH   4   7
ATOM      7  N   LIG    1      -25.395  77.959  33.142  0.00  0.00    -0.196 NA
ATOM      8  C   LIG    1      -24.398  77.544  33.887  0.00  0.00    +0.285 C 
BRANCH   8   9
ATOM      9  N   LIG    1      -23.242  78.169  34.135  0.00  0.00    -0.269 N 
ATOM     10  H   LIG    1      -23.308  78.810  34.928  0.00  0.00    +0.157 HD
BRANCH   9  11
ATOM     11  C   LIG    1      -22.054  78.232  33.390  0.00  0.00    +0.043 A 
ATOM     12  C   LIG    1      -20.934  79.025  33.775  0.00  0.00    +0.005 A 
ATOM     13  C   LIG    1      -19.820  79.004  32.901  0.00  0.00    +0.011 A 
ATOM     14  C   LIG    1      -19.792  78.243  31.715  0.00  0.00    +0.013 A 
ATOM     15  C   LIG    1      -20.877  77.442  31.360  0.00  0.00    +0.057 A 
ATOM     16  C   LIG    1      -21.996  77.457  32.198  0.00  0.00    +0.036 A 
BRANCH  12  17
ATOM     17  C   LIG    1      -20.865  79.833  35.051  0.00  0.00    +0.002 A 
ATOM     18  C   LIG    1      -20.407  79.325  36.273  0.00  0.00    +0.119 A 
ATOM     19  N   LIG    1      -20.229  80.021  37.429  0.00  0.00    -0.263 NA
ATOM     20  C   LIG    1      -20.589  81.314  37.416  0.00  0.00    +0.111 A 
ATOM     21  C   LIG    1      -21.119  81.931  36.302  0.00  0.00    +0.020 A 
ATOM     22  C   LIG    1      -21.263  81.183  35.123  0.00  0.00    +0.011 A 
ENDBRANCH  12  17
BRANCH  15  23
ATOM     23  C   LIG    1      -20.873  76.592  30.110  0.00  0.00    +0.417 C 
ATOM     24  F   LIG    1      -20.250  77.194  29.060  0.00  0.00    -0.166 F 
ATOM     25  F   LIG    1      -22.128  76.291  29.679  0.00  0.00    -0.166 F 
ATOM     26  F   LIG    1      -20.242  75.393  30.271  0.00  0.00    -0.166 F 
ENDBRANCH  15  23
ENDBRANCH   9  11
ENDBRANCH   8   9
BRANCH   8  27
ATOM     27  O   LIG    1      -24.399  76.412  34.599  0.00  0.00    -0.481 OA
ATOM     28  H   LIG    1      -23.525  76.154  34.903  0.00  0.00    +0.295 HD
ENDBRANCH   8  27
ENDBRANCH   4   7
BRANCH   1  29
ATOM     29  O   LIG    1      -29.750  74.836  31.928  0.00  0.00    -0.424 OA
BRANCH  29  33
ATOM     30  C   LIG    1      -32.891  76.482  29.688  0.00  0.00    +0.002 A 
ATOM     31  C   LIG    1      -33.043  76.106  31.031  0.00  0.00    +0.013 A 
ATOM     32  C   LIG    1      -31.976  75.559  31.754  0.00  0.00    +0.047 A 
ATOM     33  C   LIG    1      -30.741  75.371  31.138  0.00  0.00    +0.132 A 
ATOM     34  C   LIG    1      -30.617  75.686  29.784  0.00  0.00    +0.047 A 
ATOM     35  C   LIG    1      -31.664  76.256  29.074  0.00  0.00    +0.013 A 
BRANCH  30  39
ATOM     36  C   LIG    1      -36.223  74.658  27.638  0.00  0.00    +0.233 A 
ATOM     37  N   LIG    1      -35.215  75.017  28.356  0.00  0.00    -0.127 NA
ATOM     38  N   LIG    1      -34.994  76.372  28.289  0.00  0.00    -0.209 N 
ATOM     39  C   LIG    1      -33.969  77.068  28.898  0.00  0.00    +0.093 A 
ATOM     40  C   LIG    1      -34.247  78.398  28.616  0.00  0.00    +0.141 A 
ATOM     41  N   LIG    1      -35.339  78.534  27.802  0.00  0.00    -0.234 NA
ATOM     42  C   LIG    1      -35.755  77.305  27.596  0.00  0.00    +0.155 A 
ATOM     43  C   LIG    1      -36.812  76.819  26.798  0.00  0.00    +0.053 A 
ATOM     44  C   LIG    1      -37.075  75.508  26.788  0.00  0.00    +0.072 A 
BRANCH  36  46
ATOM     45  C   LIG    1      -35.779  72.344  27.966  0.00  0.00    +0.279 C 
ATOM     46  O   LIG    1      -36.663  73.383  27.531  0.00  0.00    -0.479 OA
ENDBRANCH  36  46
ENDBRANCH  30  39
ENDBRANCH  29  33
ENDBRANCH   1  29
TORSDOF 10
ENDMDL
MODEL 6
REMARK VINA RESULT:      -6.5     12.881     17.610
REMARK  Name = pdb/CHEMBL3919320.pdb
REMARK                            x       y       z     vdW  Elec       q    Type
REMARK                         _______ _______ _______ _____ _____    ______ ____
ROOT
ATOM      1  C   LIG    1      -29.801  74.867  31.722  0.00  0.00    +0.323 A 
ATOM      2  N   LIG    1      -28.710  74.194  32.104  0.00  0.00    -0.201 NA
ATOM      3  C   LIG    1      -27.630  74.956  32.374  0.00  0.00    +0.145 A 
ATOM      4  C   LIG    1      -27.540  76.327  32.193  0.00  0.00    +0.105 A 
ATOM      5  C   LIG    1      -28.740  76.903  31.823  0.00  0.00    +0.145 A 
ATOM      6  N   LIG    1      -29.843  76.198  31.556  0.00  0.00    -0.201 NA
ENDROOT
BRANCH   4   7
ATOM      7  N   LIG    1      -26.453  77.147  32.406  0.00  0.00    -0.196 NA
ATOM      8  C   LIG    1      -25.609  77.473  31.455  0.00  0.00    +0.285 C 
BRANCH   8   9
ATOM      9  N   LIG    1      -24.567  78.308  31.532  0.00  0.00    -0.269 N 
ATOM     10  H   LIG    1      -24.753  79.206  31.082  0.00  0.00    +0.157 HD
BRANCH   9  11
ATOM     11  C   LIG    1      -23.242  78.087  31.942  0.00  0.00    +0.043 A 
ATOM     12  C   LIG    1      -22.737  78.514  33.204  0.00  0.00    +0.005 A 
ATOM     13  C   LIG    1      -21.370  78.241  33.457  0.00  0.00    +0.011 A 
ATOM     14  C   LIG    1      -20.538  77.579  32.532  0.00  0.00    +0.013 A 
ATOM     15  C   LIG    1      -21.046  77.133  31.313  0.00  0.00    +0.057 A 
ATOM     16  C   LIG    1      -22.389  77.403  31.032  0.00  0.00    +0.036 A 
BRANCH  12  17
ATOM     17  C   LIG    1      -23.572  79.189  34.269  0.00  0.00    +0.002 A 
ATOM     18  C   LIG    1      -24.742  78.640  34.807  0.00  0.00    +0.119 A 
ATOM     19  N   LIG    1      -25.483  79.148  35.829  0.00  0.00    -0.263 NA
ATOM     20  C   LIG    1      -25.089  80.328  36.333  0.00  0.00    +0.111 A 
ATOM     21  C   LIG    1      -23.993  81.016  35.855  0.00  0.00    +0.020 A 
ATOM     22  C   LIG    1      -23.242  80.446  34.815  0.00  0.00    +0.011 A 
ENDBRANCH  12  17
BRANCH  15  23
ATOM     23  C   LIG    1      -20.192  76.395  30.308  0.00  0.00    +0.417 C 
ATOM     24  F   LIG    1      -20.056  75.071  30.595  0.00  0.00    -0.166 F 
ATOM     25  F   LIG    1      -18.927  76.893  30.232  0.00  0.00    -0.166 F 
ATOM     26  F   LIG    1      -20.683  76.446  29.036  0.00  0.00    -0.166 F 
ENDBRANCH  15  23
ENDBRANCH   9  11
ENDBRANCH   8   9
BRANCH   8  27
ATOM     27  O   LIG    1      -25.613  76.955  30.222  0.00  0.00    -0.481 OA
ATOM     28  H   LIG    1      -24.744  76.937  29.814  0.00  0.00    +0.295 HD
ENDBRANCH   8  27
ENDBRANCH   4   7
BRANCH   1  29
ATOM     29  O   LIG    1      -30.934  74.098  31.502  0.00  0.00    -0.424 OA
BRANCH  29  33
ATOM     30  C   LIG    1      -33.993  75.624  29.072  0.00  0.00    +0.002 A 
ATOM     31  C   LIG    1      -34.090  75.593  30.470  0.00  0.00    +0.013 A 
ATOM     32  C   LIG    1      -33.053  75.078  31.256  0.00  0.00    +0.047 A 
ATOM     33  C   LIG    1      -31.903  74.575  30.650  0.00  0.00    +0.132 A 
ATOM     34  C   LIG    1      -31.843  74.548  29.256  0.00  0.00    +0.047 A 
ATOM     35  C   LIG    1      -32.858  75.085  28.477  0.00  0.00    +0.013 A 
BRANCH  30  39
ATOM     36  C   LIG    1      -37.128  73.659  26.845  0.00  0.00    +0.233 A 
ATOM     37  N   LIG    1      -36.179  74.062  27.618  0.00  0.00    -0.127 NA
ATOM     38  N   LIG    1      -36.003  75.423  27.550  0.00  0.00    -0.209 N 
ATOM     39  C   LIG    1      -35.042  76.162  28.212  0.00  0.00    +0.093 A 
ATOM     40  C   LIG    1      -35.352  77.478  27.899  0.00  0.00    +0.141 A 
ATOM     41  N   LIG    1      -36.397  77.567  27.020  0.00  0.00    -0.234 NA
ATOM     42  C   LIG    1      -36.754  76.321  26.802  0.00  0.00    +0.155 A 
ATOM     43  C   LIG    1      -37.743  75.789  25.948  0.00  0.00    +0.053 A 
ATOM     44  C   LIG    1      -37.958  74.469  25.937  0.00  0.00    +0.072 A 
BRANCH  36  46
ATOM     45  C   LIG    1      -37.398  71.764  25.434  0.00  0.00    +0.279 C 
ATOM     46  O   LIG    1      -37.514  72.368  26.727  0.00  0.00    -0.479 OA
ENDBRANCH  36  46
ENDBRANCH  30  39
ENDBRANCH  29  33
ENDBRANCH   1  29
TORSDOF 10
ENDMDL
MODEL 7
REMARK VINA RESULT:      -6.5     17.731     20.900
REMARK  Name = pdb/CHEMBL3919320.pdb
REMARK                            x       y       z     vdW  Elec       q    Type
REMARK                         _______ _______ _______ _____ _____    ______ ____
ROOT
ATOM      1  C   LIG    1      -25.975  81.484  36.935  0.00  0.00    +0.323 A 
ATOM      2  N   LIG    1      -25.324  82.626  36.692  0.00  0.00    -0.201 NA
ATOM      3  C   LIG    1      -26.088  83.738  36.705  0.00  0.00    +0.145 A 
ATOM      4  C   LIG    1      -27.466  83.772  36.844  0.00  0.00    +0.105 A 
ATOM      5  C   LIG    1      -28.012  82.534  37.117  0.00  0.00    +0.145 A 
ATOM      6  N   LIG    1      -27.301  81.402  37.129  0.00  0.00    -0.201 NA
ENDROOT
BRANCH   4   7
ATOM      7  N   LIG    1      -28.300  84.869  36.817  0.00  0.00    -0.196 NA
ATOM      8  C   LIG    1      -28.849  85.320  35.714  0.00  0.00    +0.285 C 
BRANCH   8   9
ATOM      9  N   LIG    1      -29.720  86.326  35.582  0.00  0.00    -0.269 N 
ATOM     10  H   LIG    1      -30.629  86.112  35.997  0.00  0.00    +0.157 HD
BRANCH   9  11
ATOM     11  C   LIG    1      -29.653  87.504  34.821  0.00  0.00    +0.043 A 
ATOM     12  C   LIG    1      -30.449  87.727  33.660  0.00  0.00    +0.005 A 
ATOM     13  C   LIG    1      -30.243  88.956  32.985  0.00  0.00    +0.011 A 
ATOM     14  C   LIG    1      -29.317  89.923  33.423  0.00  0.00    +0.013 A 
ATOM     15  C   LIG    1      -28.566  89.715  34.579  0.00  0.00    +0.057 A 
ATOM     16  C   LIG    1      -28.738  88.503  35.255  0.00  0.00    +0.036 A 
BRANCH  12  17
ATOM     17  C   LIG    1      -31.496  86.763  33.149  0.00  0.00    +0.002 A 
ATOM     18  C   LIG    1      -32.821  86.739  33.602  0.00  0.00    +0.119 A 
ATOM     19  N   LIG    1      -33.831  85.966  33.118  0.00  0.00    -0.263 NA
ATOM     20  C   LIG    1      -33.514  85.091  32.151  0.00  0.00    +0.111 A 
ATOM     21  C   LIG    1      -32.233  84.958  31.656  0.00  0.00    +0.020 A 
ATOM     22  C   LIG    1      -31.224  85.792  32.165  0.00  0.00    +0.011 A 
ENDBRANCH  12  17
BRANCH  15  23
ATOM     23  C   LIG    1      -27.582  90.741  35.094  0.00  0.00    +0.417 C 
ATOM     24  F   LIG    1      -27.281  91.697  34.173  0.00  0.00    -0.166 F 
ATOM     25  F   LIG    1      -26.395  90.187  35.462  0.00  0.00    -0.166 F 
ATOM     26  F   LIG    1      -28.028  91.418  36.192  0.00  0.00    -0.166 F 
ENDBRANCH  15  23
ENDBRANCH   9  11
ENDBRANCH   8   9
BRANCH   8  27
ATOM     27  O   LIG    1      -28.570  84.871  34.485  0.00  0.00    -0.481 OA
ATOM     28  H   LIG    1      -28.025  84.081  34.485  0.00  0.00    +0.295 HD
ENDBRANCH   8  27
ENDBRANCH   4   7
BRANCH   1  29
ATOM     29  O   LIG    1      -25.189  80.343  36.986  0.00  0.00    -0.424 OA
BRANCH  29  33
ATOM     30  C   LIG    1      -24.471  78.234  33.432  0.00  0.00    +0.002 A 
ATOM     31  C   LIG    1      -25.506  77.889  34.314  0.00  0.00    +0.013 A 
ATOM     32  C   LIG    1      -25.722  78.612  35.493  0.00  0.00    +0.047 A 
ATOM     33  C   LIG    1      -24.896  79.687  35.813  0.00  0.00    +0.132 A 
ATOM     34  C   LIG    1      -23.828  79.982  34.964  0.00  0.00    +0.047 A 
ATOM     35  C   LIG    1      -23.630  79.285  33.780  0.00  0.00    +0.013 A 
BRANCH  30  39
ATOM     36  C   LIG    1      -20.815  77.586  31.229  0.00  0.00    +0.233 A 
ATOM     37  N   LIG    1      -21.778  77.829  32.050  0.00  0.00    -0.127 NA
ATOM     38  N   LIG    1      -22.985  77.375  31.576  0.00  0.00    -0.209 N 
ATOM     39  C   LIG    1      -24.215  77.519  32.186  0.00  0.00    +0.093 A 
ATOM     40  C   LIG    1      -25.083  76.805  31.372  0.00  0.00    +0.141 A 
ATOM     41  N   LIG    1      -24.457  76.307  30.263  0.00  0.00    -0.234 NA
ATOM     42  C   LIG    1      -23.205  76.683  30.391  0.00  0.00    +0.155 A 
ATOM     43  C   LIG    1      -22.102  76.502  29.529  0.00  0.00    +0.053 A 
ATOM     44  C   LIG    1      -20.897  76.940  29.908  0.00  0.00    +0.072 A 
BRANCH  36  46
ATOM     45  C   LIG    1      -19.073  77.925  32.813  0.00  0.00    +0.279 C 
ATOM     46  O   LIG    1      -19.523  77.920  31.454  0.00  0.00    -0.479 OA
ENDBRANCH  36  46
ENDBRANCH  30  39
ENDBRANCH  29  33
ENDBRANCH   1  29
TORSDOF 10
ENDMDL
MODEL 8
REMARK VINA RESULT:      -6.5     18.684     22.191
REMARK  Name = pdb/CHEMBL3919320.pdb
REMARK                            x       y       z     vdW  Elec       q    Type
REMARK                         _______ _______ _______ _____ _____    ______ ____
ROOT
ATOM      1  C   LIG    1      -25.595  81.387  37.364  0.00  0.00    +0.323 A 
ATOM      2  N   LIG    1      -24.888  82.414  37.848  0.00  0.00    -0.201 NA
ATOM      3  C   LIG    1      -25.573  83.567  37.990  0.00  0.00    +0.145 A 
ATOM      4  C   LIG    1      -26.881  83.788  37.589  0.00  0.00    +0.105 A 
ATOM      5  C   LIG    1      -27.505  82.644  37.133  0.00  0.00    +0.145 A 
ATOM      6  N   LIG    1      -26.879  81.472  36.984  0.00  0.00    -0.201 NA
ENDROOT
BRANCH   4   7
ATOM      7  N   LIG    1      -27.613  84.953  37.665  0.00  0.00    -0.196 NA
ATOM      8  C   LIG    1      -27.583  85.875  36.731  0.00  0.00    +0.285 C 
BRANCH   8   9
ATOM      9  N   LIG    1      -28.297  87.004  36.668  0.00  0.00    -0.269 N 
ATOM     10  H   LIG    1      -28.806  87.192  37.534  0.00  0.00    +0.157 HD
BRANCH   9  11
ATOM     11  C   LIG    1      -28.606  87.836  35.580  0.00  0.00    +0.043 A 
ATOM     12  C   LIG    1      -28.088  89.156  35.439  0.00  0.00    +0.005 A 
ATOM     13  C   LIG    1      -28.517  89.879  34.298  0.00  0.00    +0.011 A 
ATOM     14  C   LIG    1      -29.397  89.341  33.338  0.00  0.00    +0.013 A 
ATOM     15  C   LIG    1      -29.873  88.036  33.463  0.00  0.00    +0.057 A 
ATOM     16  C   LIG    1      -29.478  87.307  34.588  0.00  0.00    +0.036 A 
BRANCH  12  17
ATOM     17  C   LIG    1      -27.107  89.791  36.398  0.00  0.00    +0.002 A 
ATOM     18  C   LIG    1      -27.485  90.510  37.538  0.00  0.00    +0.119 A 
ATOM     19  N   LIG    1      -26.657  91.021  38.490  0.00  0.00    -0.263 NA
ATOM     20  C   LIG    1      -25.338  90.877  38.284  0.00  0.00    +0.111 A 
ATOM     21  C   LIG    1      -24.821  90.250  37.169  0.00  0.00    +0.020 A 
ATOM     22  C   LIG    1      -25.711  89.715  36.224  0.00  0.00    +0.011 A 
ENDBRANCH  12  17
BRANCH  15  23
ATOM     23  C   LIG    1      -30.797  87.417  32.439  0.00  0.00    +0.417 C 
ATOM     24  F   LIG    1      -30.242  87.344  31.198  0.00  0.00    -0.166 F 
ATOM     25  F   LIG    1      -31.956  88.115  32.292  0.00  0.00    -0.166 F 
ATOM     26  F   LIG    1      -31.172  86.142  32.748  0.00  0.00    -0.166 F 
ENDBRANCH  15  23
ENDBRANCH   9  11
ENDBRANCH   8   9
BRANCH   8  27
ATOM     27  O   LIG    1      -26.756  85.869  35.679  0.00  0.00    -0.481 OA
ATOM     28  H   LIG    1      -26.134  85.137  35.690  0.00  0.00    +0.295 HD
ENDBRANCH   8  27
ENDBRANCH   4   7
BRANCH   1  29
ATOM     29  O   LIG    1      -24.917  80.181  37.273  0.00  0.00    -0.424 OA
BRANCH  29  33
ATOM     30  C   LIG    1      -24.429  78.436  33.490  0.00  0.00    +0.002 A 
ATOM     31  C   LIG    1      -23.670  79.536  33.913  0.00  0.00    +0.013 A 
ATOM     32  C   LIG    1      -23.854  80.097  35.182  0.00  0.00    +0.047 A 
ATOM     33  C   LIG    1      -24.813  79.570  36.045  0.00  0.00    +0.132 A 
ATOM     34  C   LIG    1      -25.609  78.518  35.592  0.00  0.00    +0.047 A 
ATOM     35  C   LIG    1      -25.408  77.941  34.346  0.00  0.00    +0.013 A 
BRANCH  30  39
ATOM     36  C   LIG    1      -20.879  77.458  31.237  0.00  0.00    +0.233 A 
ATOM     37  N   LIG    1      -21.806  77.764  32.077  0.00  0.00    -0.127 NA
ATOM     38  N   LIG    1      -23.060  77.540  31.562  0.00  0.00    -0.209 N 
ATOM     39  C   LIG    1      -24.264  77.808  32.183  0.00  0.00    +0.093 A 
ATOM     40  C   LIG    1      -25.217  77.309  31.306  0.00  0.00    +0.141 A 
ATOM     41  N   LIG    1      -24.655  76.827  30.155  0.00  0.00    -0.234 NA
ATOM     42  C   LIG    1      -23.363  77.001  30.318  0.00  0.00    +0.155 A 
ATOM     43  C   LIG    1      -22.287  76.738  29.444  0.00  0.00    +0.053 A 
ATOM     44  C   LIG    1      -21.036  76.955  29.862  0.00  0.00    +0.072 A 
BRANCH  36  46
ATOM     45  C   LIG    1      -19.158  78.533  32.479  0.00  0.00    +0.279 C 
ATOM     46  O   LIG    1      -19.555  77.575  31.492  0.00  0.00    -0.479 OA
ENDBRANCH  36  46
ENDBRANCH  30  39
ENDBRANCH  29  33
ENDBRANCH   1  29
TORSDOF 10
ENDMDL
MODEL 9
REMARK VINA RESULT:      -6.4     13.631     18.517
REMARK  Name = pdb/CHEMBL3919320.pdb
REMARK                            x       y       z     vdW  Elec       q    Type
REMARK                         _______ _______ _______ _____ _____    ______ ____
ROOT
ATOM      1  C   LIG    1      -29.750  75.263  31.466  0.00  0.00    +0.323 A 
ATOM      2  N   LIG    1      -28.738  74.440  31.759  0.00  0.00    -0.201 NA
ATOM      3  C   LIG    1      -27.601  75.045  32.160  0.00  0.00    +0.145 A 
ATOM      4  C   LIG    1      -27.380  76.413  32.191  0.00  0.00    +0.105 A 
ATOM      5  C   LIG    1      -28.509  77.150  31.894  0.00  0.00    +0.145 A 
ATOM      6  N   LIG    1      -29.664  76.602  31.504  0.00  0.00    -0.201 NA
ENDROOT
BRANCH   4   7
ATOM      7  N   LIG    1      -26.228  77.084  32.544  0.00  0.00    -0.196 NA
ATOM      8  C   LIG    1      -25.369  77.536  31.662  0.00  0.00    +0.285 C 
BRANCH   8   9
ATOM      9  N   LIG    1      -24.263  78.254  31.887  0.00  0.00    -0.269 N 
ATOM     10  H   LIG    1      -24.290  79.167  31.429  0.00  0.00    +0.157 HD
BRANCH   9  11
ATOM     11  C   LIG    1      -23.035  77.892  32.463  0.00  0.00    +0.043 A 
ATOM     12  C   LIG    1      -22.577  78.410  33.710  0.00  0.00    +0.005 A 
ATOM     13  C   LIG    1      -21.303  77.968  34.143  0.00  0.00    +0.011 A 
ATOM     14  C   LIG    1      -20.517  77.061  33.405  0.00  0.00    +0.013 A 
ATOM     15  C   LIG    1      -20.984  76.530  32.203  0.00  0.00    +0.057 A 
ATOM     16  C   LIG    1      -22.232  76.962  31.746  0.00  0.00    +0.036 A 
BRANCH  12  17
ATOM     17  C   LIG    1      -23.376  79.351  34.583  0.00  0.00    +0.002 A 
ATOM     18  C   LIG    1      -24.687  79.098  35.005  0.00  0.00    +0.119 A 
ATOM     19  N   LIG    1      -25.425  79.852  35.866  0.00  0.00    -0.263 NA
ATOM     20  C   LIG    1      -24.863  80.988  36.307  0.00  0.00    +0.111 A 
ATOM     21  C   LIG    1      -23.603  81.398  35.921  0.00  0.00    +0.020 A 
ATOM     22  C   LIG    1      -22.867  80.578  35.050  0.00  0.00    +0.011 A 
ENDBRANCH  12  17
BRANCH  15  23
ATOM     23  C   LIG    1      -20.180  75.534  31.398  0.00  0.00    +0.417 C 
ATOM     24  F   LIG    1      -20.071  75.878  30.085  0.00  0.00    -0.166 F 
ATOM     25  F   LIG    1      -20.726  74.288  31.415  0.00  0.00    -0.166 F 
ATOM     26  F   LIG    1      -18.900  75.382  31.845  0.00  0.00    -0.166 F 
ENDBRANCH  15  23
ENDBRANCH   9  11
ENDBRANCH   8   9
BRANCH   8  27
ATOM     27  O   LIG    1      -25.424  77.292  30.348  0.00  0.00    -0.481 OA
ATOM     28  H   LIG    1      -25.204  76.386  30.121  0.00  0.00    +0.295 HD
ENDBRANCH   8  27
ENDBRANCH   4   7
BRANCH   1  29
ATOM     29  O   LIG    1      -30.942  74.648  31.113  0.00  0.00    -0.424 OA
BRANCH  29  33
ATOM     30  C   LIG    1      -33.937  76.913  29.245  0.00  0.00    +0.002 A 
ATOM     31  C   LIG    1      -34.023  76.517  30.587  0.00  0.00    +0.013 A 
ATOM     32  C   LIG    1      -33.007  75.761  31.184  0.00  0.00    +0.047 A 
ATOM     33  C   LIG    1      -31.892  75.381  30.441  0.00  0.00    +0.132 A 
ATOM     34  C   LIG    1      -31.846  75.723  29.088  0.00  0.00    +0.047 A 
ATOM     35  C   LIG    1      -32.837  76.496  28.502  0.00  0.00    +0.013 A 
BRANCH  30  39
ATOM     36  C   LIG    1      -34.883  81.116  29.519  0.00  0.00    +0.233 A 
ATOM     37  N   LIG    1      -34.413  79.916  29.524  0.00  0.00    -0.127 NA
ATOM     38  N   LIG    1      -35.166  79.066  28.750  0.00  0.00    -0.209 N 
ATOM     39  C   LIG    1      -34.964  77.711  28.582  0.00  0.00    +0.093 A 
ATOM     40  C   LIG    1      -35.909  77.341  27.637  0.00  0.00    +0.141 A 
ATOM     41  N   LIG    1      -36.722  78.385  27.286  0.00  0.00    -0.234 NA
ATOM     42  C   LIG    1      -36.276  79.403  27.986  0.00  0.00    +0.155 A 
ATOM     43  C   LIG    1      -36.750  80.729  28.076  0.00  0.00    +0.053 A 
ATOM     44  C   LIG    1      -36.087  81.611  28.831  0.00  0.00    +0.072 A 
BRANCH  36  46
ATOM     45  C   LIG    1      -34.554  83.467  29.676  0.00  0.00    +0.279 C 
ATOM     46  O   LIG    1      -34.329  82.151  30.192  0.00  0.00    -0.479 OA
ENDBRANCH  36  46
ENDBRANCH  30  39
ENDBRANCH  29  33
ENDBRANCH   1  29
TORSDOF 10
ENDMDL
