MODEL 1
REMARK VINA RESULT:      -6.5      0.000      0.000
REMARK  Name = pdb/CHEMBL3961852.pdb
REMARK                            x       y       z     vdW  Elec       q    Type
REMARK                         _______ _______ _______ _____ _____    ______ ____
ROOT
ATOM      1  N   LIG    1      -37.635  76.334  26.773  0.00  0.00    -0.266 N 
ATOM      2  H   LIG    1      -38.227  75.805  27.428  0.00  0.00    +0.157 HD
ATOM      3  C   LIG    1      -37.661  76.013  25.373  0.00  0.00    +0.251 C 
ATOM      4  O   LIG    1      -36.994  76.669  24.575  0.00  0.00    -0.270 OA
ENDROOT
BRANCH   3   5
ATOM      5  C   LIG    1      -38.539  74.922  24.876  0.00  0.00    +0.056 A 
ATOM      6  C   LIG    1      -39.797  75.113  24.305  0.00  0.00    +0.054 A 
ATOM      7 CL   LIG    1      -40.511  76.666  24.095  0.00  0.00    -0.083 Cl
ATOM      8  C   LIG    1      -40.537  74.003  23.880  0.00  0.00    +0.041 A 
ATOM      9  C   LIG    1      -40.034  72.694  23.994  0.00  0.00    +0.052 A 
ATOM     10 CL   LIG    1      -41.041  71.465  23.307  0.00  0.00    -0.083 Cl
ATOM     11  C   LIG    1      -38.776  72.449  24.577  0.00  0.00    +0.019 A 
ATOM     12  C   LIG    1      -38.067  73.596  25.021  0.00  0.00    +0.026 A 
BRANCH  11  13
ATOM     13  C   LIG    1      -38.120  71.116  24.711  0.00  0.00    +0.072 A 
ATOM     14  N   LIG    1      -38.017  70.673  25.995  0.00  0.00    -0.255 NA
ATOM     15  C   LIG    1      -37.451  69.462  26.218  0.00  0.00    +0.111 A 
ATOM     16  C   LIG    1      -36.960  68.644  25.220  0.00  0.00    +0.020 A 
ATOM     17  C   LIG    1      -37.064  69.093  23.912  0.00  0.00    +0.004 A 
ATOM     18  C   LIG    1      -37.665  70.327  23.654  0.00  0.00    +0.028 A 
ENDBRANCH  11  13
ENDBRANCH   3   5
BRANCH   1  22
ATOM     19  C   LIG    1      -35.903  79.293  27.885  0.00  0.00    +0.149 A 
ATOM     20  N   LIG    1      -34.939  78.385  28.091  0.00  0.00    -0.160 NA
ATOM     21  N   LIG    1      -35.505  77.179  27.841  0.00  0.00    -0.218 N 
ATOM     22  C   LIG    1      -36.800  77.310  27.334  0.00  0.00    +0.129 A 
ATOM     23  C   LIG    1      -37.073  78.665  27.392  0.00  0.00    +0.078 A 
BRANCH  21  24
ATOM     24  C   LIG    1      -34.754  76.000  28.117  0.00  0.00    +0.067 A 
ATOM     25  C   LIG    1      -33.462  76.138  28.660  0.00  0.00    +0.028 A 
ATOM     26  C   LIG    1      -32.691  75.014  28.957  0.00  0.00    +0.002 A 
ATOM     27  C   LIG    1      -33.214  73.741  28.746  0.00  0.00    +0.000 A 
ATOM     28  C   LIG    1      -34.509  73.595  28.242  0.00  0.00    +0.002 A 
ATOM     29  C   LIG    1      -35.282  74.720  27.919  0.00  0.00    +0.028 A 
ENDBRANCH  21  24
BRANCH  19  32
ATOM     30  C   LIG    1      -36.068  82.774  29.271  0.00  0.00    +0.174 C 
ATOM     31  N   LIG    1      -36.315  81.368  29.022  0.00  0.00    -0.252 NA
ATOM     32  C   LIG    1      -35.705  80.731  28.094  0.00  0.00    +0.236 C 
BRANCH  32  33
ATOM     33  O   LIG    1      -34.833  81.301  27.231  0.00  0.00    -0.491 OA
ATOM     34  H   LIG    1      -34.791  82.258  27.363  0.00  0.00    +0.294 HD
ENDBRANCH  32  33
ENDBRANCH  19  32
ENDBRANCH   1  22
TORSDOF 6
ENDMDL
MODEL 2
REMARK VINA RESULT:      -6.5     18.823     20.890
REMARK  Name = pdb/CHEMBL3961852.pdb
REMARK                            x       y       z     vdW  Elec       q    Type
REMARK                         _______ _______ _______ _____ _____    ______ ____
ROOT
ATOM      1  N   LIG    1      -25.305  81.089  13.393  0.00  0.00    -0.266 N 
ATOM      2  H   LIG    1      -25.929  81.731  13.901  0.00  0.00    +0.157 HD
ATOM      3  C   LIG    1      -24.436  81.602  12.371  0.00  0.00    +0.251 C 
ATOM      4  O   LIG    1      -23.653  80.853  11.790  0.00  0.00    -0.270 OA
ENDROOT
BRANCH   3   5
ATOM      5  C   LIG    1      -24.441  83.053  12.050  0.00  0.00    +0.056 A 
ATOM      6  C   LIG    1      -25.329  83.668  11.168  0.00  0.00    +0.054 A 
ATOM      7 CL   LIG    1      -26.559  82.812  10.320  0.00  0.00    -0.083 Cl
ATOM      8  C   LIG    1      -25.229  85.045  10.939  0.00  0.00    +0.041 A 
ATOM      9  C   LIG    1      -24.267  85.834  11.595  0.00  0.00    +0.052 A 
ATOM     10 CL   LIG    1      -24.376  87.532  11.274  0.00  0.00    -0.083 Cl
ATOM     11  C   LIG    1      -23.339  85.257  12.484  0.00  0.00    +0.019 A 
ATOM     12  C   LIG    1      -23.453  83.854  12.669  0.00  0.00    +0.026 A 
BRANCH  11  13
ATOM     13  C   LIG    1      -22.307  85.994  13.268  0.00  0.00    +0.072 A 
ATOM     14  N   LIG    1      -21.047  85.898  12.760  0.00  0.00    -0.255 NA
ATOM     15  C   LIG    1      -20.042  86.549  13.395  0.00  0.00    +0.111 A 
ATOM     16  C   LIG    1      -20.212  87.303  14.539  0.00  0.00    +0.020 A 
ATOM     17  C   LIG    1      -21.494  87.402  15.057  0.00  0.00    +0.004 A 
ATOM     18  C   LIG    1      -22.552  86.761  14.409  0.00  0.00    +0.028 A 
ENDBRANCH  11  13
ENDBRANCH   3   5
BRANCH   1  22
ATOM     19  C   LIG    1      -26.217  77.662  14.040  0.00  0.00    +0.149 A 
ATOM     20  N   LIG    1      -25.119  77.744  14.804  0.00  0.00    -0.160 NA
ATOM     21  N   LIG    1      -24.578  78.961  14.549  0.00  0.00    -0.218 N 
ATOM     22  C   LIG    1      -25.403  79.730  13.724  0.00  0.00    +0.129 A 
ATOM     23  C   LIG    1      -26.440  78.888  13.367  0.00  0.00    +0.078 A 
BRANCH  21  24
ATOM     24  C   LIG    1      -23.311  79.279  15.116  0.00  0.00    +0.067 A 
ATOM     25  C   LIG    1      -23.241  80.308  16.074  0.00  0.00    +0.028 A 
ATOM     26  C   LIG    1      -22.025  80.649  16.665  0.00  0.00    +0.002 A 
ATOM     27  C   LIG    1      -20.872  79.944  16.331  0.00  0.00    +0.000 A 
ATOM     28  C   LIG    1      -20.938  78.898  15.408  0.00  0.00    +0.002 A 
ATOM     29  C   LIG    1      -22.153  78.563  14.792  0.00  0.00    +0.028 A 
ENDBRANCH  21  24
BRANCH  19  32
ATOM     30  C   LIG    1      -27.421  74.110  14.006  0.00  0.00    +0.174 C 
ATOM     31  N   LIG    1      -26.576  75.288  13.987  0.00  0.00    -0.252 NA
ATOM     32  C   LIG    1      -27.069  76.470  13.991  0.00  0.00    +0.236 C 
BRANCH  32  33
ATOM     33  O   LIG    1      -28.395  76.738  13.954  0.00  0.00    -0.491 OA
ATOM     34  H   LIG    1      -28.703  76.833  13.042  0.00  0.00    +0.294 HD
ENDBRANCH  32  33
ENDBRANCH  19  32
ENDBRANCH   1  22
TORSDOF 6
ENDMDL
MODEL 3
REMARK VINA RESULT:      -6.3      3.027      5.061
REMARK  Name = pdb/CHEMBL3961852.pdb
REMARK                            x       y       z     vdW  Elec       q    Type
REMARK                         _______ _______ _______ _____ _____    ______ ____
ROOT
ATOM      1  N   LIG    1      -34.953  74.685  27.221  0.00  0.00    -0.266 N 
ATOM      2  H   LIG    1      -34.840  74.319  26.266  0.00  0.00    +0.157 HD
ATOM      3  C   LIG    1      -36.226  75.205  27.638  0.00  0.00    +0.251 C 
ATOM      4  O   LIG    1      -36.386  75.602  28.790  0.00  0.00    -0.270 OA
ENDROOT
BRANCH   3   5
ATOM      5  C   LIG    1      -37.372  75.214  26.691  0.00  0.00    +0.056 A 
ATOM      6  C   LIG    1      -38.141  76.337  26.386  0.00  0.00    +0.054 A 
ATOM      7 CL   LIG    1      -37.860  77.888  27.079  0.00  0.00    -0.083 Cl
ATOM      8  C   LIG    1      -39.204  76.219  25.483  0.00  0.00    +0.041 A 
ATOM      9  C   LIG    1      -39.504  74.998  24.853  0.00  0.00    +0.052 A 
ATOM     10 CL   LIG    1      -40.775  75.077  23.680  0.00  0.00    -0.083 Cl
ATOM     11  C   LIG    1      -38.765  73.833  25.138  0.00  0.00    +0.019 A 
ATOM     12  C   LIG    1      -37.714  73.985  26.080  0.00  0.00    +0.026 A 
BRANCH  11  13
ATOM     13  C   LIG    1      -38.960  72.498  24.502  0.00  0.00    +0.072 A 
ATOM     14  N   LIG    1      -37.845  71.715  24.498  0.00  0.00    -0.255 NA
ATOM     15  C   LIG    1      -37.927  70.475  23.958  0.00  0.00    +0.111 A 
ATOM     16  C   LIG    1      -39.076  69.952  23.398  0.00  0.00    +0.020 A 
ATOM     17  C   LIG    1      -40.212  70.747  23.402  0.00  0.00    +0.004 A 
ATOM     18  C   LIG    1      -40.160  72.020  23.974  0.00  0.00    +0.028 A 
ENDBRANCH  11  13
ENDBRANCH   3   5
BRANCH   1  22
ATOM     19  C   LIG    1      -32.227  74.057  29.494  0.00  0.00    +0.149 A 
ATOM     20  N   LIG    1      -32.143  75.392  29.416  0.00  0.00    -0.160 NA
ATOM     21  N   LIG    1      -33.038  75.766  28.468  0.00  0.00    -0.218 N 
ATOM     22  C   LIG    1      -33.808  74.686  28.030  0.00  0.00    +0.129 A 
ATOM     23  C   LIG    1      -33.269  73.579  28.662  0.00  0.00    +0.078 A 
BRANCH  21  24
ATOM     24  C   LIG    1      -33.072  77.130  28.060  0.00  0.00    +0.067 A 
ATOM     25  C   LIG    1      -33.834  78.040  28.818  0.00  0.00    +0.028 A 
ATOM     26  C   LIG    1      -33.890  79.388  28.464  0.00  0.00    +0.002 A 
ATOM     27  C   LIG    1      -33.162  79.848  27.371  0.00  0.00    +0.000 A 
ATOM     28  C   LIG    1      -32.374  78.959  26.635  0.00  0.00    +0.002 A 
ATOM     29  C   LIG    1      -32.330  77.597  26.970  0.00  0.00    +0.028 A 
ENDBRANCH  21  24
BRANCH  19  32
ATOM     30  C   LIG    1      -30.787  72.361  32.514  0.00  0.00    +0.174 C 
ATOM     31  N   LIG    1      -31.582  73.207  31.646  0.00  0.00    -0.252 NA
ATOM     32  C   LIG    1      -31.380  73.253  30.382  0.00  0.00    +0.236 C 
BRANCH  32  33
ATOM     33  O   LIG    1      -30.392  72.583  29.747  0.00  0.00    -0.491 OA
ATOM     34  H   LIG    1      -29.533  72.771  30.150  0.00  0.00    +0.294 HD
ENDBRANCH  32  33
ENDBRANCH  19  32
ENDBRANCH   1  22
TORSDOF 6
ENDMDL
MODEL 4
REMARK VINA RESULT:      -6.3      3.464      6.398
REMARK  Name = pdb/CHEMBL3961852.pdb
REMARK                            x       y       z     vdW  Elec       q    Type
REMARK                         _______ _______ _______ _____ _____    ______ ____
ROOT
ATOM      1  N   LIG    1      -34.400  74.423  27.532  0.00  0.00    -0.266 N 
ATOM      2  H   LIG    1      -34.167  74.135  26.572  0.00  0.00    +0.157 HD
ATOM      3  C   LIG    1      -35.776  74.598  27.907  0.00  0.00    +0.251 C 
ATOM      4  O   LIG    1      -36.070  74.895  29.064  0.00  0.00    -0.270 OA
ENDROOT
BRANCH   3   5
ATOM      5  C   LIG    1      -36.854  74.366  26.911  0.00  0.00    +0.056 A 
ATOM      6  C   LIG    1      -37.266  73.111  26.464  0.00  0.00    +0.054 A 
ATOM      7 CL   LIG    1      -36.566  71.638  27.017  0.00  0.00    -0.083 Cl
ATOM      8  C   LIG    1      -38.290  73.020  25.514  0.00  0.00    +0.041 A 
ATOM      9  C   LIG    1      -38.934  74.165  25.011  0.00  0.00    +0.052 A 
ATOM     10 CL   LIG    1      -40.253  73.846  23.937  0.00  0.00    -0.083 Cl
ATOM     11  C   LIG    1      -38.545  75.455  25.421  0.00  0.00    +0.019 A 
ATOM     12  C   LIG    1      -37.484  75.509  26.364  0.00  0.00    +0.026 A 
BRANCH  11  13
ATOM     13  C   LIG    1      -39.180  76.735  24.995  0.00  0.00    +0.072 A 
ATOM     14  N   LIG    1      -40.189  77.155  25.809  0.00  0.00    -0.255 NA
ATOM     15  C   LIG    1      -40.817  78.319  25.513  0.00  0.00    +0.111 A 
ATOM     16  C   LIG    1      -40.503  79.110  24.426  0.00  0.00    +0.020 A 
ATOM     17  C   LIG    1      -39.476  78.686  23.598  0.00  0.00    +0.004 A 
ATOM     18  C   LIG    1      -38.797  77.501  23.893  0.00  0.00    +0.028 A 
ENDBRANCH  11  13
ENDBRANCH   3   5
BRANCH   1  22
ATOM     19  C   LIG    1      -31.741  74.411  29.965  0.00  0.00    +0.149 A 
ATOM     20  N   LIG    1      -31.882  75.733  29.802  0.00  0.00    -0.160 NA
ATOM     21  N   LIG    1      -32.772  75.890  28.791  0.00  0.00    -0.218 N 
ATOM     22  C   LIG    1      -33.320  74.670  28.391  0.00  0.00    +0.129 A 
ATOM     23  C   LIG    1      -32.637  73.712  29.119  0.00  0.00    +0.078 A 
BRANCH  21  24
ATOM     24  C   LIG    1      -33.016  77.202  28.292  0.00  0.00    +0.067 A 
ATOM     25  C   LIG    1      -33.975  78.002  28.941  0.00  0.00    +0.028 A 
ATOM     26  C   LIG    1      -34.242  79.297  28.496  0.00  0.00    +0.002 A 
ATOM     27  C   LIG    1      -33.530  79.818  27.419  0.00  0.00    +0.000 A 
ATOM     28  C   LIG    1      -32.551  79.045  26.792  0.00  0.00    +0.002 A 
ATOM     29  C   LIG    1      -32.292  77.734  27.218  0.00  0.00    +0.028 A 
ENDBRANCH  21  24
BRANCH  19  32
ATOM     30  C   LIG    1      -29.564  72.005  31.846  0.00  0.00    +0.174 C 
ATOM     31  N   LIG    1      -30.524  72.574  30.922  0.00  0.00    -0.252 NA
ATOM     32  C   LIG    1      -30.822  73.820  30.943  0.00  0.00    +0.236 C 
BRANCH  32  33
ATOM     33  O   LIG    1      -30.331  74.701  31.844  0.00  0.00    -0.491 OA
ATOM     34  H   LIG    1      -30.999  74.926  32.507  0.00  0.00    +0.294 HD
ENDBRANCH  32  33
ENDBRANCH  19  32
ENDBRANCH   1  22
TORSDOF 6
ENDMDL
MODEL 5
REMARK VINA RESULT:      -6.2      3.286      5.834
REMARK  Name = pdb/CHEMBL3961852.pdb
REMARK                            x       y       z     vdW  Elec       q    Type
REMARK                         _______ _______ _______ _____ _____    ______ ____
ROOT
ATOM      1  N   LIG    1      -37.446  73.692  24.840  0.00  0.00    -0.266 N 
ATOM      2  H   LIG    1      -37.020  73.573  23.911  0.00  0.00    +0.157 HD
ATOM      3  C   LIG    1      -37.504  72.576  25.742  0.00  0.00    +0.251 C 
ATOM      4  O   LIG    1      -37.968  72.716  26.873  0.00  0.00    -0.270 OA
ENDROOT
BRANCH   3   5
ATOM      5  C   LIG    1      -36.953  71.258  25.333  0.00  0.00    +0.056 A 
ATOM      6  C   LIG    1      -35.905  70.601  25.978  0.00  0.00    +0.054 A 
ATOM      7 CL   LIG    1      -35.099  71.241  27.358  0.00  0.00    -0.083 Cl
ATOM      8  C   LIG    1      -35.466  69.363  25.492  0.00  0.00    +0.041 A 
ATOM      9  C   LIG    1      -36.070  68.750  24.380  0.00  0.00    +0.052 A 
ATOM     10 CL   LIG    1      -35.469  67.171  24.003  0.00  0.00    -0.083 Cl
ATOM     11  C   LIG    1      -37.122  69.380  23.687  0.00  0.00    +0.019 A 
ATOM     12  C   LIG    1      -37.521  70.647  24.191  0.00  0.00    +0.026 A 
BRANCH  11  13
ATOM     13  C   LIG    1      -37.868  68.812  22.528  0.00  0.00    +0.072 A 
ATOM     14  N   LIG    1      -39.093  68.309  22.846  0.00  0.00    -0.255 NA
ATOM     15  C   LIG    1      -39.855  67.786  21.855  0.00  0.00    +0.111 A 
ATOM     16  C   LIG    1      -39.463  67.721  20.532  0.00  0.00    +0.020 A 
ATOM     17  C   LIG    1      -38.216  68.232  20.206  0.00  0.00    +0.004 A 
ATOM     18  C   LIG    1      -37.421  68.799  21.206  0.00  0.00    +0.028 A 
ENDBRANCH  11  13
ENDBRANCH   3   5
BRANCH   1  22
ATOM     19  C   LIG    1      -38.291  77.000  25.994  0.00  0.00    +0.149 A 
ATOM     20  N   LIG    1      -39.489  76.617  25.531  0.00  0.00    -0.160 NA
ATOM     21  N   LIG    1      -39.289  75.419  24.929  0.00  0.00    -0.218 N 
ATOM     22  C   LIG    1      -37.987  74.954  25.124  0.00  0.00    +0.129 A 
ATOM     23  C   LIG    1      -37.332  75.981  25.778  0.00  0.00    +0.078 A 
BRANCH  21  24
ATOM     24  C   LIG    1      -40.368  74.826  24.212  0.00  0.00    +0.067 A 
ATOM     25  C   LIG    1      -41.347  75.667  23.652  0.00  0.00    +0.028 A 
ATOM     26  C   LIG    1      -42.417  75.135  22.932  0.00  0.00    +0.002 A 
ATOM     27  C   LIG    1      -42.502  73.759  22.736  0.00  0.00    +0.000 A 
ATOM     28  C   LIG    1      -41.516  72.919  23.258  0.00  0.00    +0.002 A 
ATOM     29  C   LIG    1      -40.449  73.444  24.002  0.00  0.00    +0.028 A 
ENDBRANCH  21  24
BRANCH  19  32
ATOM     30  C   LIG    1      -36.718  79.841  27.870  0.00  0.00    +0.174 C 
ATOM     31  N   LIG    1      -36.959  78.552  27.252  0.00  0.00    -0.252 NA
ATOM     32  C   LIG    1      -38.070  78.278  26.678  0.00  0.00    +0.236 C 
BRANCH  32  33
ATOM     33  O   LIG    1      -39.130  79.118  26.639  0.00  0.00    -0.491 OA
ATOM     34  H   LIG    1      -39.344  79.446  27.523  0.00  0.00    +0.294 HD
ENDBRANCH  32  33
ENDBRANCH  19  32
ENDBRANCH   1  22
TORSDOF 6
ENDMDL
MODEL 6
REMARK VINA RESULT:      -6.2      1.795      3.911
REMARK  Name = pdb/CHEMBL3961852.pdb
REMARK                            x       y       z     vdW  Elec       q    Type
REMARK                         _______ _______ _______ _____ _____    ______ ____
ROOT
ATOM      1  N   LIG    1      -37.315  75.679  26.726  0.00  0.00    -0.266 N 
ATOM      2  H   LIG    1      -37.813  75.024  27.343  0.00  0.00    +0.157 HD
ATOM      3  C   LIG    1      -37.633  75.718  25.325  0.00  0.00    +0.251 C 
ATOM      4  O   LIG    1      -37.079  76.529  24.586  0.00  0.00    -0.270 OA
ENDROOT
BRANCH   3   5
ATOM      5  C   LIG    1      -38.677  74.814  24.774  0.00  0.00    +0.056 A 
ATOM      6  C   LIG    1      -39.884  75.239  24.220  0.00  0.00    +0.054 A 
ATOM      7 CL   LIG    1      -40.332  76.897  24.098  0.00  0.00    -0.083 Cl
ATOM      8  C   LIG    1      -40.793  74.290  23.740  0.00  0.00    +0.041 A 
ATOM      9  C   LIG    1      -40.513  72.912  23.781  0.00  0.00    +0.052 A 
ATOM     10 CL   LIG    1      -41.704  71.904  23.033  0.00  0.00    -0.083 Cl
ATOM     11  C   LIG    1      -39.314  72.433  24.343  0.00  0.00    +0.019 A 
ATOM     12  C   LIG    1      -38.428  73.423  24.845  0.00  0.00    +0.026 A 
BRANCH  11  13
ATOM     13  C   LIG    1      -38.887  71.005  24.402  0.00  0.00    +0.072 A 
ATOM     14  N   LIG    1      -37.613  70.786  23.970  0.00  0.00    -0.255 NA
ATOM     15  C   LIG    1      -37.128  69.521  24.002  0.00  0.00    +0.111 A 
ATOM     16  C   LIG    1      -37.849  68.429  24.441  0.00  0.00    +0.020 A 
ATOM     17  C   LIG    1      -39.145  68.649  24.881  0.00  0.00    +0.004 A 
ATOM     18  C   LIG    1      -39.662  69.947  24.880  0.00  0.00    +0.028 A 
ENDBRANCH  11  13
ENDBRANCH   3   5
BRANCH   1  22
ATOM     19  C   LIG    1      -34.368  77.091  28.246  0.00  0.00    +0.149 A 
ATOM     20  N   LIG    1      -35.267  78.014  28.615  0.00  0.00    -0.160 NA
ATOM     21  N   LIG    1      -36.421  77.680  27.985  0.00  0.00    -0.218 N 
ATOM     22  C   LIG    1      -36.311  76.458  27.319  0.00  0.00    +0.129 A 
ATOM     23  C   LIG    1      -34.985  76.091  27.455  0.00  0.00    +0.078 A 
BRANCH  21  24
ATOM     24  C   LIG    1      -37.530  78.570  28.074  0.00  0.00    +0.067 A 
ATOM     25  C   LIG    1      -38.086  79.073  26.883  0.00  0.00    +0.028 A 
ATOM     26  C   LIG    1      -39.179  79.939  26.918  0.00  0.00    +0.002 A 
ATOM     27  C   LIG    1      -39.748  80.286  28.140  0.00  0.00    +0.000 A 
ATOM     28  C   LIG    1      -39.226  79.763  29.325  0.00  0.00    +0.002 A 
ATOM     29  C   LIG    1      -38.113  78.909  29.300  0.00  0.00    +0.028 A 
ENDBRANCH  21  24
BRANCH  19  32
ATOM     30  C   LIG    1      -31.008  76.116  29.598  0.00  0.00    +0.174 C 
ATOM     31  N   LIG    1      -32.410  76.107  29.230  0.00  0.00    -0.252 NA
ATOM     32  C   LIG    1      -32.968  77.121  28.681  0.00  0.00    +0.236 C 
BRANCH  32  33
ATOM     33  O   LIG    1      -32.341  78.297  28.448  0.00  0.00    -0.491 OA
ATOM     34  H   LIG    1      -31.616  78.184  27.818  0.00  0.00    +0.294 HD
ENDBRANCH  32  33
ENDBRANCH  19  32
ENDBRANCH   1  22
TORSDOF 6
ENDMDL
MODEL 7
REMARK VINA RESULT:      -6.2      3.810      9.435
REMARK  Name = pdb/CHEMBL3961852.pdb
REMARK                            x       y       z     vdW  Elec       q    Type
REMARK                         _______ _______ _______ _____ _____    ______ ____
ROOT
ATOM      1  N   LIG    1      -35.740  71.927  26.252  0.00  0.00    -0.266 N 
ATOM      2  H   LIG    1      -34.864  72.005  25.717  0.00  0.00    +0.157 HD
ATOM      3  C   LIG    1      -35.813  72.469  27.581  0.00  0.00    +0.251 C 
ATOM      4  O   LIG    1      -36.867  72.424  28.212  0.00  0.00    -0.270 OA
ENDROOT
BRANCH   3   5
ATOM      5  C   LIG    1      -34.627  73.139  28.177  0.00  0.00    +0.056 A 
ATOM      6  C   LIG    1      -33.670  72.503  28.967  0.00  0.00    +0.054 A 
ATOM      7 CL   LIG    1      -33.737  70.828  29.363  0.00  0.00    -0.083 Cl
ATOM      8  C   LIG    1      -32.599  73.243  29.481  0.00  0.00    +0.041 A 
ATOM      9  C   LIG    1      -32.448  74.613  29.202  0.00  0.00    +0.052 A 
ATOM     10 CL   LIG    1      -31.000  75.328  29.826  0.00  0.00    -0.083 Cl
ATOM     11  C   LIG    1      -33.395  75.303  28.421  0.00  0.00    +0.019 A 
ATOM     12  C   LIG    1      -34.482  74.526  27.941  0.00  0.00    +0.026 A 
BRANCH  11  13
ATOM     13  C   LIG    1      -33.319  76.738  28.022  0.00  0.00    +0.072 A 
ATOM     14  N   LIG    1      -32.525  76.974  26.940  0.00  0.00    -0.255 NA
ATOM     15  C   LIG    1      -32.407  78.247  26.490  0.00  0.00    +0.111 A 
ATOM     16  C   LIG    1      -33.038  79.331  27.068  0.00  0.00    +0.020 A 
ATOM     17  C   LIG    1      -33.846  79.093  28.169  0.00  0.00    +0.004 A 
ATOM     18  C   LIG    1      -34.004  77.787  28.638  0.00  0.00    +0.028 A 
ENDBRANCH  11  13
ENDBRANCH   3   5
BRANCH   1  22
ATOM     19  C   LIG    1      -38.014  69.603  24.697  0.00  0.00    +0.149 A 
ATOM     20  N   LIG    1      -38.558  70.754  24.279  0.00  0.00    -0.160 NA
ATOM     21  N   LIG    1      -37.875  71.740  24.912  0.00  0.00    -0.218 N 
ATOM     22  C   LIG    1      -36.791  71.235  25.634  0.00  0.00    +0.129 A 
ATOM     23  C   LIG    1      -36.896  69.860  25.527  0.00  0.00    +0.078 A 
BRANCH  21  24
ATOM     24  C   LIG    1      -38.327  73.084  24.773  0.00  0.00    +0.067 A 
ATOM     25  C   LIG    1      -39.631  73.309  24.292  0.00  0.00    +0.028 A 
ATOM     26  C   LIG    1      -40.122  74.606  24.148  0.00  0.00    +0.002 A 
ATOM     27  C   LIG    1      -39.330  75.691  24.513  0.00  0.00    +0.000 A 
ATOM     28  C   LIG    1      -38.048  75.475  25.025  0.00  0.00    +0.002 A 
ATOM     29  C   LIG    1      -37.537  74.175  25.152  0.00  0.00    +0.028 A 
ENDBRANCH  21  24
BRANCH  19  32
ATOM     30  C   LIG    1      -38.416  66.323  22.924  0.00  0.00    +0.174 C 
ATOM     31  N   LIG    1      -37.974  67.652  23.298  0.00  0.00    -0.252 NA
ATOM     32  C   LIG    1      -38.505  68.288  24.274  0.00  0.00    +0.236 C 
BRANCH  32  33
ATOM     33  O   LIG    1      -39.547  67.826  25.002  0.00  0.00    -0.491 OA
ATOM     34  H   LIG    1      -39.282  67.069  25.544  0.00  0.00    +0.294 HD
ENDBRANCH  32  33
ENDBRANCH  19  32
ENDBRANCH   1  22
TORSDOF 6
ENDMDL
MODEL 8
REMARK VINA RESULT:      -6.0      1.495      1.789
REMARK  Name = pdb/CHEMBL3961852.pdb
REMARK                            x       y       z     vdW  Elec       q    Type
REMARK                         _______ _______ _______ _____ _____    ______ ____
ROOT
ATOM      1  N   LIG    1      -38.168  76.566  26.757  0.00  0.00    -0.266 N 
ATOM      2  H   LIG    1      -38.735  76.032  27.430  0.00  0.00    +0.157 HD
ATOM      3  C   LIG    1      -37.933  76.033  25.444  0.00  0.00    +0.251 C 
ATOM      4  O   LIG    1      -37.297  76.682  24.616  0.00  0.00    -0.270 OA
ENDROOT
BRANCH   3   5
ATOM      5  C   LIG    1      -38.508  74.717  25.062  0.00  0.00    +0.056 A 
ATOM      6  C   LIG    1      -39.661  74.545  24.297  0.00  0.00    +0.054 A 
ATOM      7 CL   LIG    1      -40.588  75.861  23.683  0.00  0.00    -0.083 Cl
ATOM      8  C   LIG    1      -40.110  73.252  24.008  0.00  0.00    +0.041 A 
ATOM      9  C   LIG    1      -39.414  72.113  24.451  0.00  0.00    +0.052 A 
ATOM     10 CL   LIG    1      -40.056  70.604  23.895  0.00  0.00    -0.083 Cl
ATOM     11  C   LIG    1      -38.252  72.233  25.238  0.00  0.00    +0.019 A 
ATOM     12  C   LIG    1      -37.843  73.560  25.534  0.00  0.00    +0.026 A 
BRANCH  11  13
ATOM     13  C   LIG    1      -37.407  71.106  25.727  0.00  0.00    +0.072 A 
ATOM     14  N   LIG    1      -36.280  70.895  24.992  0.00  0.00    -0.255 NA
ATOM     15  C   LIG    1      -35.438  69.902  25.369  0.00  0.00    +0.111 A 
ATOM     16  C   LIG    1      -35.655  69.077  26.454  0.00  0.00    +0.020 A 
ATOM     17  C   LIG    1      -36.802  69.290  27.203  0.00  0.00    +0.004 A 
ATOM     18  C   LIG    1      -37.674  70.322  26.850  0.00  0.00    +0.028 A 
ENDBRANCH  11  13
ENDBRANCH   3   5
BRANCH   1  22
ATOM     19  C   LIG    1      -37.261  79.962  27.553  0.00  0.00    +0.149 A 
ATOM     20  N   LIG    1      -36.117  79.348  27.882  0.00  0.00    -0.160 NA
ATOM     21  N   LIG    1      -36.360  78.019  27.763  0.00  0.00    -0.218 N 
ATOM     22  C   LIG    1      -37.622  77.773  27.218  0.00  0.00    +0.129 A 
ATOM     23  C   LIG    1      -38.218  79.016  27.112  0.00  0.00    +0.078 A 
BRANCH  21  24
ATOM     24  C   LIG    1      -35.360  77.099  28.189  0.00  0.00    +0.067 A 
ATOM     25  C   LIG    1      -35.092  76.987  29.567  0.00  0.00    +0.028 A 
ATOM     26  C   LIG    1      -34.128  76.093  30.034  0.00  0.00    +0.002 A 
ATOM     27  C   LIG    1      -33.446  75.279  29.134  0.00  0.00    +0.000 A 
ATOM     28  C   LIG    1      -33.732  75.357  27.770  0.00  0.00    +0.002 A 
ATOM     29  C   LIG    1      -34.683  76.269  27.289  0.00  0.00    +0.028 A 
ENDBRANCH  21  24
BRANCH  19  32
ATOM     30  C   LIG    1      -37.956  83.526  26.611  0.00  0.00    +0.174 C 
ATOM     31  N   LIG    1      -37.726  82.096  26.553  0.00  0.00    -0.252 NA
ATOM     32  C   LIG    1      -37.427  81.419  27.598  0.00  0.00    +0.236 C 
BRANCH  32  33
ATOM     33  O   LIG    1      -37.240  81.960  28.824  0.00  0.00    -0.491 OA
ATOM     34  H   LIG    1      -37.528  81.351  29.518  0.00  0.00    +0.294 HD
ENDBRANCH  32  33
ENDBRANCH  19  32
ENDBRANCH   1  22
TORSDOF 6
ENDMDL
MODEL 9
REMARK VINA RESULT:      -5.9     20.028     22.186
REMARK  Name = pdb/CHEMBL3961852.pdb
REMARK                            x       y       z     vdW  Elec       q    Type
REMARK                         _______ _______ _______ _____ _____    ______ ____
ROOT
ATOM      1  N   LIG    1      -22.291  81.933  14.556  0.00  0.00    -0.266 N 
ATOM      2  H   LIG    1      -22.455  82.640  15.286  0.00  0.00    +0.157 HD
ATOM      3  C   LIG    1      -21.472  82.260  13.422  0.00  0.00    +0.251 C 
ATOM      4  O   LIG    1      -21.230  81.409  12.567  0.00  0.00    -0.270 OA
ENDROOT
BRANCH   3   5
ATOM      5  C   LIG    1      -20.868  83.613  13.305  0.00  0.00    +0.056 A 
ATOM      6  C   LIG    1      -19.533  83.913  13.577  0.00  0.00    +0.054 A 
ATOM      7 CL   LIG    1      -18.389  82.733  14.092  0.00  0.00    -0.083 Cl
ATOM      8  C   LIG    1      -19.082  85.230  13.438  0.00  0.00    +0.041 A 
ATOM      9  C   LIG    1      -19.936  86.262  13.008  0.00  0.00    +0.052 A 
ATOM     10 CL   LIG    1      -19.168  87.797  12.783  0.00  0.00    -0.083 Cl
ATOM     11  C   LIG    1      -21.294  86.012  12.735  0.00  0.00    +0.019 A 
ATOM     12  C   LIG    1      -21.723  84.670  12.914  0.00  0.00    +0.026 A 
BRANCH  11  13
ATOM     13  C   LIG    1      -22.282  87.010  12.232  0.00  0.00    +0.072 A 
ATOM     14  N   LIG    1      -23.049  86.563  11.198  0.00  0.00    -0.255 NA
ATOM     15  C   LIG    1      -23.989  87.393  10.684  0.00  0.00    +0.111 A 
ATOM     16  C   LIG    1      -24.216  88.677  11.138  0.00  0.00    +0.020 A 
ATOM     17  C   LIG    1      -23.437  89.133  12.190  0.00  0.00    +0.004 A 
ATOM     18  C   LIG    1      -22.477  88.289  12.754  0.00  0.00    +0.028 A 
ENDBRANCH  11  13
ENDBRANCH   3   5
BRANCH   1  22
ATOM     19  C   LIG    1      -24.542  79.146  14.948  0.00  0.00    +0.149 A 
ATOM     20  N   LIG    1      -23.423  78.592  15.433  0.00  0.00    -0.160 NA
ATOM     21  N   LIG    1      -22.436  79.497  15.217  0.00  0.00    -0.218 N 
ATOM     22  C   LIG    1      -22.940  80.701  14.720  0.00  0.00    +0.129 A 
ATOM     23  C   LIG    1      -24.288  80.470  14.514  0.00  0.00    +0.078 A 
BRANCH  21  24
ATOM     24  C   LIG    1      -21.091  79.125  15.502  0.00  0.00    +0.067 A 
ATOM     25  C   LIG    1      -20.275  80.034  16.202  0.00  0.00    +0.028 A 
ATOM     26  C   LIG    1      -18.954  79.710  16.513  0.00  0.00    +0.002 A 
ATOM     27  C   LIG    1      -18.445  78.464  16.159  0.00  0.00    +0.000 A 
ATOM     28  C   LIG    1      -19.259  77.542  15.497  0.00  0.00    +0.002 A 
ATOM     29  C   LIG    1      -20.581  77.868  15.160  0.00  0.00    +0.028 A 
ENDBRANCH  21  24
BRANCH  19  32
ATOM     30  C   LIG    1      -27.403  76.879  14.086  0.00  0.00    +0.174 C 
ATOM     31  N   LIG    1      -26.150  77.605  14.047  0.00  0.00    -0.252 NA
ATOM     32  C   LIG    1      -25.838  78.460  14.949  0.00  0.00    +0.236 C 
BRANCH  32  33
ATOM     33  O   LIG    1      -26.649  78.810  15.973  0.00  0.00    -0.491 OA
ATOM     34  H   LIG    1      -26.302  78.485  16.816  0.00  0.00    +0.294 HD
ENDBRANCH  32  33
ENDBRANCH  19  32
ENDBRANCH   1  22
TORSDOF 6
ENDMDL
