MODEL 1
REMARK VINA RESULT:      -6.4      0.000      0.000
REMARK  Name = pdb/CHEMBL3934727.pdb
REMARK                            x       y       z     vdW  Elec       q    Type
REMARK                         _______ _______ _______ _____ _____    ______ ____
ROOT
ATOM      1  C   UNK A  0      -36.488  76.756  26.824  0.00  0.00    +0.149 A 
ATOM      2  N   UNK A  0      -37.489  77.534  26.391  0.00  0.00    -0.160 NA
ATOM      3  N   UNK A  0      -38.309  76.710  25.691  0.00  0.00    -0.218 N 
ATOM      4  C   UNK A  0      -37.785  75.414  25.609  0.00  0.00    +0.129 A 
ATOM      5  C   UNK A  0      -36.629  75.437  26.354  0.00  0.00    +0.078 A 
ENDROOT
BRANCH   3   6
ATOM      6  C   UNK A  0      -39.502  77.248  25.123  0.00  0.00    +0.067 A 
ATOM      7  C   UNK A  0      -40.028  76.774  23.918  0.00  0.00    +0.028 A 
ATOM      8  C   UNK A  0      -41.183  77.348  23.375  0.00  0.00    +0.002 A 
ATOM      9  C   UNK A  0      -41.837  78.379  24.047  0.00  0.00    +0.000 A 
ATOM     10  C   UNK A  0      -41.346  78.829  25.269  0.00  0.00    +0.002 A 
ATOM     11  C   UNK A  0      -40.189  78.263  25.811  0.00  0.00    +0.028 A 
ENDBRANCH   3   6
BRANCH   4  12
ATOM     12  N   UNK A  0      -38.249  74.324  24.871  0.00  0.00    -0.266 N 
ATOM     13  H   UNK A  0      -37.717  74.082  24.034  0.00  0.00    +0.157 HD
ATOM     14  C   UNK A  0      -39.345  73.476  25.243  0.00  0.00    +0.251 C 
ATOM     15  O   UNK A  0      -39.974  73.678  26.289  0.00  0.00    -0.270 OA
BRANCH  14  16
ATOM     16  C   UNK A  0      -39.696  72.328  24.367  0.00  0.00    +0.056 A 
ATOM     17  C   UNK A  0      -40.875  72.214  23.617  0.00  0.00    +0.054 A 
ATOM     18 CL   UNK A  0      -42.171  73.343  23.627  0.00  0.00    -0.083 Cl
ATOM     19  C   UNK A  0      -41.067  71.122  22.781  0.00  0.00    +0.041 A 
ATOM     20  C   UNK A  0      -40.116  70.101  22.684  0.00  0.00    +0.052 A 
ATOM     21 CL   UNK A  0      -40.553  68.838  21.582  0.00  0.00    -0.083 Cl
ATOM     22  C   UNK A  0      -38.935  70.130  23.458  0.00  0.00    +0.022 A 
ATOM     23  C   UNK A  0      -38.754  71.274  24.270  0.00  0.00    +0.026 A 
BRANCH  22  24
ATOM     24  C   UNK A  0      -37.930  69.033  23.460  0.00  0.00    +0.107 A 
ATOM     25  C   UNK A  0      -37.076  68.757  22.386  0.00  0.00    +0.149 A 
ATOM     26  F   UNK A  0      -37.142  69.444  21.237  0.00  0.00    -0.203 F 
ATOM     27  C   UNK A  0      -36.109  67.761  22.501  0.00  0.00    +0.042 A 
ATOM     28  C   UNK A  0      -36.000  67.055  23.691  0.00  0.00    +0.023 A 
ATOM     29  C   UNK A  0      -36.890  67.357  24.704  0.00  0.00    +0.111 A 
ATOM     30  N   UNK A  0      -37.853  68.301  24.598  0.00  0.00    -0.252 NA
ENDBRANCH  22  24
ENDBRANCH  14  16
ENDBRANCH   4  12
BRANCH   1  32
ATOM     31  N   UNK A  1      -34.236  77.479  27.084  0.00  0.00    -0.241 NA
ATOM     32  C   UNK A  0      -35.377  77.256  27.620  0.00  0.00    +0.236 C 
BRANCH  32  33
ATOM     33  O   UNK A  0      -35.690  77.434  28.922  0.00  0.00    -0.491 OA
ATOM     34  H   UNK A  0      -35.088  76.906  29.484  0.00  0.00    +0.294 HD
ENDBRANCH  32  33
BRANCH  31  35
ATOM     35  C   UNK A  1      -33.085  77.966  27.860  0.00  0.00    +0.160 C 
BRANCH  35  36
ATOM     36  C   UNK A  1      -32.080  76.822  28.071  0.00  0.00    +0.188 C 
BRANCH  36  38
ATOM     37  C   UNK A  1      -32.776  75.967  30.152  0.00  0.00    +0.194 C 
ATOM     38  O   UNK A  1      -31.770  76.710  29.469  0.00  0.00    -0.381 OA
ENDBRANCH  36  38
ENDBRANCH  35  36
BRANCH  35  39
ATOM     39  C   UNK A  1      -32.421  79.070  27.015  0.00  0.00    +0.185 C 
BRANCH  39  40
ATOM     40  O   UNK A  1      -32.395  78.687  25.639  0.00  0.00    -0.393 OA
ATOM     41  H   UNK A  1      -32.522  77.716  25.648  0.00  0.00    +0.209 HD
ENDBRANCH  39  40
ENDBRANCH  35  39
ENDBRANCH  31  35
ENDBRANCH   1  32
TORSDOF 11
ENDMDL
MODEL 2
REMARK VINA RESULT:      -6.2      2.548      3.481
REMARK  Name = pdb/CHEMBL3934727.pdb
REMARK                            x       y       z     vdW  Elec       q    Type
REMARK                         _______ _______ _______ _____ _____    ______ ____
ROOT
ATOM      1  C   UNK A  0      -37.480  76.755  27.003  0.00  0.00    +0.149 A 
ATOM      2  N   UNK A  0      -38.574  76.828  26.233  0.00  0.00    -0.160 NA
ATOM      3  N   UNK A  0      -38.684  75.611  25.645  0.00  0.00    -0.218 N 
ATOM      4  C   UNK A  0      -37.605  74.781  25.978  0.00  0.00    +0.129 A 
ATOM      5  C   UNK A  0      -36.845  75.506  26.867  0.00  0.00    +0.078 A 
ENDROOT
BRANCH   3   6
ATOM      6  C   UNK A  0      -39.788  75.363  24.778  0.00  0.00    +0.067 A 
ATOM      7  C   UNK A  0      -40.348  74.090  24.637  0.00  0.00    +0.028 A 
ATOM      8  C   UNK A  0      -41.411  73.879  23.751  0.00  0.00    +0.002 A 
ATOM      9  C   UNK A  0      -41.942  74.943  23.025  0.00  0.00    +0.000 A 
ATOM     10  C   UNK A  0      -41.420  76.222  23.192  0.00  0.00    +0.002 A 
ATOM     11  C   UNK A  0      -40.354  76.436  24.069  0.00  0.00    +0.028 A 
ENDBRANCH   3   6
BRANCH   4  12
ATOM     12  N   UNK A  0      -37.280  73.520  25.478  0.00  0.00    -0.266 N 
ATOM     13  H   UNK A  0      -36.777  73.500  24.590  0.00  0.00    +0.157 HD
ATOM     14  C   UNK A  0      -37.513  72.274  26.151  0.00  0.00    +0.251 C 
ATOM     15  O   UNK A  0      -38.048  72.249  27.266  0.00  0.00    -0.270 OA
BRANCH  14  16
ATOM     16  C   UNK A  0      -37.074  71.012  25.501  0.00  0.00    +0.056 A 
ATOM     17  C   UNK A  0      -35.877  70.336  25.775  0.00  0.00    +0.054 A 
ATOM     18 CL   UNK A  0      -34.657  70.876  26.858  0.00  0.00    -0.083 Cl
ATOM     19  C   UNK A  0      -35.600  69.126  25.150  0.00  0.00    +0.041 A 
ATOM     20  C   UNK A  0      -36.481  68.568  24.220  0.00  0.00    +0.052 A 
ATOM     21 CL   UNK A  0      -35.945  67.056  23.565  0.00  0.00    -0.083 Cl
ATOM     22  C   UNK A  0      -37.675  69.230  23.858  0.00  0.00    +0.022 A 
ATOM     23  C   UNK A  0      -37.944  70.440  24.540  0.00  0.00    +0.026 A 
BRANCH  22  24
ATOM     24  C   UNK A  0      -38.608  68.726  22.813  0.00  0.00    +0.107 A 
ATOM     25  C   UNK A  0      -38.334  68.762  21.441  0.00  0.00    +0.149 A 
ATOM     26  F   UNK A  0      -37.209  69.314  20.960  0.00  0.00    -0.203 F 
ATOM     27  C   UNK A  0      -39.228  68.197  20.535  0.00  0.00    +0.042 A 
ATOM     28  C   UNK A  0      -40.385  67.594  21.010  0.00  0.00    +0.023 A 
ATOM     29  C   UNK A  0      -40.610  67.615  22.373  0.00  0.00    +0.111 A 
ATOM     30  N   UNK A  0      -39.766  68.185  23.263  0.00  0.00    -0.252 NA
ENDBRANCH  22  24
ENDBRANCH  14  16
ENDBRANCH   4  12
BRANCH   1  32
ATOM     31  N   UNK A  1      -35.935  78.500  27.483  0.00  0.00    -0.241 NA
ATOM     32  C   UNK A  0      -36.997  77.865  27.811  0.00  0.00    +0.236 C 
BRANCH  32  33
ATOM     33  O   UNK A  0      -37.769  78.115  28.891  0.00  0.00    -0.491 OA
ATOM     34  H   UNK A  0      -37.213  78.430  29.632  0.00  0.00    +0.294 HD
ENDBRANCH  32  33
BRANCH  31  35
ATOM     35  C   UNK A  1      -35.406  79.615  28.285  0.00  0.00    +0.160 C 
BRANCH  35  36
ATOM     36  C   UNK A  1      -33.872  79.643  28.187  0.00  0.00    +0.188 C 
BRANCH  36  38
ATOM     37  C   UNK A  1      -32.411  78.923  26.487  0.00  0.00    +0.194 C 
ATOM     38  O   UNK A  1      -33.484  79.802  26.814  0.00  0.00    -0.381 OA
ENDBRANCH  36  38
ENDBRANCH  35  36
BRANCH  35  39
ATOM     39  C   UNK A  1      -35.975  80.907  27.670  0.00  0.00    +0.185 C 
BRANCH  39  40
ATOM     40  O   UNK A  1      -35.053  81.984  27.848  0.00  0.00    -0.393 OA
ATOM     41  H   UNK A  1      -34.305  81.772  27.251  0.00  0.00    +0.209 HD
ENDBRANCH  39  40
ENDBRANCH  35  39
ENDBRANCH  31  35
ENDBRANCH   1  32
TORSDOF 11
ENDMDL
MODEL 3
REMARK VINA RESULT:      -6.2      4.321      9.355
REMARK  Name = pdb/CHEMBL3934727.pdb
REMARK                            x       y       z     vdW  Elec       q    Type
REMARK                         _______ _______ _______ _____ _____    ______ ____
ROOT
ATOM      1  C   UNK A  0      -40.869  73.056  23.583  0.00  0.00    +0.149 A 
ATOM      2  N   UNK A  0      -41.102  74.372  23.664  0.00  0.00    -0.160 NA
ATOM      3  N   UNK A  0      -40.001  74.898  24.256  0.00  0.00    -0.218 N 
ATOM      4  C   UNK A  0      -39.094  73.899  24.631  0.00  0.00    +0.129 A 
ATOM      5  C   UNK A  0      -39.639  72.719  24.179  0.00  0.00    +0.078 A 
ENDROOT
BRANCH   3   6
ATOM      6  C   UNK A  0      -39.933  76.309  24.454  0.00  0.00    +0.067 A 
ATOM      7  C   UNK A  0      -39.864  77.204  23.383  0.00  0.00    +0.028 A 
ATOM      8  C   UNK A  0      -39.765  78.581  23.616  0.00  0.00    +0.002 A 
ATOM      9  C   UNK A  0      -39.767  79.074  24.919  0.00  0.00    +0.000 A 
ATOM     10  C   UNK A  0      -39.880  78.194  25.991  0.00  0.00    +0.002 A 
ATOM     11  C   UNK A  0      -39.971  76.818  25.763  0.00  0.00    +0.028 A 
ENDBRANCH   3   6
BRANCH   4  12
ATOM     12  N   UNK A  0      -37.921  74.013  25.379  0.00  0.00    -0.266 N 
ATOM     13  H   UNK A  0      -37.065  74.204  24.856  0.00  0.00    +0.157 HD
ATOM     14  C   UNK A  0      -37.843  73.974  26.812  0.00  0.00    +0.251 C 
ATOM     15  O   UNK A  0      -38.862  73.824  27.497  0.00  0.00    -0.270 OA
BRANCH  14  16
ATOM     16  C   UNK A  0      -36.520  74.148  27.465  0.00  0.00    +0.056 A 
ATOM     17  C   UNK A  0      -35.889  73.197  28.279  0.00  0.00    +0.054 A 
ATOM     18 CL   UNK A  0      -36.558  71.682  28.738  0.00  0.00    -0.083 Cl
ATOM     19  C   UNK A  0      -34.619  73.444  28.785  0.00  0.00    +0.041 A 
ATOM     20  C   UNK A  0      -33.951  74.645  28.525  0.00  0.00    +0.052 A 
ATOM     21 CL   UNK A  0      -32.380  74.745  29.248  0.00  0.00    -0.083 Cl
ATOM     22  C   UNK A  0      -34.559  75.665  27.761  0.00  0.00    +0.022 A 
ATOM     23  C   UNK A  0      -35.835  75.366  27.230  0.00  0.00    +0.026 A 
BRANCH  22  24
ATOM     24  C   UNK A  0      -33.932  76.994  27.523  0.00  0.00    +0.107 A 
ATOM     25  C   UNK A  0      -34.308  78.164  28.193  0.00  0.00    +0.149 A 
ATOM     26  F   UNK A  0      -35.318  78.178  29.076  0.00  0.00    -0.203 F 
ATOM     27  C   UNK A  0      -33.616  79.351  27.968  0.00  0.00    +0.042 A 
ATOM     28  C   UNK A  0      -32.548  79.357  27.081  0.00  0.00    +0.023 A 
ATOM     29  C   UNK A  0      -32.243  78.175  26.432  0.00  0.00    +0.111 A 
ATOM     30  N   UNK A  0      -32.923  77.021  26.618  0.00  0.00    -0.252 NA
ENDBRANCH  22  24
ENDBRANCH  14  16
ENDBRANCH   4  12
BRANCH   1  32
ATOM     31  N   UNK A  1      -42.385  72.355  21.888  0.00  0.00    -0.241 NA
ATOM     32  C   UNK A  0      -41.816  72.112  23.009  0.00  0.00    +0.236 C 
BRANCH  32  33
ATOM     33  O   UNK A  0      -42.008  71.015  23.775  0.00  0.00    -0.491 OA
ATOM     34  H   UNK A  0      -42.955  70.769  23.772  0.00  0.00    +0.294 HD
ENDBRANCH  32  33
BRANCH  31  35
ATOM     35  C   UNK A  1      -43.361  71.434  21.286  0.00  0.00    +0.160 C 
BRANCH  35  36
ATOM     36  C   UNK A  1      -44.528  72.234  20.685  0.00  0.00    +0.188 C 
BRANCH  36  38
ATOM     37  C   UNK A  1      -44.834  74.568  20.634  0.00  0.00    +0.194 C 
ATOM     38  O   UNK A  1      -44.037  73.482  20.171  0.00  0.00    -0.381 OA
ENDBRANCH  36  38
ENDBRANCH  35  36
BRANCH  35  39
ATOM     39  C   UNK A  1      -42.625  70.690  20.156  0.00  0.00    +0.185 C 
BRANCH  39  40
ATOM     40  O   UNK A  1      -43.188  71.038  18.890  0.00  0.00    -0.393 OA
ATOM     41  H   UNK A  1      -42.582  70.640  18.231  0.00  0.00    +0.209 HD
ENDBRANCH  39  40
ENDBRANCH  35  39
ENDBRANCH  31  35
ENDBRANCH   1  32
TORSDOF 11
ENDMDL
MODEL 4
REMARK VINA RESULT:      -6.1      6.723     12.082
REMARK  Name = pdb/CHEMBL3934727.pdb
REMARK                            x       y       z     vdW  Elec       q    Type
REMARK                         _______ _______ _______ _____ _____    ______ ____
ROOT
ATOM      1  C   UNK A  0      -33.442  73.380  28.541  0.00  0.00    +0.149 A 
ATOM      2  N   UNK A  0      -33.794  74.577  28.054  0.00  0.00    -0.160 NA
ATOM      3  N   UNK A  0      -32.889  75.453  28.559  0.00  0.00    -0.218 N 
ATOM      4  C   UNK A  0      -32.001  74.822  29.439  0.00  0.00    +0.129 A 
ATOM      5  C   UNK A  0      -32.340  73.488  29.411  0.00  0.00    +0.078 A 
ENDROOT
BRANCH   3   6
ATOM      6  C   UNK A  0      -32.981  76.827  28.188  0.00  0.00    +0.067 A 
ATOM      7  C   UNK A  0      -33.734  77.744  28.927  0.00  0.00    +0.028 A 
ATOM      8  C   UNK A  0      -33.827  79.078  28.514  0.00  0.00    +0.002 A 
ATOM      9  C   UNK A  0      -33.145  79.511  27.379  0.00  0.00    +0.000 A 
ATOM     10  C   UNK A  0      -32.358  78.616  26.661  0.00  0.00    +0.002 A 
ATOM     11  C   UNK A  0      -32.268  77.281  27.066  0.00  0.00    +0.028 A 
ENDBRANCH   3   6
BRANCH   4  12
ATOM     12  N   UNK A  0      -31.025  75.390  30.259  0.00  0.00    -0.266 N 
ATOM     13  H   UNK A  0      -30.338  75.989  29.799  0.00  0.00    +0.157 HD
ATOM     14  C   UNK A  0      -30.968  75.271  31.688  0.00  0.00    +0.251 C 
ATOM     15  O   UNK A  0      -31.822  74.621  32.302  0.00  0.00    -0.270 OA
BRANCH  14  16
ATOM     16  C   UNK A  0      -29.883  75.968  32.425  0.00  0.00    +0.056 A 
ATOM     17  C   UNK A  0      -30.020  76.578  33.680  0.00  0.00    +0.054 A 
ATOM     18 CL   UNK A  0      -31.486  76.702  34.568  0.00  0.00    -0.083 Cl
ATOM     19  C   UNK A  0      -28.916  77.146  34.304  0.00  0.00    +0.041 A 
ATOM     20  C   UNK A  0      -27.657  77.152  33.696  0.00  0.00    +0.052 A 
ATOM     21 CL   UNK A  0      -26.422  77.907  34.647  0.00  0.00    -0.083 Cl
ATOM     22  C   UNK A  0      -27.468  76.605  32.408  0.00  0.00    +0.022 A 
ATOM     23  C   UNK A  0      -28.603  76.002  31.817  0.00  0.00    +0.026 A 
BRANCH  22  24
ATOM     24  C   UNK A  0      -26.172  76.659  31.677  0.00  0.00    +0.107 A 
ATOM     25  C   UNK A  0      -25.291  75.577  31.573  0.00  0.00    +0.149 A 
ATOM     26  F   UNK A  0      -25.534  74.408  32.184  0.00  0.00    -0.203 F 
ATOM     27  C   UNK A  0      -24.135  75.689  30.804  0.00  0.00    +0.042 A 
ATOM     28  C   UNK A  0      -23.876  76.880  30.138  0.00  0.00    +0.023 A 
ATOM     29  C   UNK A  0      -24.772  77.919  30.302  0.00  0.00    +0.111 A 
ATOM     30  N   UNK A  0      -25.883  77.836  31.069  0.00  0.00    -0.252 NA
ENDBRANCH  22  24
ENDBRANCH  14  16
ENDBRANCH   4  12
BRANCH   1  32
ATOM     31  N   UNK A  1      -35.174  72.163  27.454  0.00  0.00    -0.241 NA
ATOM     32  C   UNK A  0      -34.166  72.153  28.244  0.00  0.00    +0.236 C 
BRANCH  32  33
ATOM     33  O   UNK A  0      -33.667  71.071  28.881  0.00  0.00    -0.491 OA
ATOM     34  H   UNK A  0      -32.691  71.127  28.917  0.00  0.00    +0.294 HD
ENDBRANCH  32  33
BRANCH  31  35
ATOM     35  C   UNK A  1      -35.942  70.947  27.145  0.00  0.00    +0.160 C 
BRANCH  35  36
ATOM     36  C   UNK A  1      -37.355  71.330  26.679  0.00  0.00    +0.188 C 
BRANCH  36  38
ATOM     37  C   UNK A  1      -38.257  71.777  24.550  0.00  0.00    +0.194 C 
ATOM     38  O   UNK A  1      -37.266  72.149  25.503  0.00  0.00    -0.381 OA
ENDBRANCH  36  38
ENDBRANCH  35  36
BRANCH  35  39
ATOM     39  C   UNK A  1      -35.204  70.243  25.991  0.00  0.00    +0.185 C 
BRANCH  39  40
ATOM     40  O   UNK A  1      -34.587  71.210  25.139  0.00  0.00    -0.393 OA
ATOM     41  H   UNK A  1      -35.321  71.569  24.599  0.00  0.00    +0.209 HD
ENDBRANCH  39  40
ENDBRANCH  35  39
ENDBRANCH  31  35
ENDBRANCH   1  32
TORSDOF 11
ENDMDL
MODEL 5
REMARK VINA RESULT:      -6.1      3.541      5.192
REMARK  Name = pdb/CHEMBL3934727.pdb
REMARK                            x       y       z     vdW  Elec       q    Type
REMARK                         _______ _______ _______ _____ _____    ______ ____
ROOT
ATOM      1  C   UNK A  0      -37.374  79.883  27.667  0.00  0.00    +0.149 A 
ATOM      2  N   UNK A  0      -36.347  79.238  28.235  0.00  0.00    -0.160 NA
ATOM      3  N   UNK A  0      -36.452  77.952  27.818  0.00  0.00    -0.218 N 
ATOM      4  C   UNK A  0      -37.603  77.757  27.043  0.00  0.00    +0.129 A 
ATOM      5  C   UNK A  0      -38.182  79.000  26.927  0.00  0.00    +0.078 A 
ENDROOT
BRANCH   3   6
ATOM      6  C   UNK A  0      -35.466  77.010  28.235  0.00  0.00    +0.067 A 
ATOM      7  C   UNK A  0      -34.615  76.376  27.326  0.00  0.00    +0.028 A 
ATOM      8  C   UNK A  0      -33.682  75.432  27.769  0.00  0.00    +0.002 A 
ATOM      9  C   UNK A  0      -33.570  75.139  29.127  0.00  0.00    +0.000 A 
ATOM     10  C   UNK A  0      -34.383  75.797  30.045  0.00  0.00    +0.002 A 
ATOM     11  C   UNK A  0      -35.322  76.734  29.606  0.00  0.00    +0.028 A 
ENDBRANCH   3   6
BRANCH   4  12
ATOM     12  N   UNK A  0      -38.137  76.567  26.547  0.00  0.00    -0.266 N 
ATOM     13  H   UNK A  0      -38.708  76.021  27.194  0.00  0.00    +0.157 HD
ATOM     14  C   UNK A  0      -38.024  76.107  25.193  0.00  0.00    +0.251 C 
ATOM     15  O   UNK A  0      -37.409  76.771  24.349  0.00  0.00    -0.270 OA
BRANCH  14  16
ATOM     16  C   UNK A  0      -38.682  74.832  24.809  0.00  0.00    +0.056 A 
ATOM     17  C   UNK A  0      -39.913  74.725  24.147  0.00  0.00    +0.054 A 
ATOM     18 CL   UNK A  0      -40.930  76.044  23.723  0.00  0.00    -0.083 Cl
ATOM     19  C   UNK A  0      -40.403  73.477  23.780  0.00  0.00    +0.041 A 
ATOM     20  C   UNK A  0      -39.706  72.304  24.081  0.00  0.00    +0.052 A 
ATOM     21 CL   UNK A  0      -40.490  70.861  23.531  0.00  0.00    -0.083 Cl
ATOM     22  C   UNK A  0      -38.488  72.342  24.797  0.00  0.00    +0.022 A 
ATOM     23  C   UNK A  0      -38.001  73.629  25.121  0.00  0.00    +0.026 A 
BRANCH  22  24
ATOM     24  C   UNK A  0      -37.747  71.122  25.218  0.00  0.00    +0.107 A 
ATOM     25  C   UNK A  0      -37.774  70.603  26.517  0.00  0.00    +0.149 A 
ATOM     26  F   UNK A  0      -38.442  71.214  27.507  0.00  0.00    -0.203 F 
ATOM     27  C   UNK A  0      -37.114  69.412  26.808  0.00  0.00    +0.042 A 
ATOM     28  C   UNK A  0      -36.439  68.745  25.794  0.00  0.00    +0.023 A 
ATOM     29  C   UNK A  0      -36.428  69.323  24.538  0.00  0.00    +0.111 A 
ATOM     30  N   UNK A  0      -37.039  70.494  24.247  0.00  0.00    -0.252 NA
ENDBRANCH  22  24
ENDBRANCH  14  16
ENDBRANCH   4  12
BRANCH   1  32
ATOM     31  N   UNK A  1      -36.730  82.174  27.611  0.00  0.00    -0.241 NA
ATOM     32  C   UNK A  0      -37.633  81.302  27.865  0.00  0.00    +0.236 C 
BRANCH  32  33
ATOM     33  O   UNK A  0      -38.875  81.558  28.331  0.00  0.00    -0.491 OA
ATOM     34  H   UNK A  0      -38.851  81.660  29.304  0.00  0.00    +0.294 HD
ENDBRANCH  32  33
BRANCH  31  35
ATOM     35  C   UNK A  1      -36.950  83.614  27.816  0.00  0.00    +0.160 C 
BRANCH  35  36
ATOM     36  C   UNK A  1      -36.228  84.071  29.094  0.00  0.00    +0.188 C 
BRANCH  36  38
ATOM     37  C   UNK A  1      -34.165  83.661  30.154  0.00  0.00    +0.194 C 
ATOM     38  O   UNK A  1      -34.809  83.942  28.914  0.00  0.00    -0.381 OA
ENDBRANCH  36  38
ENDBRANCH  35  36
BRANCH  35  39
ATOM     39  C   UNK A  1      -36.328  84.330  26.602  0.00  0.00    +0.185 C 
BRANCH  39  40
ATOM     40  O   UNK A  1      -35.403  83.465  25.942  0.00  0.00    -0.393 OA
ATOM     41  H   UNK A  1      -34.643  83.397  26.556  0.00  0.00    +0.209 HD
ENDBRANCH  39  40
ENDBRANCH  35  39
ENDBRANCH  31  35
ENDBRANCH   1  32
TORSDOF 11
ENDMDL
MODEL 6
REMARK VINA RESULT:      -6.0      8.744     12.236
REMARK  Name = pdb/CHEMBL3934727.pdb
REMARK                            x       y       z     vdW  Elec       q    Type
REMARK                         _______ _______ _______ _____ _____    ______ ____
ROOT
ATOM      1  C   UNK A  0      -31.689  87.083  30.185  0.00  0.00    +0.149 A 
ATOM      2  N   UNK A  0      -32.592  87.841  29.550  0.00  0.00    -0.160 NA
ATOM      3  N   UNK A  0      -33.561  86.984  29.142  0.00  0.00    -0.218 N 
ATOM      4  C   UNK A  0      -33.233  85.657  29.448  0.00  0.00    +0.129 A 
ATOM      5  C   UNK A  0      -32.044  85.721  30.138  0.00  0.00    +0.078 A 
ENDROOT
BRANCH   3   6
ATOM      6  C   UNK A  0      -34.696  87.506  28.454  0.00  0.00    +0.067 A 
ATOM      7  C   UNK A  0      -35.080  88.845  28.567  0.00  0.00    +0.028 A 
ATOM      8  C   UNK A  0      -36.219  89.313  27.902  0.00  0.00    +0.002 A 
ATOM      9  C   UNK A  0      -36.963  88.455  27.096  0.00  0.00    +0.000 A 
ATOM     10  C   UNK A  0      -36.565  87.130  26.942  0.00  0.00    +0.002 A 
ATOM     11  C   UNK A  0      -35.432  86.657  27.610  0.00  0.00    +0.028 A 
ENDBRANCH   3   6
BRANCH   4  12
ATOM     12  N   UNK A  0      -33.891  84.482  29.080  0.00  0.00    -0.266 N 
ATOM     13  H   UNK A  0      -33.640  84.087  28.173  0.00  0.00    +0.157 HD
ATOM     14  C   UNK A  0      -34.809  83.751  29.906  0.00  0.00    +0.251 C 
ATOM     15  O   UNK A  0      -35.086  84.145  31.046  0.00  0.00    -0.270 OA
BRANCH  14  16
ATOM     16  C   UNK A  0      -35.401  82.493  29.383  0.00  0.00    +0.056 A 
ATOM     17  C   UNK A  0      -36.772  82.203  29.335  0.00  0.00    +0.054 A 
ATOM     18 CL   UNK A  0      -38.022  83.215  29.940  0.00  0.00    -0.083 Cl
ATOM     19  C   UNK A  0      -37.215  81.017  28.763  0.00  0.00    +0.041 A 
ATOM     20  C   UNK A  0      -36.318  80.074  28.252  0.00  0.00    +0.052 A 
ATOM     21 CL   UNK A  0      -37.080  78.670  27.583  0.00  0.00    -0.083 Cl
ATOM     22  C   UNK A  0      -34.922  80.282  28.325  0.00  0.00    +0.022 A 
ATOM     23  C   UNK A  0      -34.508  81.516  28.877  0.00  0.00    +0.026 A 
BRANCH  22  24
ATOM     24  C   UNK A  0      -33.920  79.278  27.874  0.00  0.00    +0.107 A 
ATOM     25  C   UNK A  0      -33.680  78.067  28.533  0.00  0.00    +0.149 A 
ATOM     26  F   UNK A  0      -34.314  77.745  29.671  0.00  0.00    -0.203 F 
ATOM     27  C   UNK A  0      -32.779  77.148  28.000  0.00  0.00    +0.042 A 
ATOM     28  C   UNK A  0      -32.133  77.445  26.808  0.00  0.00    +0.023 A 
ATOM     29  C   UNK A  0      -32.393  78.669  26.221  0.00  0.00    +0.111 A 
ATOM     30  N   UNK A  0      -33.243  79.584  26.740  0.00  0.00    -0.252 NA
ENDBRANCH  22  24
ENDBRANCH  14  16
ENDBRANCH   4  12
BRANCH   1  32
ATOM     31  N   UNK A  1      -30.276  87.550  32.042  0.00  0.00    -0.241 NA
ATOM     32  C   UNK A  0      -30.473  87.619  30.779  0.00  0.00    +0.236 C 
BRANCH  32  33
ATOM     33  O   UNK A  0      -29.635  88.170  29.873  0.00  0.00    -0.491 OA
ATOM     34  H   UNK A  0      -28.878  88.588  30.332  0.00  0.00    +0.294 HD
ENDBRANCH  32  33
BRANCH  31  35
ATOM     35  C   UNK A  1      -29.068  88.098  32.679  0.00  0.00    +0.160 C 
BRANCH  35  36
ATOM     36  C   UNK A  1      -29.368  89.496  33.244  0.00  0.00    +0.188 C 
BRANCH  36  38
ATOM     37  C   UNK A  1      -28.805  91.018  34.950  0.00  0.00    +0.194 C 
ATOM     38  O   UNK A  1      -28.507  89.754  34.364  0.00  0.00    -0.381 OA
ENDBRANCH  36  38
ENDBRANCH  35  36
BRANCH  35  39
ATOM     39  C   UNK A  1      -28.717  87.150  33.842  0.00  0.00    +0.185 C 
BRANCH  39  40
ATOM     40  O   UNK A  1      -27.302  86.966  33.916  0.00  0.00    -0.393 OA
ATOM     41  H   UNK A  1      -26.964  87.796  34.311  0.00  0.00    +0.209 HD
ENDBRANCH  39  40
ENDBRANCH  35  39
ENDBRANCH  31  35
ENDBRANCH   1  32
TORSDOF 11
ENDMDL
MODEL 7
REMARK VINA RESULT:      -6.0      3.754      7.442
REMARK  Name = pdb/CHEMBL3934727.pdb
REMARK                            x       y       z     vdW  Elec       q    Type
REMARK                         _______ _______ _______ _____ _____    ______ ____
ROOT
ATOM      1  C   UNK A  0      -31.626  74.218  29.698  0.00  0.00    +0.149 A 
ATOM      2  N   UNK A  0      -31.609  75.537  29.466  0.00  0.00    -0.160 NA
ATOM      3  N   UNK A  0      -32.711  75.786  28.716  0.00  0.00    -0.218 N 
ATOM      4  C   UNK A  0      -33.392  74.604  28.398  0.00  0.00    +0.129 A 
ATOM      5  C   UNK A  0      -32.710  73.600  29.047  0.00  0.00    +0.078 A 
ENDROOT
BRANCH   3   6
ATOM      6  C   UNK A  0      -32.991  77.129  28.329  0.00  0.00    +0.067 A 
ATOM      7  C   UNK A  0      -33.922  77.918  29.012  0.00  0.00    +0.028 A 
ATOM      8  C   UNK A  0      -34.194  79.222  28.583  0.00  0.00    +0.002 A 
ATOM      9  C   UNK A  0      -33.517  79.758  27.490  0.00  0.00    +0.000 A 
ATOM     10  C   UNK A  0      -32.557  78.996  26.830  0.00  0.00    +0.002 A 
ATOM     11  C   UNK A  0      -32.287  77.691  27.250  0.00  0.00    +0.028 A 
ENDBRANCH   3   6
BRANCH   4  12
ATOM     12  N   UNK A  0      -34.479  74.419  27.542  0.00  0.00    -0.266 N 
ATOM     13  H   UNK A  0      -34.264  74.096  26.598  0.00  0.00    +0.157 HD
ATOM     14  C   UNK A  0      -35.860  74.559  27.910  0.00  0.00    +0.251 C 
ATOM     15  O   UNK A  0      -36.177  74.873  29.064  0.00  0.00    -0.270 OA
BRANCH  14  16
ATOM     16  C   UNK A  0      -36.907  74.292  26.891  0.00  0.00    +0.056 A 
ATOM     17  C   UNK A  0      -37.224  73.030  26.371  0.00  0.00    +0.054 A 
ATOM     18 CL   UNK A  0      -36.413  71.564  26.756  0.00  0.00    -0.083 Cl
ATOM     19  C   UNK A  0      -38.270  72.890  25.466  0.00  0.00    +0.041 A 
ATOM     20  C   UNK A  0      -39.009  73.994  25.030  0.00  0.00    +0.052 A 
ATOM     21 CL   UNK A  0      -40.266  73.598  23.907  0.00  0.00    -0.083 Cl
ATOM     22  C   UNK A  0      -38.699  75.299  25.474  0.00  0.00    +0.022 A 
ATOM     23  C   UNK A  0      -37.655  75.400  26.422  0.00  0.00    +0.026 A 
BRANCH  22  24
ATOM     24  C   UNK A  0      -39.394  76.519  24.980  0.00  0.00    +0.107 A 
ATOM     25  C   UNK A  0      -38.860  77.387  24.021  0.00  0.00    +0.149 A 
ATOM     26  F   UNK A  0      -37.633  77.204  23.509  0.00  0.00    -0.203 F 
ATOM     27  C   UNK A  0      -39.612  78.463  23.556  0.00  0.00    +0.042 A 
ATOM     28  C   UNK A  0      -40.895  78.657  24.049  0.00  0.00    +0.023 A 
ATOM     29  C   UNK A  0      -41.355  77.781  25.013  0.00  0.00    +0.111 A 
ATOM     30  N   UNK A  0      -40.627  76.748  25.496  0.00  0.00    -0.252 NA
ENDBRANCH  22  24
ENDBRANCH  14  16
ENDBRANCH   4  12
BRANCH   1  32
ATOM     31  N   UNK A  1      -30.095  74.074  31.514  0.00  0.00    -0.241 NA
ATOM     32  C   UNK A  0      -30.603  73.530  30.472  0.00  0.00    +0.236 C 
BRANCH  32  33
ATOM     33  O   UNK A  0      -30.276  72.320  29.969  0.00  0.00    -0.491 OA
ATOM     34  H   UNK A  0      -30.042  72.405  29.022  0.00  0.00    +0.294 HD
ENDBRANCH  32  33
BRANCH  31  35
ATOM     35  C   UNK A  1      -29.046  73.418  32.310  0.00  0.00    +0.160 C 
BRANCH  35  36
ATOM     36  C   UNK A  1      -27.774  74.282  32.305  0.00  0.00    +0.188 C 
BRANCH  36  38
ATOM     37  C   UNK A  1      -26.940  76.436  31.850  0.00  0.00    +0.194 C 
ATOM     38  O   UNK A  1      -28.095  75.602  31.839  0.00  0.00    -0.381 OA
ENDBRANCH  36  38
ENDBRANCH  35  36
BRANCH  35  39
ATOM     39  C   UNK A  1      -29.583  73.320  33.750  0.00  0.00    +0.185 C 
BRANCH  39  40
ATOM     40  O   UNK A  1      -28.752  72.457  34.528  0.00  0.00    -0.393 OA
ATOM     41  H   UNK A  1      -29.073  71.554  34.326  0.00  0.00    +0.209 HD
ENDBRANCH  39  40
ENDBRANCH  35  39
ENDBRANCH  31  35
ENDBRANCH   1  32
TORSDOF 11
ENDMDL
MODEL 8
REMARK VINA RESULT:      -6.0      6.034      8.707
REMARK  Name = pdb/CHEMBL3934727.pdb
REMARK                            x       y       z     vdW  Elec       q    Type
REMARK                         _______ _______ _______ _____ _____    ______ ____
ROOT
ATOM      1  C   UNK A  0      -29.242  75.931  31.361  0.00  0.00    +0.149 A 
ATOM      2  N   UNK A  0      -30.016  76.454  30.401  0.00  0.00    -0.160 NA
ATOM      3  N   UNK A  0      -30.979  75.527  30.169  0.00  0.00    -0.218 N 
ATOM      4  C   UNK A  0      -30.770  74.369  30.928  0.00  0.00    +0.129 A 
ATOM      5  C   UNK A  0      -29.669  74.636  31.710  0.00  0.00    +0.078 A 
ENDROOT
BRANCH   3   6
ATOM      6  C   UNK A  0      -31.991  75.813  29.206  0.00  0.00    +0.067 A 
ATOM      7  C   UNK A  0      -33.074  74.956  28.991  0.00  0.00    +0.028 A 
ATOM      8  C   UNK A  0      -34.030  75.254  28.014  0.00  0.00    +0.002 A 
ATOM      9  C   UNK A  0      -33.929  76.425  27.266  0.00  0.00    +0.000 A 
ATOM     10  C   UNK A  0      -32.878  77.307  27.502  0.00  0.00    +0.002 A 
ATOM     11  C   UNK A  0      -31.917  77.010  28.472  0.00  0.00    +0.028 A 
ENDBRANCH   3   6
BRANCH   4  12
ATOM     12  N   UNK A  0      -31.448  73.151  30.877  0.00  0.00    -0.266 N 
ATOM     13  H   UNK A  0      -32.324  73.096  31.398  0.00  0.00    +0.157 HD
ATOM     14  C   UNK A  0      -31.061  72.017  30.086  0.00  0.00    +0.251 C 
ATOM     15  O   UNK A  0      -30.050  72.059  29.374  0.00  0.00    -0.270 OA
BRANCH  14  16
ATOM     16  C   UNK A  0      -31.911  70.799  30.110  0.00  0.00    +0.056 A 
ATOM     17  C   UNK A  0      -31.973  69.877  31.163  0.00  0.00    +0.054 A 
ATOM     18 CL   UNK A  0      -31.021  69.937  32.593  0.00  0.00    -0.083 Cl
ATOM     19  C   UNK A  0      -32.855  68.805  31.102  0.00  0.00    +0.041 A 
ATOM     20  C   UNK A  0      -33.678  68.601  29.991  0.00  0.00    +0.052 A 
ATOM     21 CL   UNK A  0      -34.703  67.210  30.122  0.00  0.00    -0.083 Cl
ATOM     22  C   UNK A  0      -33.620  69.463  28.873  0.00  0.00    +0.022 A 
ATOM     23  C   UNK A  0      -32.739  70.563  28.984  0.00  0.00    +0.026 A 
BRANCH  22  24
ATOM     24  C   UNK A  0      -34.409  69.246  27.630  0.00  0.00    +0.107 A 
ATOM     25  C   UNK A  0      -35.559  69.972  27.300  0.00  0.00    +0.149 A 
ATOM     26  F   UNK A  0      -36.070  70.897  28.126  0.00  0.00    -0.203 F 
ATOM     27  C   UNK A  0      -36.193  69.760  26.078  0.00  0.00    +0.042 A 
ATOM     28  C   UNK A  0      -35.666  68.828  25.193  0.00  0.00    +0.023 A 
ATOM     29  C   UNK A  0      -34.544  68.126  25.589  0.00  0.00    +0.111 A 
ATOM     30  N   UNK A  0      -33.934  68.299  26.784  0.00  0.00    -0.252 NA
ENDBRANCH  22  24
ENDBRANCH  14  16
ENDBRANCH   4  12
BRANCH   1  32
ATOM     31  N   UNK A  1      -26.925  76.475  31.356  0.00  0.00    -0.241 NA
ATOM     32  C   UNK A  0      -28.075  76.611  31.903  0.00  0.00    +0.236 C 
BRANCH  32  33
ATOM     33  O   UNK A  0      -28.351  77.353  32.998  0.00  0.00    -0.491 OA
ATOM     34  H   UNK A  0      -27.529  77.761  33.339  0.00  0.00    +0.294 HD
ENDBRANCH  32  33
BRANCH  31  35
ATOM     35  C   UNK A  1      -25.720  77.131  31.888  0.00  0.00    +0.160 C 
BRANCH  35  36
ATOM     36  C   UNK A  1      -24.672  76.069  32.258  0.00  0.00    +0.188 C 
BRANCH  36  38
ATOM     37  C   UNK A  1      -22.720  75.235  31.239  0.00  0.00    +0.194 C 
ATOM     38  O   UNK A  1      -23.414  76.408  31.654  0.00  0.00    -0.381 OA
ENDBRANCH  36  38
ENDBRANCH  35  36
BRANCH  35  39
ATOM     39  C   UNK A  1      -25.165  78.013  30.754  0.00  0.00    +0.185 C 
BRANCH  39  40
ATOM     40  O   UNK A  1      -25.177  77.294  29.520  0.00  0.00    -0.393 OA
ATOM     41  H   UNK A  1      -24.556  77.782  28.941  0.00  0.00    +0.209 HD
ENDBRANCH  39  40
ENDBRANCH  35  39
ENDBRANCH  31  35
ENDBRANCH   1  32
TORSDOF 11
ENDMDL
MODEL 9
REMARK VINA RESULT:      -6.0     17.785     20.822
REMARK  Name = pdb/CHEMBL3934727.pdb
REMARK                            x       y       z     vdW  Elec       q    Type
REMARK                         _______ _______ _______ _____ _____    ______ ____
ROOT
ATOM      1  C   UNK A  0      -24.903  83.057  37.090  0.00  0.00    +0.149 A 
ATOM      2  N   UNK A  0      -23.995  83.443  37.997  0.00  0.00    -0.160 NA
ATOM      3  N   UNK A  0      -22.895  82.689  37.750  0.00  0.00    -0.218 N 
ATOM      4  C   UNK A  0      -23.131  81.757  36.731  0.00  0.00    +0.129 A 
ATOM      5  C   UNK A  0      -24.410  82.008  36.291  0.00  0.00    +0.078 A 
ENDROOT
BRANCH   3   6
ATOM      6  C   UNK A  0      -21.728  82.895  38.543  0.00  0.00    +0.067 A 
ATOM      7  C   UNK A  0      -21.617  82.393  39.843  0.00  0.00    +0.028 A 
ATOM      8  C   UNK A  0      -20.469  82.643  40.602  0.00  0.00    +0.002 A 
ATOM      9  C   UNK A  0      -19.412  83.370  40.059  0.00  0.00    +0.000 A 
ATOM     10  C   UNK A  0      -19.495  83.837  38.751  0.00  0.00    +0.002 A 
ATOM     11  C   UNK A  0      -20.642  83.596  37.991  0.00  0.00    +0.028 A 
ENDBRANCH   3   6
BRANCH   4  12
ATOM     12  N   UNK A  0      -22.311  80.721  36.281  0.00  0.00    -0.266 N 
ATOM     13  H   UNK A  0      -22.596  79.774  36.533  0.00  0.00    +0.157 HD
ATOM     14  C   UNK A  0      -21.167  80.877  35.428  0.00  0.00    +0.251 C 
ATOM     15  O   UNK A  0      -20.825  81.998  35.029  0.00  0.00    -0.270 OA
BRANCH  14  16
ATOM     16  C   UNK A  0      -20.415  79.668  35.004  0.00  0.00    +0.056 A 
ATOM     17  C   UNK A  0      -19.331  79.108  35.694  0.00  0.00    +0.054 A 
ATOM     18 CL   UNK A  0      -18.617  79.755  37.117  0.00  0.00    -0.083 Cl
ATOM     19  C   UNK A  0      -18.744  77.935  35.236  0.00  0.00    +0.041 A 
ATOM     20  C   UNK A  0      -19.192  77.301  34.073  0.00  0.00    +0.052 A 
ATOM     21 CL   UNK A  0      -18.325  75.852  33.685  0.00  0.00    -0.083 Cl
ATOM     22  C   UNK A  0      -20.242  77.848  33.304  0.00  0.00    +0.022 A 
ATOM     23  C   UNK A  0      -20.841  79.021  33.818  0.00  0.00    +0.026 A 
BRANCH  22  24
ATOM     24  C   UNK A  0      -20.704  77.264  32.015  0.00  0.00    +0.107 A 
ATOM     25  C   UNK A  0      -21.858  76.485  31.881  0.00  0.00    +0.149 A 
ATOM     26  F   UNK A  0      -22.615  76.158  32.939  0.00  0.00    -0.203 F 
ATOM     27  C   UNK A  0      -22.261  76.043  30.623  0.00  0.00    +0.042 A 
ATOM     28  C   UNK A  0      -21.510  76.391  29.509  0.00  0.00    +0.023 A 
ATOM     29  C   UNK A  0      -20.367  77.141  29.710  0.00  0.00    +0.111 A 
ATOM     30  N   UNK A  0      -19.946  77.554  30.928  0.00  0.00    -0.252 NA
ENDBRANCH  22  24
ENDBRANCH  14  16
ENDBRANCH   4  12
BRANCH   1  32
ATOM     31  N   UNK A  1      -26.443  84.752  36.443  0.00  0.00    -0.241 NA
ATOM     32  C   UNK A  0      -26.242  83.622  37.011  0.00  0.00    +0.236 C 
BRANCH  32  33
ATOM     33  O   UNK A  0      -27.184  82.846  37.590  0.00  0.00    -0.491 OA
ATOM     34  H   UNK A  0      -27.960  82.767  36.998  0.00  0.00    +0.294 HD
ENDBRANCH  32  33
BRANCH  31  35
ATOM     35  C   UNK A  1      -27.779  85.363  36.360  0.00  0.00    +0.160 C 
BRANCH  35  36
ATOM     36  C   UNK A  1      -28.043  86.205  37.619  0.00  0.00    +0.188 C 
BRANCH  36  38
ATOM     37  C   UNK A  1      -27.159  88.240  38.408  0.00  0.00    +0.194 C 
ATOM     38  O   UNK A  1      -26.849  86.918  37.977  0.00  0.00    -0.381 OA
ENDBRANCH  36  38
ENDBRANCH  35  36
BRANCH  35  39
ATOM     39  C   UNK A  1      -27.764  86.288  35.129  0.00  0.00    +0.185 C 
BRANCH  39  40
ATOM     40  O   UNK A  1      -26.569  87.071  35.118  0.00  0.00    -0.393 OA
ATOM     41  H   UNK A  1      -26.667  87.663  34.343  0.00  0.00    +0.209 HD
ENDBRANCH  39  40
ENDBRANCH  35  39
ENDBRANCH  31  35
ENDBRANCH   1  32
TORSDOF 11
ENDMDL
