MODEL 1
REMARK VINA RESULT:      -6.3      0.000      0.000
REMARK  Name = pdb/CHEMBL3676008.pdb
REMARK                            x       y       z     vdW  Elec       q    Type
REMARK                         _______ _______ _______ _____ _____    ______ ____
ROOT
ATOM      1  C   LIG    1      -25.486  77.501  32.400  0.00  0.00    +0.100 A 
ATOM      2  C   LIG    1      -24.938  78.162  33.490  0.00  0.00    +0.170 A 
ATOM      3  N   LIG    1      -23.743  78.815  33.667  0.00  0.00    -0.212 NA
ATOM      4  C   LIG    1      -23.490  79.345  34.847  0.00  0.00    +0.126 A 
ATOM      5  C   LIG    1      -24.480  79.253  35.988  0.00  0.00    +0.063 A 
ATOM      6  C   LIG    1      -25.635  78.623  35.754  0.00  0.00    +0.118 A 
ATOM      7  N   LIG    1      -25.887  78.070  34.511  0.00  0.00    -0.221 N 
ATOM      8  N   LIG    1      -26.999  77.408  34.122  0.00  0.00    -0.173 NA
ATOM      9  C   LIG    1      -26.751  77.070  32.857  0.00  0.00    +0.150 A 
ENDROOT
BRANCH   4  10
ATOM     10  N   LIG    1      -22.287  80.009  35.060  0.00  0.00    -0.308 N 
ATOM     11  C   LIG    1      -21.114  79.352  35.665  0.00  0.00    +0.107 C 
ATOM     12  C   LIG    1      -20.642  80.391  36.692  0.00  0.00    +0.029 C 
ATOM     13  C   LIG    1      -20.909  81.716  35.998  0.00  0.00    +0.021 C 
ATOM     14  C   LIG    1      -22.223  81.462  35.270  0.00  0.00    +0.107 C 
BRANCH  11  15
ATOM     15  C   LIG    1      -20.057  79.019  34.625  0.00  0.00    -0.006 A 
ATOM     16  C   LIG    1      -20.349  78.841  33.265  0.00  0.00    +0.046 A 
ATOM     17  C   LIG    1      -19.337  78.535  32.367  0.00  0.00    +0.142 A 
ATOM     18  F   LIG    1      -19.621  78.361  31.070  0.00  0.00    -0.204 F 
ATOM     19  C   LIG    1      -18.045  78.415  32.834  0.00  0.00    +0.149 A 
ATOM     20  N   LIG    1      -17.705  78.596  34.132  0.00  0.00    -0.260 NA
ATOM     21  C   LIG    1      -18.714  78.894  34.991  0.00  0.00    +0.116 A 
ENDBRANCH  11  15
ENDBRANCH   4  10
BRANCH   1  24
ATOM     22  N   LIG    1      -23.598  77.616  30.945  0.00  0.00    -0.306 N 
ATOM     23  H   LIG    1      -23.126  77.990  31.769  0.00  0.00    +0.149 HD
ATOM     24  C   LIG    1      -24.924  77.293  31.080  0.00  0.00    +0.249 C 
ATOM     25  O   LIG    1      -25.591  76.848  30.144  0.00  0.00    -0.270 OA
BRANCH  22  26
ATOM     26  C   LIG    1      -22.879  77.508  29.684  0.00  0.00    +0.176 C 
BRANCH  26  28
ATOM     27  F   LIG    1      -20.846  76.668  28.830  0.00  0.00    -0.208 F 
ATOM     28  C   LIG    1      -21.926  76.317  29.581  0.00  0.00    +0.358 C 
ATOM     29  F   LIG    1      -21.441  76.018  30.817  0.00  0.00    -0.208 F 
ENDBRANCH  26  28
ENDBRANCH  22  26
ENDBRANCH   1  24
TORSDOF 5
ENDMDL
MODEL 2
REMARK VINA RESULT:      -5.8      2.298      5.304
REMARK  Name = pdb/CHEMBL3676008.pdb
REMARK                            x       y       z     vdW  Elec       q    Type
REMARK                         _______ _______ _______ _____ _____    ______ ____
ROOT
ATOM      1  C   LIG    1      -20.224  76.920  30.529  0.00  0.00    +0.100 A 
ATOM      2  C   LIG    1      -19.828  77.583  31.682  0.00  0.00    +0.170 A 
ATOM      3  N   LIG    1      -20.540  78.144  32.714  0.00  0.00    -0.212 NA
ATOM      4  C   LIG    1      -19.872  78.730  33.687  0.00  0.00    +0.126 A 
ATOM      5  C   LIG    1      -18.360  78.788  33.690  0.00  0.00    +0.063 A 
ATOM      6  C   LIG    1      -17.717  78.208  32.672  0.00  0.00    +0.118 A 
ATOM      7  N   LIG    1      -18.432  77.598  31.656  0.00  0.00    -0.221 N 
ATOM      8  N   LIG    1      -17.931  76.973  30.567  0.00  0.00    -0.173 NA
ATOM      9  C   LIG    1      -19.011  76.570  29.898  0.00  0.00    +0.150 A 
ENDROOT
BRANCH   4  10
ATOM     10  N   LIG    1      -20.564  79.312  34.744  0.00  0.00    -0.308 N 
ATOM     11  C   LIG    1      -21.618  80.322  34.542  0.00  0.00    +0.107 C 
ATOM     12  C   LIG    1      -21.261  81.391  35.584  0.00  0.00    +0.029 C 
ATOM     13  C   LIG    1      -20.745  80.577  36.759  0.00  0.00    +0.021 C 
ATOM     14  C   LIG    1      -19.972  79.452  36.082  0.00  0.00    +0.107 C 
BRANCH  11  15
ATOM     15  C   LIG    1      -23.006  79.734  34.743  0.00  0.00    -0.006 A 
ATOM     16  C   LIG    1      -23.400  78.499  34.208  0.00  0.00    +0.046 A 
ATOM     17  C   LIG    1      -24.684  78.022  34.425  0.00  0.00    +0.142 A 
ATOM     18  F   LIG    1      -25.057  76.844  33.909  0.00  0.00    -0.204 F 
ATOM     19  C   LIG    1      -25.558  78.777  35.178  0.00  0.00    +0.149 A 
ATOM     20  N   LIG    1      -25.223  79.965  35.734  0.00  0.00    -0.260 NA
ATOM     21  C   LIG    1      -23.961  80.411  35.505  0.00  0.00    +0.116 A 
ENDBRANCH  11  15
ENDBRANCH   4  10
BRANCH   1  24
ATOM     22  N   LIG    1      -22.539  76.615  31.020  0.00  0.00    -0.306 N 
ATOM     23  H   LIG    1      -22.245  76.790  31.981  0.00  0.00    +0.149 HD
ATOM     24  C   LIG    1      -21.563  76.628  30.057  0.00  0.00    +0.249 C 
ATOM     25  O   LIG    1      -21.809  76.413  28.869  0.00  0.00    -0.270 OA
BRANCH  22  26
ATOM     26  C   LIG    1      -23.932  76.302  30.734  0.00  0.00    +0.176 C 
BRANCH  26  28
ATOM     27  F   LIG    1      -25.833  77.594  31.269  0.00  0.00    -0.208 F 
ATOM     28  C   LIG    1      -24.807  77.505  30.379  0.00  0.00    +0.358 C 
ATOM     29  F   LIG    1      -24.084  78.649  30.527  0.00  0.00    -0.208 F 
ENDBRANCH  26  28
ENDBRANCH  22  26
ENDBRANCH   1  24
TORSDOF 5
ENDMDL
MODEL 3
REMARK VINA RESULT:      -5.8      2.647      5.199
REMARK  Name = pdb/CHEMBL3676008.pdb
REMARK                            x       y       z     vdW  Elec       q    Type
REMARK                         _______ _______ _______ _____ _____    ______ ____
ROOT
ATOM      1  C   LIG    1      -22.871  76.860  30.464  0.00  0.00    +0.100 A 
ATOM      2  C   LIG    1      -21.999  77.430  31.379  0.00  0.00    +0.170 A 
ATOM      3  N   LIG    1      -22.188  77.940  32.640  0.00  0.00    -0.212 NA
ATOM      4  C   LIG    1      -21.147  78.439  33.275  0.00  0.00    +0.126 A 
ATOM      5  C   LIG    1      -19.768  78.453  32.652  0.00  0.00    +0.063 A 
ATOM      6  C   LIG    1      -19.637  77.926  31.431  0.00  0.00    +0.118 A 
ATOM      7  N   LIG    1      -20.739  77.407  30.775  0.00  0.00    -0.221 N 
ATOM      8  N   LIG    1      -20.769  76.843  29.547  0.00  0.00    -0.173 NA
ATOM      9  C   LIG    1      -22.049  76.519  29.368  0.00  0.00    +0.150 A 
ENDROOT
BRANCH   4  10
ATOM     10  N   LIG    1      -21.306  78.967  34.552  0.00  0.00    -0.308 N 
ATOM     11  C   LIG    1      -22.050  80.214  34.807  0.00  0.00    +0.107 C 
ATOM     12  C   LIG    1      -21.119  80.966  35.770  0.00  0.00    +0.029 C 
ATOM     13  C   LIG    1      -20.528  79.857  36.624  0.00  0.00    +0.021 C 
ATOM     14  C   LIG    1      -20.333  78.723  35.626  0.00  0.00    +0.107 C 
BRANCH  11  15
ATOM     15  C   LIG    1      -23.423  79.940  35.399  0.00  0.00    -0.006 A 
ATOM     16  C   LIG    1      -23.977  78.655  35.485  0.00  0.00    +0.046 A 
ATOM     17  C   LIG    1      -25.238  78.474  36.033  0.00  0.00    +0.142 A 
ATOM     18  F   LIG    1      -25.767  77.246  36.108  0.00  0.00    -0.204 F 
ATOM     19  C   LIG    1      -25.930  79.574  36.494  0.00  0.00    +0.149 A 
ATOM     20  N   LIG    1      -25.433  80.833  36.455  0.00  0.00    -0.260 NA
ATOM     21  C   LIG    1      -24.197  80.984  35.912  0.00  0.00    +0.116 A 
ENDBRANCH  11  15
ENDBRANCH   4  10
BRANCH   1  24
ATOM     22  N   LIG    1      -24.694  75.861  31.635  0.00  0.00    -0.306 N 
ATOM     23  H   LIG    1      -23.959  75.488  32.237  0.00  0.00    +0.149 HD
ATOM     24  C   LIG    1      -24.299  76.639  30.578  0.00  0.00    +0.249 C 
ATOM     25  O   LIG    1      -25.105  77.126  29.782  0.00  0.00    -0.270 OA
BRANCH  22  26
ATOM     26  C   LIG    1      -26.084  75.504  31.882  0.00  0.00    +0.176 C 
BRANCH  26  28
ATOM     27  F   LIG    1      -26.078  77.546  33.063  0.00  0.00    -0.208 F 
ATOM     28  C   LIG    1      -26.907  76.566  32.611  0.00  0.00    +0.358 C 
ATOM     29  F   LIG    1      -27.751  77.168  31.729  0.00  0.00    -0.208 F 
ENDBRANCH  26  28
ENDBRANCH  22  26
ENDBRANCH   1  24
TORSDOF 5
ENDMDL
MODEL 4
REMARK VINA RESULT:      -5.5      3.129      7.159
REMARK  Name = pdb/CHEMBL3676008.pdb
REMARK                            x       y       z     vdW  Elec       q    Type
REMARK                         _______ _______ _______ _____ _____    ______ ____
ROOT
ATOM      1  C   LIG    1      -18.143  78.011  33.094  0.00  0.00    +0.100 A 
ATOM      2  C   LIG    1      -19.117  77.691  32.160  0.00  0.00    +0.170 A 
ATOM      3  N   LIG    1      -20.488  77.771  32.191  0.00  0.00    -0.212 NA
ATOM      4  C   LIG    1      -21.162  77.371  31.131  0.00  0.00    +0.126 A 
ATOM      5  C   LIG    1      -20.462  76.840  29.899  0.00  0.00    +0.063 A 
ATOM      6  C   LIG    1      -19.126  76.802  29.915  0.00  0.00    +0.118 A 
ATOM      7  N   LIG    1      -18.432  77.224  31.036  0.00  0.00    -0.221 N 
ATOM      8  N   LIG    1      -17.091  77.248  31.204  0.00  0.00    -0.173 NA
ATOM      9  C   LIG    1      -16.927  77.721  32.440  0.00  0.00    +0.150 A 
ENDROOT
BRANCH   4  10
ATOM     10  N   LIG    1      -22.551  77.435  31.134  0.00  0.00    -0.308 N 
ATOM     11  C   LIG    1      -23.378  76.694  32.104  0.00  0.00    +0.107 C 
ATOM     12  C   LIG    1      -24.471  76.085  31.214  0.00  0.00    +0.029 C 
ATOM     13  C   LIG    1      -24.718  77.164  30.173  0.00  0.00    +0.021 C 
ATOM     14  C   LIG    1      -23.322  77.716  29.915  0.00  0.00    +0.107 C 
BRANCH  11  15
ATOM     15  C   LIG    1      -23.932  77.608  33.185  0.00  0.00    -0.006 A 
ATOM     16  C   LIG    1      -23.378  78.861  33.486  0.00  0.00    +0.046 A 
ATOM     17  C   LIG    1      -23.930  79.644  34.489  0.00  0.00    +0.142 A 
ATOM     18  F   LIG    1      -23.396  80.838  34.777  0.00  0.00    -0.204 F 
ATOM     19  C   LIG    1      -25.029  79.174  35.175  0.00  0.00    +0.149 A 
ATOM     20  N   LIG    1      -25.615  77.982  34.911  0.00  0.00    -0.260 NA
ATOM     21  C   LIG    1      -25.055  77.233  33.926  0.00  0.00    +0.116 A 
ENDBRANCH  11  15
ENDBRANCH   4  10
BRANCH   1  24
ATOM     22  N   LIG    1      -19.590  78.573  34.907  0.00  0.00    -0.306 N 
ATOM     23  H   LIG    1      -20.324  78.251  34.277  0.00  0.00    +0.149 HD
ATOM     24  C   LIG    1      -18.303  78.535  34.436  0.00  0.00    +0.249 C 
ATOM     25  O   LIG    1      -17.344  78.915  35.112  0.00  0.00    -0.270 OA
BRANCH  22  26
ATOM     26  C   LIG    1      -19.940  79.103  36.217  0.00  0.00    +0.176 C 
BRANCH  26  28
ATOM     27  F   LIG    1      -20.538  81.013  34.968  0.00  0.00    -0.208 F 
ATOM     28  C   LIG    1      -20.307  80.587  36.240  0.00  0.00    +0.358 C 
ATOM     29  F   LIG    1      -21.480  80.753  36.909  0.00  0.00    -0.208 F 
ENDBRANCH  26  28
ENDBRANCH  22  26
ENDBRANCH   1  24
TORSDOF 5
ENDMDL
MODEL 5
REMARK VINA RESULT:      -5.4      2.630      4.908
REMARK  Name = pdb/CHEMBL3676008.pdb
REMARK                            x       y       z     vdW  Elec       q    Type
REMARK                         _______ _______ _______ _____ _____    ______ ____
ROOT
ATOM      1  C   LIG    1      -23.085  77.147  30.709  0.00  0.00    +0.100 A 
ATOM      2  C   LIG    1      -22.021  77.495  31.527  0.00  0.00    +0.170 A 
ATOM      3  N   LIG    1      -21.954  77.856  32.851  0.00  0.00    -0.212 NA
ATOM      4  C   LIG    1      -20.774  78.151  33.359  0.00  0.00    +0.126 A 
ATOM      5  C   LIG    1      -19.513  78.092  32.525  0.00  0.00    +0.063 A 
ATOM      6  C   LIG    1      -19.633  77.715  31.249  0.00  0.00    +0.118 A 
ATOM      7  N   LIG    1      -20.879  77.410  30.728  0.00  0.00    -0.221 N 
ATOM      8  N   LIG    1      -21.162  77.016  29.467  0.00  0.00    -0.173 NA
ATOM      9  C   LIG    1      -22.485  76.861  29.464  0.00  0.00    +0.150 A 
ENDROOT
BRANCH   4  10
ATOM     10  N   LIG    1      -20.674  78.525  34.695  0.00  0.00    -0.308 N 
ATOM     11  C   LIG    1      -20.285  79.885  35.110  0.00  0.00    +0.107 C 
ATOM     12  C   LIG    1      -19.253  79.615  36.215  0.00  0.00    +0.029 C 
ATOM     13  C   LIG    1      -19.800  78.379  36.910  0.00  0.00    +0.021 C 
ATOM     14  C   LIG    1      -20.362  77.558  35.756  0.00  0.00    +0.107 C 
BRANCH  11  15
ATOM     15  C   LIG    1      -21.481  80.688  35.597  0.00  0.00    -0.006 A 
ATOM     16  C   LIG    1      -22.803  80.232  35.495  0.00  0.00    +0.046 A 
ATOM     17  C   LIG    1      -23.850  81.017  35.955  0.00  0.00    +0.142 A 
ATOM     18  F   LIG    1      -25.111  80.579  35.852  0.00  0.00    -0.204 F 
ATOM     19  C   LIG    1      -23.567  82.245  36.516  0.00  0.00    +0.149 A 
ATOM     20  N   LIG    1      -22.309  82.724  36.657  0.00  0.00    -0.260 NA
ATOM     21  C   LIG    1      -21.302  81.937  36.197  0.00  0.00    +0.116 A 
ENDBRANCH  11  15
ENDBRANCH   4  10
BRANCH   1  24
ATOM     22  N   LIG    1      -24.803  77.103  32.365  0.00  0.00    -0.306 N 
ATOM     23  H   LIG    1      -24.021  77.155  33.019  0.00  0.00    +0.149 HD
ATOM     24  C   LIG    1      -24.498  77.073  31.029  0.00  0.00    +0.249 C 
ATOM     25  O   LIG    1      -25.366  76.996  30.157  0.00  0.00    -0.270 OA
BRANCH  22  26
ATOM     26  C   LIG    1      -26.165  77.001  32.870  0.00  0.00    +0.176 C 
BRANCH  26  28
ATOM     27  F   LIG    1      -27.313  75.190  31.885  0.00  0.00    -0.208 F 
ATOM     28  C   LIG    1      -26.691  75.575  33.033  0.00  0.00    +0.358 C 
ATOM     29  F   LIG    1      -25.643  74.721  33.193  0.00  0.00    -0.208 F 
ENDBRANCH  26  28
ENDBRANCH  22  26
ENDBRANCH   1  24
TORSDOF 5
ENDMDL
MODEL 6
REMARK VINA RESULT:      -5.4     18.204     21.199
REMARK  Name = pdb/CHEMBL3676008.pdb
REMARK                            x       y       z     vdW  Elec       q    Type
REMARK                         _______ _______ _______ _____ _____    ______ ____
ROOT
ATOM      1  C   LIG    1      -18.799  85.789  13.139  0.00  0.00    +0.100 A 
ATOM      2  C   LIG    1      -18.970  84.466  13.520  0.00  0.00    +0.170 A 
ATOM      3  N   LIG    1      -20.027  83.800  14.091  0.00  0.00    -0.212 NA
ATOM      4  C   LIG    1      -19.886  82.516  14.357  0.00  0.00    +0.126 A 
ATOM      5  C   LIG    1      -18.604  81.776  14.043  0.00  0.00    +0.063 A 
ATOM      6  C   LIG    1      -17.615  82.469  13.469  0.00  0.00    +0.118 A 
ATOM      7  N   LIG    1      -17.777  83.816  13.198  0.00  0.00    -0.221 N 
ATOM      8  N   LIG    1      -16.877  84.647  12.625  0.00  0.00    -0.173 NA
ATOM      9  C   LIG    1      -17.497  85.826  12.594  0.00  0.00    +0.150 A 
ENDROOT
BRANCH   4  10
ATOM     10  N   LIG    1      -20.936  81.814  14.939  0.00  0.00    -0.308 N 
ATOM     11  C   LIG    1      -22.227  82.445  15.266  0.00  0.00    +0.107 C 
ATOM     12  C   LIG    1      -22.501  81.927  16.685  0.00  0.00    +0.029 C 
ATOM     13  C   LIG    1      -21.961  80.507  16.651  0.00  0.00    +0.021 C 
ATOM     14  C   LIG    1      -20.711  80.637  15.790  0.00  0.00    +0.107 C 
BRANCH  11  15
ATOM     15  C   LIG    1      -23.310  82.058  14.272  0.00  0.00    -0.006 A 
ATOM     16  C   LIG    1      -23.288  82.447  12.925  0.00  0.00    +0.046 A 
ATOM     17  C   LIG    1      -24.311  82.063  12.070  0.00  0.00    +0.142 A 
ATOM     18  F   LIG    1      -24.290  82.442  10.786  0.00  0.00    -0.204 F 
ATOM     19  C   LIG    1      -25.341  81.291  12.566  0.00  0.00    +0.149 A 
ATOM     20  N   LIG    1      -25.400  80.870  13.851  0.00  0.00    -0.260 NA
ATOM     21  C   LIG    1      -24.388  81.261  14.668  0.00  0.00    +0.116 A 
ENDBRANCH  11  15
ENDBRANCH   4  10
BRANCH   1  24
ATOM     22  N   LIG    1      -21.012  86.635  12.861  0.00  0.00    -0.306 N 
ATOM     23  H   LIG    1      -21.209  85.697  12.510  0.00  0.00    +0.149 HD
ATOM     24  C   LIG    1      -19.725  86.899  13.251  0.00  0.00    +0.249 C 
ATOM     25  O   LIG    1      -19.379  88.003  13.675  0.00  0.00    -0.270 OA
BRANCH  22  26
ATOM     26  C   LIG    1      -22.066  87.641  12.869  0.00  0.00    +0.176 C 
BRANCH  26  28
ATOM     27  F   LIG    1      -22.829  86.521  14.800  0.00  0.00    -0.208 F 
ATOM     28  C   LIG    1      -22.874  87.723  14.163  0.00  0.00    +0.358 C 
ATOM     29  F   LIG    1      -22.288  88.616  15.007  0.00  0.00    -0.208 F 
ENDBRANCH  26  28
ENDBRANCH  22  26
ENDBRANCH   1  24
TORSDOF 5
ENDMDL
MODEL 7
REMARK VINA RESULT:      -5.3     20.742     22.766
REMARK  Name = pdb/CHEMBL3676008.pdb
REMARK                            x       y       z     vdW  Elec       q    Type
REMARK                         _______ _______ _______ _____ _____    ______ ____
ROOT
ATOM      1  C   LIG    1      -31.724  93.795  22.873  0.00  0.00    +0.100 A 
ATOM      2  C   LIG    1      -32.117  93.454  21.587  0.00  0.00    +0.170 A 
ATOM      3  N   LIG    1      -33.164  92.705  21.110  0.00  0.00    -0.212 NA
ATOM      4  C   LIG    1      -33.273  92.542  19.807  0.00  0.00    +0.126 A 
ATOM      5  C   LIG    1      -32.284  93.162  18.843  0.00  0.00    +0.063 A 
ATOM      6  C   LIG    1      -31.297  93.899  19.361  0.00  0.00    +0.118 A 
ATOM      7  N   LIG    1      -31.194  94.059  20.731  0.00  0.00    -0.221 N 
ATOM      8  N   LIG    1      -30.259  94.769  21.402  0.00  0.00    -0.173 NA
ATOM      9  C   LIG    1      -30.584  94.605  22.684  0.00  0.00    +0.150 A 
ENDROOT
BRANCH   4  10
ATOM     10  N   LIG    1      -34.319  91.784  19.292  0.00  0.00    -0.308 N 
ATOM     11  C   LIG    1      -34.763  91.892  17.891  0.00  0.00    +0.107 C 
ATOM     12  C   LIG    1      -36.291  91.958  18.029  0.00  0.00    +0.029 C 
ATOM     13  C   LIG    1      -36.578  91.024  19.192  0.00  0.00    +0.021 C 
ATOM     14  C   LIG    1      -35.413  91.286  20.138  0.00  0.00    +0.107 C 
BRANCH  11  15
ATOM     15  C   LIG    1      -34.291  90.712  17.057  0.00  0.00    -0.006 A 
ATOM     16  C   LIG    1      -33.698  89.570  17.614  0.00  0.00    +0.046 A 
ATOM     17  C   LIG    1      -33.285  88.528  16.796  0.00  0.00    +0.142 A 
ATOM     18  F   LIG    1      -32.714  87.442  17.331  0.00  0.00    -0.204 F 
ATOM     19  C   LIG    1      -33.473  88.634  15.434  0.00  0.00    +0.149 A 
ATOM     20  N   LIG    1      -34.059  89.705  14.847  0.00  0.00    -0.260 NA
ATOM     21  C   LIG    1      -34.453  90.711  15.669  0.00  0.00    +0.116 A 
ENDBRANCH  11  15
ENDBRANCH   4  10
BRANCH   1  24
ATOM     22  N   LIG    1      -33.690  93.270  24.121  0.00  0.00    -0.306 N 
ATOM     23  H   LIG    1      -34.165  93.438  23.233  0.00  0.00    +0.149 HD
ATOM     24  C   LIG    1      -32.329  93.429  24.139  0.00  0.00    +0.249 C 
ATOM     25  O   LIG    1      -31.662  93.265  25.163  0.00  0.00    -0.270 OA
BRANCH  22  26
ATOM     26  C   LIG    1      -34.468  92.943  25.307  0.00  0.00    +0.176 C 
BRANCH  26  28
ATOM     27  F   LIG    1      -36.110  92.428  23.693  0.00  0.00    -0.208 F 
ATOM     28  C   LIG    1      -35.883  92.434  25.035  0.00  0.00    +0.358 C 
ATOM     29  F   LIG    1      -35.983  91.137  25.436  0.00  0.00    -0.208 F 
ENDBRANCH  26  28
ENDBRANCH  22  26
ENDBRANCH   1  24
TORSDOF 5
ENDMDL
MODEL 8
REMARK VINA RESULT:      -5.2      2.235      5.449
REMARK  Name = pdb/CHEMBL3676008.pdb
REMARK                            x       y       z     vdW  Elec       q    Type
REMARK                         _______ _______ _______ _____ _____    ______ ____
ROOT
ATOM      1  C   LIG    1      -21.441  80.000  35.822  0.00  0.00    +0.100 A 
ATOM      2  C   LIG    1      -22.684  79.493  35.469  0.00  0.00    +0.170 A 
ATOM      3  N   LIG    1      -23.069  78.556  34.543  0.00  0.00    -0.212 NA
ATOM      4  C   LIG    1      -24.353  78.287  34.423  0.00  0.00    +0.126 A 
ATOM      5  C   LIG    1      -25.393  78.977  35.279  0.00  0.00    +0.063 A 
ATOM      6  C   LIG    1      -24.961  79.865  36.179  0.00  0.00    +0.118 A 
ATOM      7  N   LIG    1      -23.609  80.140  36.292  0.00  0.00    -0.221 N 
ATOM      8  N   LIG    1      -23.020  81.005  37.148  0.00  0.00    -0.173 NA
ATOM      9  C   LIG    1      -21.723  80.915  36.859  0.00  0.00    +0.150 A 
ENDROOT
BRANCH   4  10
ATOM     10  N   LIG    1      -24.776  77.346  33.490  0.00  0.00    -0.308 N 
ATOM     11  C   LIG    1      -24.975  77.674  32.066  0.00  0.00    +0.107 C 
ATOM     12  C   LIG    1      -26.328  77.017  31.759  0.00  0.00    +0.029 C 
ATOM     13  C   LIG    1      -26.297  75.744  32.588  0.00  0.00    +0.021 C 
ATOM     14  C   LIG    1      -25.596  76.186  33.867  0.00  0.00    +0.107 C 
BRANCH  11  15
ATOM     15  C   LIG    1      -23.844  77.140  31.202  0.00  0.00    -0.006 A 
ATOM     16  C   LIG    1      -22.867  76.256  31.681  0.00  0.00    +0.046 A 
ATOM     17  C   LIG    1      -21.858  75.810  30.840  0.00  0.00    +0.142 A 
ATOM     18  F   LIG    1      -20.923  74.969  31.302  0.00  0.00    -0.204 F 
ATOM     19  C   LIG    1      -21.837  76.245  29.532  0.00  0.00    +0.149 A 
ATOM     20  N   LIG    1      -22.767  77.081  29.014  0.00  0.00    -0.260 NA
ATOM     21  C   LIG    1      -23.744  77.505  29.857  0.00  0.00    +0.116 A 
ENDBRANCH  11  15
ENDBRANCH   4  10
BRANCH   1  24
ATOM     22  N   LIG    1      -20.109  79.380  33.942  0.00  0.00    -0.306 N 
ATOM     23  H   LIG    1      -21.000  79.392  33.446  0.00  0.00    +0.149 HD
ATOM     24  C   LIG    1      -20.136  79.677  35.280  0.00  0.00    +0.249 C 
ATOM     25  O   LIG    1      -19.118  79.676  35.975  0.00  0.00    -0.270 OA
BRANCH  22  26
ATOM     26  C   LIG    1      -18.893  78.996  33.239  0.00  0.00    +0.176 C 
BRANCH  26  28
ATOM     27  F   LIG    1      -20.037  78.545  31.226  0.00  0.00    -0.208 F 
ATOM     28  C   LIG    1      -19.097  78.036  32.068  0.00  0.00    +0.358 C 
ATOM     29  F   LIG    1      -17.948  77.958  31.341  0.00  0.00    -0.208 F 
ENDBRANCH  26  28
ENDBRANCH  22  26
ENDBRANCH   1  24
TORSDOF 5
ENDMDL
MODEL 9
REMARK VINA RESULT:      -5.1     18.890     21.737
REMARK  Name = pdb/CHEMBL3676008.pdb
REMARK                            x       y       z     vdW  Elec       q    Type
REMARK                         _______ _______ _______ _____ _____    ______ ____
ROOT
ATOM      1  C   LIG    1      -30.762  66.500  18.067  0.00  0.00    +0.100 A 
ATOM      2  C   LIG    1      -32.021  66.070  18.459  0.00  0.00    +0.170 A 
ATOM      3  N   LIG    1      -33.172  66.749  18.775  0.00  0.00    -0.212 NA
ATOM      4  C   LIG    1      -34.231  66.052  19.134  0.00  0.00    +0.126 A 
ATOM      5  C   LIG    1      -34.203  64.540  19.195  0.00  0.00    +0.063 A 
ATOM      6  C   LIG    1      -33.063  63.929  18.858  0.00  0.00    +0.118 A 
ATOM      7  N   LIG    1      -31.959  64.674  18.486  0.00  0.00    -0.221 N 
ATOM      8  N   LIG    1      -30.744  64.207  18.119  0.00  0.00    -0.173 NA
ATOM      9  C   LIG    1      -30.034  65.307  17.870  0.00  0.00    +0.150 A 
ENDROOT
BRANCH   4  10
ATOM     10  N   LIG    1      -35.411  66.710  19.464  0.00  0.00    -0.308 N 
ATOM     11  C   LIG    1      -36.356  66.189  20.467  0.00  0.00    +0.107 C 
ATOM     12  C   LIG    1      -37.712  66.356  19.766  0.00  0.00    +0.029 C 
ATOM     13  C   LIG    1      -37.550  67.656  18.996  0.00  0.00    +0.021 C 
ATOM     14  C   LIG    1      -36.106  67.591  18.516  0.00  0.00    +0.107 C 
BRANCH  11  15
ATOM     15  C   LIG    1      -36.265  66.953  21.778  0.00  0.00    -0.006 A 
ATOM     16  C   LIG    1      -37.384  67.253  22.569  0.00  0.00    +0.046 A 
ATOM     17  C   LIG    1      -37.232  67.958  23.754  0.00  0.00    +0.142 A 
ATOM     18  F   LIG    1      -38.303  68.247  24.504  0.00  0.00    -0.204 F 
ATOM     19  C   LIG    1      -35.968  68.351  24.140  0.00  0.00    +0.149 A 
ATOM     20  N   LIG    1      -34.853  68.070  23.425  0.00  0.00    -0.260 NA
ATOM     21  C   LIG    1      -35.029  67.380  22.268  0.00  0.00    +0.116 A 
ENDBRANCH  11  15
ENDBRANCH   4  10
BRANCH   1  24
ATOM     22  N   LIG    1      -30.841  68.801  18.696  0.00  0.00    -0.306 N 
ATOM     23  H   LIG    1      -31.562  68.484  19.346  0.00  0.00    +0.149 HD
ATOM     24  C   LIG    1      -30.277  67.854  17.882  0.00  0.00    +0.249 C 
ATOM     25  O   LIG    1      -29.409  68.133  17.052  0.00  0.00    -0.270 OA
BRANCH  22  26
ATOM     26  C   LIG    1      -30.503  70.215  18.622  0.00  0.00    +0.176 C 
BRANCH  26  28
ATOM     27  F   LIG    1      -31.310  72.373  18.114  0.00  0.00    -0.208 F 
ATOM     28  C   LIG    1      -31.444  71.064  17.768  0.00  0.00    +0.358 C 
ATOM     29  F   LIG    1      -31.066  70.983  16.462  0.00  0.00    -0.208 F 
ENDBRANCH  26  28
ENDBRANCH  22  26
ENDBRANCH   1  24
TORSDOF 5
ENDMDL
