MODEL 1
REMARK VINA RESULT:      -6.4      0.000      0.000
REMARK  Name = pdb/CHEMBL3675941.pdb
REMARK                            x       y       z     vdW  Elec       q    Type
REMARK                         _______ _______ _______ _____ _____    ______ ____
ROOT
ATOM      1  C   LIG    1      -25.171  77.527  32.167  0.00  0.00    +0.102 A 
ATOM      2  C   LIG    1      -24.718  78.176  33.312  0.00  0.00    +0.170 A 
ATOM      3  N   LIG    1      -23.551  78.846  33.614  0.00  0.00    -0.212 NA
ATOM      4  C   LIG    1      -23.461  79.456  34.787  0.00  0.00    +0.126 A 
ATOM      5  C   LIG    1      -24.591  79.403  35.788  0.00  0.00    +0.063 A 
ATOM      6  C   LIG    1      -25.682  78.706  35.458  0.00  0.00    +0.118 A 
ATOM      7  N   LIG    1      -25.767  78.081  34.229  0.00  0.00    -0.221 N 
ATOM      8  N   LIG    1      -26.810  77.363  33.755  0.00  0.00    -0.173 NA
ATOM      9  C   LIG    1      -26.448  77.046  32.517  0.00  0.00    +0.150 A 
ENDROOT
BRANCH   4  10
ATOM     10  N   LIG    1      -22.297  80.156  35.107  0.00  0.00    -0.308 N 
ATOM     11  C   LIG    1      -21.113  79.559  35.768  0.00  0.00    +0.108 C 
ATOM     12  C   LIG    1      -20.646  80.677  36.723  0.00  0.00    +0.029 C 
ATOM     13  C   LIG    1      -21.026  81.966  36.014  0.00  0.00    +0.021 C 
ATOM     14  C   LIG    1      -22.328  81.612  35.308  0.00  0.00    +0.107 C 
BRANCH  11  15
ATOM     15  C   LIG    1      -20.038  79.111  34.783  0.00  0.00    +0.011 A 
ATOM     16  C   LIG    1      -18.728  78.841  35.221  0.00  0.00    +0.129 A 
ATOM     17  F   LIG    1      -18.450  78.824  36.532  0.00  0.00    -0.205 F 
ATOM     18  C   LIG    1      -17.689  78.540  34.328  0.00  0.00    +0.041 A 
ATOM     19  C   LIG    1      -17.953  78.458  32.965  0.00  0.00    +0.041 A 
ATOM     20  C   LIG    1      -19.257  78.639  32.524  0.00  0.00    +0.124 A 
ATOM     21  F   LIG    1      -19.538  78.480  31.225  0.00  0.00    -0.205 F 
ATOM     22  C   LIG    1      -20.286  78.969  33.409  0.00  0.00    +0.046 A 
ENDBRANCH  11  15
ENDBRANCH   4  10
BRANCH   1  25
ATOM     23  N   LIG    1      -23.187  77.518  30.888  0.00  0.00    -0.191 N 
ATOM     24  H   LIG    1      -22.653  77.588  31.753  0.00  0.00    +0.183 HD
ATOM     25  C   LIG    1      -24.543  77.376  30.873  0.00  0.00    +0.272 C 
ATOM     26  O   LIG    1      -25.216  77.166  29.855  0.00  0.00    -0.268 OA
BRANCH  23  28
ATOM     27  C   LIG    1      -21.600  76.264  29.799  0.00  0.00    +0.226 C 
ATOM     28  O   LIG    1      -22.496  77.363  29.668  0.00  0.00    -0.283 OA
ENDBRANCH  23  28
ENDBRANCH   1  25
TORSDOF 4
ENDMDL
MODEL 2
REMARK VINA RESULT:      -6.3      2.275      4.755
REMARK  Name = pdb/CHEMBL3675941.pdb
REMARK                            x       y       z     vdW  Elec       q    Type
REMARK                         _______ _______ _______ _____ _____    ______ ____
ROOT
ATOM      1  C   LIG    1      -23.013  77.224  30.623  0.00  0.00    +0.102 A 
ATOM      2  C   LIG    1      -21.944  77.513  31.467  0.00  0.00    +0.170 A 
ATOM      3  N   LIG    1      -21.867  77.955  32.771  0.00  0.00    -0.212 NA
ATOM      4  C   LIG    1      -20.673  78.038  33.338  0.00  0.00    +0.126 A 
ATOM      5  C   LIG    1      -19.416  77.688  32.577  0.00  0.00    +0.063 A 
ATOM      6  C   LIG    1      -19.547  77.305  31.303  0.00  0.00    +0.118 A 
ATOM      7  N   LIG    1      -20.798  77.213  30.726  0.00  0.00    -0.221 N 
ATOM      8  N   LIG    1      -21.082  76.823  29.463  0.00  0.00    -0.173 NA
ATOM      9  C   LIG    1      -22.409  76.822  29.415  0.00  0.00    +0.150 A 
ENDROOT
BRANCH   4  10
ATOM     10  N   LIG    1      -20.572  78.464  34.663  0.00  0.00    -0.308 N 
ATOM     11  C   LIG    1      -20.433  79.879  35.081  0.00  0.00    +0.108 C 
ATOM     12  C   LIG    1      -19.447  79.798  36.265  0.00  0.00    +0.029 C 
ATOM     13  C   LIG    1      -19.722  78.444  36.897  0.00  0.00    +0.021 C 
ATOM     14  C   LIG    1      -20.067  77.560  35.706  0.00  0.00    +0.107 C 
BRANCH  11  15
ATOM     15  C   LIG    1      -21.765  80.530  35.444  0.00  0.00    +0.011 A 
ATOM     16  C   LIG    1      -21.809  81.838  35.962  0.00  0.00    +0.129 A 
ATOM     17  F   LIG    1      -20.694  82.582  35.998  0.00  0.00    -0.205 F 
ATOM     18  C   LIG    1      -23.002  82.423  36.412  0.00  0.00    +0.041 A 
ATOM     19  C   LIG    1      -24.197  81.720  36.309  0.00  0.00    +0.041 A 
ATOM     20  C   LIG    1      -24.184  80.461  35.723  0.00  0.00    +0.124 A 
ATOM     21  F   LIG    1      -25.339  79.810  35.543  0.00  0.00    -0.205 F 
ATOM     22  C   LIG    1      -22.992  79.865  35.303  0.00  0.00    +0.046 A 
ENDBRANCH  11  15
ENDBRANCH   4  10
BRANCH   1  25
ATOM     23  N   LIG    1      -24.768  77.571  32.164  0.00  0.00    -0.191 N 
ATOM     24  H   LIG    1      -24.077  77.868  32.852  0.00  0.00    +0.183 HD
ATOM     25  C   LIG    1      -24.436  77.270  30.876  0.00  0.00    +0.272 C 
ATOM     26  O   LIG    1      -25.253  77.022  29.980  0.00  0.00    -0.268 OA
BRANCH  23  28
ATOM     27  C   LIG    1      -26.480  76.529  33.285  0.00  0.00    +0.226 C 
ATOM     28  O   LIG    1      -26.138  77.657  32.488  0.00  0.00    -0.283 OA
ENDBRANCH  23  28
ENDBRANCH   1  25
TORSDOF 4
ENDMDL
MODEL 3
REMARK VINA RESULT:      -5.9     18.375     20.798
REMARK  Name = pdb/CHEMBL3675941.pdb
REMARK                            x       y       z     vdW  Elec       q    Type
REMARK                         _______ _______ _______ _____ _____    ______ ____
ROOT
ATOM      1  C   LIG    1      -38.167  68.891  22.327  0.00  0.00    +0.102 A 
ATOM      2  C   LIG    1      -39.015  69.847  22.878  0.00  0.00    +0.170 A 
ATOM      3  N   LIG    1      -38.856  70.783  23.879  0.00  0.00    -0.212 NA
ATOM      4  C   LIG    1      -39.843  71.636  24.106  0.00  0.00    +0.126 A 
ATOM      5  C   LIG    1      -41.129  71.578  23.315  0.00  0.00    +0.063 A 
ATOM      6  C   LIG    1      -41.245  70.624  22.386  0.00  0.00    +0.118 A 
ATOM      7  N   LIG    1      -40.205  69.746  22.152  0.00  0.00    -0.221 N 
ATOM      8  N   LIG    1      -40.173  68.751  21.237  0.00  0.00    -0.173 NA
ATOM      9  C   LIG    1      -38.947  68.254  21.342  0.00  0.00    +0.150 A 
ENDROOT
BRANCH   4  10
ATOM     10  N   LIG    1      -39.697  72.605  25.100  0.00  0.00    -0.308 N 
ATOM     11  C   LIG    1      -38.652  73.655  25.101  0.00  0.00    +0.108 C 
ATOM     12  C   LIG    1      -38.258  73.754  26.589  0.00  0.00    +0.029 C 
ATOM     13  C   LIG    1      -39.533  73.414  27.344  0.00  0.00    +0.021 C 
ATOM     14  C   LIG    1      -40.197  72.365  26.461  0.00  0.00    +0.107 C 
BRANCH  11  15
ATOM     15  C   LIG    1      -39.130  74.978  24.510  0.00  0.00    +0.011 A 
ATOM     16  C   LIG    1      -38.284  76.102  24.482  0.00  0.00    +0.129 A 
ATOM     17  F   LIG    1      -36.997  75.980  24.835  0.00  0.00    -0.205 F 
ATOM     18  C   LIG    1      -38.728  77.361  24.052  0.00  0.00    +0.041 A 
ATOM     19  C   LIG    1      -40.032  77.513  23.592  0.00  0.00    +0.041 A 
ATOM     20  C   LIG    1      -40.854  76.395  23.533  0.00  0.00    +0.124 A 
ATOM     21  F   LIG    1      -42.083  76.512  23.015  0.00  0.00    -0.205 F 
ATOM     22  C   LIG    1      -40.423  75.147  23.990  0.00  0.00    +0.046 A 
ENDBRANCH  11  15
ENDBRANCH   4  10
BRANCH   1  25
ATOM     23  N   LIG    1      -36.323  69.159  23.779  0.00  0.00    -0.191 N 
ATOM     24  H   LIG    1      -36.938  69.636  24.437  0.00  0.00    +0.183 HD
ATOM     25  C   LIG    1      -36.784  68.593  22.627  0.00  0.00    +0.272 C 
ATOM     26  O   LIG    1      -36.098  67.903  21.861  0.00  0.00    -0.268 OA
BRANCH  23  28
ATOM     27  C   LIG    1      -34.866  69.124  25.553  0.00  0.00    +0.226 C 
ATOM     28  O   LIG    1      -34.989  68.899  24.153  0.00  0.00    -0.283 OA
ENDBRANCH  23  28
ENDBRANCH   1  25
TORSDOF 4
ENDMDL
MODEL 4
REMARK VINA RESULT:      -5.8     18.925     21.489
REMARK  Name = pdb/CHEMBL3675941.pdb
REMARK                            x       y       z     vdW  Elec       q    Type
REMARK                         _______ _______ _______ _____ _____    ______ ____
ROOT
ATOM      1  C   LIG    1      -19.997  87.865  13.077  0.00  0.00    +0.102 A 
ATOM      2  C   LIG    1      -20.673  86.749  13.561  0.00  0.00    +0.170 A 
ATOM      3  N   LIG    1      -20.382  85.400  13.564  0.00  0.00    -0.212 NA
ATOM      4  C   LIG    1      -21.200  84.582  14.208  0.00  0.00    +0.126 A 
ATOM      5  C   LIG    1      -22.440  85.095  14.902  0.00  0.00    +0.063 A 
ATOM      6  C   LIG    1      -22.694  86.405  14.832  0.00  0.00    +0.118 A 
ATOM      7  N   LIG    1      -21.829  87.250  14.165  0.00  0.00    -0.221 N 
ATOM      8  N   LIG    1      -21.946  88.591  14.031  0.00  0.00    -0.173 NA
ATOM      9  C   LIG    1      -20.841  88.950  13.389  0.00  0.00    +0.150 A 
ENDROOT
BRANCH   4  10
ATOM     10  N   LIG    1      -20.916  83.216  14.241  0.00  0.00    -0.308 N 
ATOM     11  C   LIG    1      -21.309  82.303  15.341  0.00  0.00    +0.108 C 
ATOM     12  C   LIG    1      -20.091  81.364  15.466  0.00  0.00    +0.029 C 
ATOM     13  C   LIG    1      -19.532  81.275  14.056  0.00  0.00    +0.021 C 
ATOM     14  C   LIG    1      -19.779  82.667  13.489  0.00  0.00    +0.107 C 
BRANCH  11  15
ATOM     15  C   LIG    1      -22.618  81.568  15.071  0.00  0.00    +0.011 A 
ATOM     16  C   LIG    1      -23.083  80.577  15.956  0.00  0.00    +0.129 A 
ATOM     17  F   LIG    1      -22.459  80.377  17.125  0.00  0.00    -0.205 F 
ATOM     18  C   LIG    1      -24.221  79.804  15.680  0.00  0.00    +0.041 A 
ATOM     19  C   LIG    1      -24.951  80.039  14.520  0.00  0.00    +0.041 A 
ATOM     20  C   LIG    1      -24.554  81.070  13.678  0.00  0.00    +0.124 A 
ATOM     21  F   LIG    1      -25.296  81.360  12.603  0.00  0.00    -0.205 F 
ATOM     22  C   LIG    1      -23.404  81.820  13.936  0.00  0.00    +0.046 A 
ENDBRANCH  11  15
ENDBRANCH   4  10
BRANCH   1  25
ATOM     23  N   LIG    1      -18.669  88.843  11.388  0.00  0.00    -0.191 N 
ATOM     24  H   LIG    1      -19.440  89.475  11.176  0.00  0.00    +0.183 HD
ATOM     25  C   LIG    1      -18.709  87.963  12.428  0.00  0.00    +0.272 C 
ATOM     26  O   LIG    1      -17.753  87.265  12.795  0.00  0.00    -0.268 OA
BRANCH  23  28
ATOM     27  C   LIG    1      -17.672  89.808   9.558  0.00  0.00    +0.226 C 
ATOM     28  O   LIG    1      -17.441  89.013  10.716  0.00  0.00    -0.283 OA
ENDBRANCH  23  28
ENDBRANCH   1  25
TORSDOF 4
ENDMDL
MODEL 5
REMARK VINA RESULT:      -5.7     14.745     17.902
REMARK  Name = pdb/CHEMBL3675941.pdb
REMARK                            x       y       z     vdW  Elec       q    Type
REMARK                         _______ _______ _______ _____ _____    ______ ____
ROOT
ATOM      1  C   LIG    1      -38.118  70.821  24.257  0.00  0.00    +0.102 A 
ATOM      2  C   LIG    1      -38.633  72.099  24.453  0.00  0.00    +0.170 A 
ATOM      3  N   LIG    1      -38.131  73.234  25.053  0.00  0.00    -0.212 NA
ATOM      4  C   LIG    1      -38.843  74.349  24.986  0.00  0.00    +0.126 A 
ATOM      5  C   LIG    1      -40.186  74.383  24.297  0.00  0.00    +0.063 A 
ATOM      6  C   LIG    1      -40.642  73.243  23.768  0.00  0.00    +0.118 A 
ATOM      7  N   LIG    1      -39.887  72.089  23.837  0.00  0.00    -0.221 N 
ATOM      8  N   LIG    1      -40.210  70.877  23.332  0.00  0.00    -0.173 NA
ATOM      9  C   LIG    1      -39.141  70.129  23.579  0.00  0.00    +0.150 A 
ENDROOT
BRANCH   4  10
ATOM     10  N   LIG    1      -38.346  75.516  25.569  0.00  0.00    -0.308 N 
ATOM     11  C   LIG    1      -37.997  75.655  27.003  0.00  0.00    +0.108 C 
ATOM     12  C   LIG    1      -38.464  77.086  27.338  0.00  0.00    +0.029 C 
ATOM     13  C   LIG    1      -38.286  77.859  26.042  0.00  0.00    +0.021 C 
ATOM     14  C   LIG    1      -38.616  76.829  24.968  0.00  0.00    +0.107 C 
BRANCH  11  15
ATOM     15  C   LIG    1      -36.517  75.416  27.286  0.00  0.00    +0.011 A 
ATOM     16  C   LIG    1      -36.080  74.211  27.868  0.00  0.00    +0.129 A 
ATOM     17  F   LIG    1      -36.942  73.198  28.036  0.00  0.00    -0.205 F 
ATOM     18  C   LIG    1      -34.745  74.005  28.246  0.00  0.00    +0.041 A 
ATOM     19  C   LIG    1      -33.799  74.996  28.006  0.00  0.00    +0.041 A 
ATOM     20  C   LIG    1      -34.197  76.157  27.356  0.00  0.00    +0.124 A 
ATOM     21  F   LIG    1      -33.280  77.082  27.046  0.00  0.00    -0.205 F 
ATOM     22  C   LIG    1      -35.532  76.376  27.007  0.00  0.00    +0.046 A 
ENDBRANCH  11  15
ENDBRANCH   4  10
BRANCH   1  25
ATOM     23  N   LIG    1      -35.929  71.199  25.058  0.00  0.00    -0.191 N 
ATOM     24  H   LIG    1      -36.190  72.164  25.254  0.00  0.00    +0.183 HD
ATOM     25  C   LIG    1      -36.826  70.275  24.611  0.00  0.00    +0.272 C 
ATOM     26  O   LIG    1      -36.584  69.068  24.476  0.00  0.00    -0.268 OA
BRANCH  23  28
ATOM     27  C   LIG    1      -34.623  70.647  26.865  0.00  0.00    +0.226 C 
ATOM     28  O   LIG    1      -34.652  70.743  25.445  0.00  0.00    -0.283 OA
ENDBRANCH  23  28
ENDBRANCH   1  25
TORSDOF 4
ENDMDL
MODEL 6
REMARK VINA RESULT:      -5.7     14.062     18.214
REMARK  Name = pdb/CHEMBL3675941.pdb
REMARK                            x       y       z     vdW  Elec       q    Type
REMARK                         _______ _______ _______ _____ _____    ______ ____
ROOT
ATOM      1  C   LIG    1      -35.773  78.357  29.359  0.00  0.00    +0.102 A 
ATOM      2  C   LIG    1      -36.929  77.809  28.810  0.00  0.00    +0.170 A 
ATOM      3  N   LIG    1      -37.533  77.930  27.576  0.00  0.00    -0.212 NA
ATOM      4  C   LIG    1      -38.596  77.182  27.321  0.00  0.00    +0.126 A 
ATOM      5  C   LIG    1      -39.160  76.238  28.357  0.00  0.00    +0.063 A 
ATOM      6  C   LIG    1      -38.559  76.193  29.549  0.00  0.00    +0.118 A 
ATOM      7  N   LIG    1      -37.446  76.970  29.801  0.00  0.00    -0.221 N 
ATOM      8  N   LIG    1      -36.727  77.012  30.945  0.00  0.00    -0.173 NA
ATOM      9  C   LIG    1      -35.723  77.836  30.667  0.00  0.00    +0.150 A 
ENDROOT
BRANCH   4  10
ATOM     10  N   LIG    1      -39.213  77.272  26.072  0.00  0.00    -0.308 N 
ATOM     11  C   LIG    1      -38.693  76.652  24.832  0.00  0.00    +0.108 C 
ATOM     12  C   LIG    1      -39.004  77.711  23.754  0.00  0.00    +0.029 C 
ATOM     13  C   LIG    1      -40.272  78.390  24.243  0.00  0.00    +0.021 C 
ATOM     14  C   LIG    1      -40.111  78.393  25.758  0.00  0.00    +0.107 C 
BRANCH  11  15
ATOM     15  C   LIG    1      -39.309  75.287  24.539  0.00  0.00    +0.011 A 
ATOM     16  C   LIG    1      -38.650  74.103  24.918  0.00  0.00    +0.129 A 
ATOM     17  F   LIG    1      -37.548  74.164  25.678  0.00  0.00    -0.205 F 
ATOM     18  C   LIG    1      -39.132  72.834  24.564  0.00  0.00    +0.041 A 
ATOM     19  C   LIG    1      -40.322  72.721  23.853  0.00  0.00    +0.041 A 
ATOM     20  C   LIG    1      -41.028  73.876  23.544  0.00  0.00    +0.124 A 
ATOM     21  F   LIG    1      -42.215  73.775  22.933  0.00  0.00    -0.205 F 
ATOM     22  C   LIG    1      -40.534  75.142  23.869  0.00  0.00    +0.046 A 
ENDBRANCH  11  15
ENDBRANCH   4  10
BRANCH   1  25
ATOM     23  N   LIG    1      -34.513  78.971  27.459  0.00  0.00    -0.191 N 
ATOM     24  H   LIG    1      -35.051  78.300  26.912  0.00  0.00    +0.183 HD
ATOM     25  C   LIG    1      -34.789  79.236  28.767  0.00  0.00    +0.272 C 
ATOM     26  O   LIG    1      -34.243  80.126  29.434  0.00  0.00    -0.268 OA
BRANCH  23  28
ATOM     27  C   LIG    1      -32.366  79.070  26.650  0.00  0.00    +0.226 C 
ATOM     28  O   LIG    1      -33.579  79.798  26.802  0.00  0.00    -0.283 OA
ENDBRANCH  23  28
ENDBRANCH   1  25
TORSDOF 4
ENDMDL
MODEL 7
REMARK VINA RESULT:      -5.7     18.330     20.966
REMARK  Name = pdb/CHEMBL3675941.pdb
REMARK                            x       y       z     vdW  Elec       q    Type
REMARK                         _______ _______ _______ _____ _____    ______ ____
ROOT
ATOM      1  C   LIG    1      -18.697  85.506  13.368  0.00  0.00    +0.102 A 
ATOM      2  C   LIG    1      -18.406  84.145  13.392  0.00  0.00    +0.170 A 
ATOM      3  N   LIG    1      -18.960  83.076  14.065  0.00  0.00    -0.212 NA
ATOM      4  C   LIG    1      -18.512  81.860  13.790  0.00  0.00    +0.126 A 
ATOM      5  C   LIG    1      -17.403  81.639  12.789  0.00  0.00    +0.063 A 
ATOM      6  C   LIG    1      -16.875  82.715  12.198  0.00  0.00    +0.118 A 
ATOM      7  N   LIG    1      -17.356  83.977  12.486  0.00  0.00    -0.221 N 
ATOM      8  N   LIG    1      -16.936  85.146  11.953  0.00  0.00    -0.173 NA
ATOM      9  C   LIG    1      -17.751  86.053  12.479  0.00  0.00    +0.150 A 
ENDROOT
BRANCH   4  10
ATOM     10  N   LIG    1      -19.070  80.761  14.444  0.00  0.00    -0.308 N 
ATOM     11  C   LIG    1      -20.076  80.851  15.529  0.00  0.00    +0.108 C 
ATOM     12  C   LIG    1      -19.652  79.722  16.492  0.00  0.00    +0.029 C 
ATOM     13  C   LIG    1      -19.039  78.663  15.591  0.00  0.00    +0.021 C 
ATOM     14  C   LIG    1      -18.355  79.478  14.501  0.00  0.00    +0.107 C 
BRANCH  11  15
ATOM     15  C   LIG    1      -21.511  80.716  15.029  0.00  0.00    +0.011 A 
ATOM     16  C   LIG    1      -22.595  80.806  15.922  0.00  0.00    +0.129 A 
ATOM     17  F   LIG    1      -22.386  81.165  17.196  0.00  0.00    -0.205 F 
ATOM     18  C   LIG    1      -23.918  80.574  15.517  0.00  0.00    +0.041 A 
ATOM     19  C   LIG    1      -24.191  80.287  14.183  0.00  0.00    +0.041 A 
ATOM     20  C   LIG    1      -23.142  80.278  13.273  0.00  0.00    +0.124 A 
ATOM     21  F   LIG    1      -23.402  80.085  11.975  0.00  0.00    -0.205 F 
ATOM     22  C   LIG    1      -21.821  80.478  13.681  0.00  0.00    +0.046 A 
ENDBRANCH  11  15
ENDBRANCH   4  10
BRANCH   1  25
ATOM     23  N   LIG    1      -20.898  85.551  14.223  0.00  0.00    -0.191 N 
ATOM     24  H   LIG    1      -20.976  84.556  14.016  0.00  0.00    +0.183 HD
ATOM     25  C   LIG    1      -19.738  86.246  14.047  0.00  0.00    +0.272 C 
ATOM     26  O   LIG    1      -19.563  87.421  14.396  0.00  0.00    -0.268 OA
BRANCH  23  28
ATOM     27  C   LIG    1      -22.924  86.593  13.933  0.00  0.00    +0.226 C 
ATOM     28  O   LIG    1      -21.955  86.196  14.897  0.00  0.00    -0.283 OA
ENDBRANCH  23  28
ENDBRANCH   1  25
TORSDOF 4
ENDMDL
MODEL 8
REMARK VINA RESULT:      -5.7      2.244      4.940
REMARK  Name = pdb/CHEMBL3675941.pdb
REMARK                            x       y       z     vdW  Elec       q    Type
REMARK                         _______ _______ _______ _____ _____    ______ ____
ROOT
ATOM      1  C   LIG    1      -24.140  77.827  32.158  0.00  0.00    +0.102 A 
ATOM      2  C   LIG    1      -22.941  77.464  31.553  0.00  0.00    +0.170 A 
ATOM      3  N   LIG    1      -21.632  77.457  31.987  0.00  0.00    -0.212 NA
ATOM      4  C   LIG    1      -20.706  76.945  31.189  0.00  0.00    +0.126 A 
ATOM      5  C   LIG    1      -21.059  76.406  29.823  0.00  0.00    +0.063 A 
ATOM      6  C   LIG    1      -22.337  76.476  29.438  0.00  0.00    +0.118 A 
ATOM      7  N   LIG    1      -23.294  77.003  30.282  0.00  0.00    -0.221 N 
ATOM      8  N   LIG    1      -24.618  77.118  30.036  0.00  0.00    -0.173 NA
ATOM      9  C   LIG    1      -25.117  77.601  31.168  0.00  0.00    +0.150 A 
ENDROOT
BRANCH   4  10
ATOM     10  N   LIG    1      -19.378  76.909  31.615  0.00  0.00    -0.308 N 
ATOM     11  C   LIG    1      -18.640  78.072  32.161  0.00  0.00    +0.108 C 
ATOM     12  C   LIG    1      -17.226  77.897  31.569  0.00  0.00    +0.029 C 
ATOM     13  C   LIG    1      -17.050  76.393  31.443  0.00  0.00    +0.021 C 
ATOM     14  C   LIG    1      -18.447  75.902  31.087  0.00  0.00    +0.107 C 
BRANCH  11  15
ATOM     15  C   LIG    1      -18.658  78.132  33.685  0.00  0.00    +0.011 A 
ATOM     16  C   LIG    1      -19.470  79.064  34.360  0.00  0.00    +0.129 A 
ATOM     17  F   LIG    1      -20.352  79.803  33.673  0.00  0.00    -0.205 F 
ATOM     18  C   LIG    1      -19.426  79.223  35.753  0.00  0.00    +0.041 A 
ATOM     19  C   LIG    1      -18.589  78.413  36.513  0.00  0.00    +0.041 A 
ATOM     20  C   LIG    1      -17.844  77.432  35.872  0.00  0.00    +0.124 A 
ATOM     21  F   LIG    1      -17.100  76.593  36.602  0.00  0.00    -0.205 F 
ATOM     22  C   LIG    1      -17.865  77.293  34.482  0.00  0.00    +0.046 A 
ENDBRANCH  11  15
ENDBRANCH   4  10
BRANCH   1  25
ATOM     23  N   LIG    1      -23.280  78.647  34.199  0.00  0.00    -0.191 N 
ATOM     24  H   LIG    1      -22.359  78.697  33.766  0.00  0.00    +0.183 HD
ATOM     25  C   LIG    1      -24.399  78.300  33.500  0.00  0.00    +0.272 C 
ATOM     26  O   LIG    1      -25.551  78.343  33.952  0.00  0.00    -0.268 OA
BRANCH  23  28
ATOM     27  C   LIG    1      -23.112  80.522  35.513  0.00  0.00    +0.226 C 
ATOM     28  O   LIG    1      -23.449  79.140  35.509  0.00  0.00    -0.283 OA
ENDBRANCH  23  28
ENDBRANCH   1  25
TORSDOF 4
ENDMDL
MODEL 9
REMARK VINA RESULT:      -5.6      2.278      4.498
REMARK  Name = pdb/CHEMBL3675941.pdb
REMARK                            x       y       z     vdW  Elec       q    Type
REMARK                         _______ _______ _______ _____ _____    ______ ____
ROOT
ATOM      1  C   LIG    1      -21.793  76.958  30.951  0.00  0.00    +0.102 A 
ATOM      2  C   LIG    1      -21.468  77.802  32.008  0.00  0.00    +0.170 A 
ATOM      3  N   LIG    1      -22.208  78.357  33.032  0.00  0.00    -0.212 NA
ATOM      4  C   LIG    1      -21.572  79.053  33.962  0.00  0.00    +0.126 A 
ATOM      5  C   LIG    1      -20.078  79.265  33.901  0.00  0.00    +0.063 A 
ATOM      6  C   LIG    1      -19.418  78.739  32.865  0.00  0.00    +0.118 A 
ATOM      7  N   LIG    1      -20.090  78.008  31.905  0.00  0.00    -0.221 N 
ATOM      8  N   LIG    1      -19.553  77.404  30.821  0.00  0.00    -0.173 NA
ATOM      9  C   LIG    1      -20.578  76.770  30.264  0.00  0.00    +0.150 A 
ENDROOT
BRANCH   4  10
ATOM     10  N   LIG    1      -22.297  79.608  35.018  0.00  0.00    -0.308 N 
ATOM     11  C   LIG    1      -22.028  79.345  36.451  0.00  0.00    +0.108 C 
ATOM     12  C   LIG    1      -23.442  79.273  37.064  0.00  0.00    +0.029 C 
ATOM     13  C   LIG    1      -24.273  80.222  36.216  0.00  0.00    +0.021 C 
ATOM     14  C   LIG    1      -23.682  80.060  34.821  0.00  0.00    +0.107 C 
BRANCH  11  15
ATOM     15  C   LIG    1      -21.138  80.401  37.098  0.00  0.00    +0.011 A 
ATOM     16  C   LIG    1      -20.263  80.061  38.146  0.00  0.00    +0.129 A 
ATOM     17  F   LIG    1      -20.090  78.775  38.484  0.00  0.00    -0.205 F 
ATOM     18  C   LIG    1      -19.515  81.025  38.839  0.00  0.00    +0.041 A 
ATOM     19  C   LIG    1      -19.596  82.362  38.462  0.00  0.00    +0.041 A 
ATOM     20  C   LIG    1      -20.390  82.703  37.375  0.00  0.00    +0.124 A 
ATOM     21  F   LIG    1      -20.411  83.973  36.951  0.00  0.00    -0.205 F 
ATOM     22  C   LIG    1      -21.158  81.748  36.704  0.00  0.00    +0.046 A 
ENDBRANCH  11  15
ENDBRANCH   4  10
BRANCH   1  25
ATOM     23  N   LIG    1      -24.127  77.193  30.679  0.00  0.00    -0.191 N 
ATOM     24  H   LIG    1      -24.023  78.194  30.837  0.00  0.00    +0.183 HD
ATOM     25  C   LIG    1      -23.058  76.350  30.602  0.00  0.00    +0.272 C 
ATOM     26  O   LIG    1      -23.128  75.153  30.293  0.00  0.00    -0.268 OA
BRANCH  23  28
ATOM     27  C   LIG    1      -26.168  76.562  31.522  0.00  0.00    +0.226 C 
ATOM     28  O   LIG    1      -25.395  76.682  30.333  0.00  0.00    -0.283 OA
ENDBRANCH  23  28
ENDBRANCH   1  25
TORSDOF 4
ENDMDL
