MODEL 1
REMARK VINA RESULT:      -6.0      0.000      0.000
REMARK  Name = pdb/CHEMBL3676082.pdb
REMARK                            x       y       z     vdW  Elec       q    Type
REMARK                         _______ _______ _______ _____ _____    ______ ____
ROOT
ATOM      1  C   LIG    1      -24.789  77.658  32.189  0.00  0.00    +0.100 A 
ATOM      2  C   LIG    1      -23.536  77.417  31.651  0.00  0.00    +0.170 A 
ATOM      3  N   LIG    1      -22.276  77.412  32.201  0.00  0.00    -0.212 NA
ATOM      4  C   LIG    1      -21.253  77.103  31.428  0.00  0.00    +0.126 A 
ATOM      5  C   LIG    1      -21.442  76.744  29.971  0.00  0.00    +0.063 A 
ATOM      6  C   LIG    1      -22.686  76.781  29.484  0.00  0.00    +0.118 A 
ATOM      7  N   LIG    1      -23.746  77.132  30.300  0.00  0.00    -0.221 N 
ATOM      8  N   LIG    1      -25.046  77.243  29.948  0.00  0.00    -0.173 NA
ATOM      9  C   LIG    1      -25.663  77.571  31.082  0.00  0.00    +0.150 A 
ENDROOT
BRANCH   4  10
ATOM     10  N   LIG    1      -19.980  77.116  31.979  0.00  0.00    -0.305 N 
ATOM     11  C   LIG    1      -19.148  78.302  32.210  0.00  0.00    +0.108 C 
ATOM     12  C   LIG    1      -17.766  77.813  31.768  0.00  0.00    +0.060 C 
ATOM     13  C   LIG    1      -17.724  76.357  32.215  0.00  0.00    +0.134 C 
ATOM     14  C   LIG    1      -19.187  75.892  32.153  0.00  0.00    +0.138 C 
BRANCH  11  15
ATOM     15  C   LIG    1      -19.205  78.807  33.650  0.00  0.00    -0.024 A 
ATOM     16  C   LIG    1      -20.269  79.591  34.127  0.00  0.00    +0.043 A 
ATOM     17  C   LIG    1      -20.285  80.052  35.442  0.00  0.00    +0.124 A 
ATOM     18  F   LIG    1      -21.323  80.782  35.868  0.00  0.00    -0.205 F 
ATOM     19  C   LIG    1      -19.249  79.761  36.317  0.00  0.00    +0.038 A 
ATOM     20  C   LIG    1      -18.176  78.998  35.868  0.00  0.00    +0.003 A 
ATOM     21  C   LIG    1      -18.152  78.530  34.546  0.00  0.00    +0.005 A 
ENDBRANCH  11  15
BRANCH  13  22
ATOM     22  O   LIG    1      -16.875  75.605  31.353  0.00  0.00    -0.390 OA
ATOM     23  H   LIG    1      -15.997  75.537  31.770  0.00  0.00    +0.210 HD
ENDBRANCH  13  22
ENDBRANCH   4  10
BRANCH   1  26
ATOM     24  N   LIG    1      -24.153  78.369  34.381  0.00  0.00    -0.309 N 
ATOM     25  H   LIG    1      -23.214  78.379  33.991  0.00  0.00    +0.149 HD
ATOM     26  C   LIG    1      -25.177  77.955  33.555  0.00  0.00    +0.249 C 
ATOM     27  O   LIG    1      -26.334  77.838  33.931  0.00  0.00    -0.270 OA
BRANCH  24  29
ATOM     28  C   LIG    1      -23.255  78.201  36.672  0.00  0.00    +0.027 C 
ATOM     29  C   LIG    1      -24.379  78.715  35.775  0.00  0.00    +0.067 C 
ATOM     30  C   LIG    1      -24.532  80.226  35.932  0.00  0.00    +0.027 C 
ENDBRANCH  24  29
ENDBRANCH   1  26
TORSDOF 5
ENDMDL
MODEL 2
REMARK VINA RESULT:      -5.9      2.711      5.336
REMARK  Name = pdb/CHEMBL3676082.pdb
REMARK                            x       y       z     vdW  Elec       q    Type
REMARK                         _______ _______ _______ _____ _____    ______ ____
ROOT
ATOM      1  C   LIG    1      -26.167  77.237  33.208  0.00  0.00    +0.100 A 
ATOM      2  C   LIG    1      -25.539  78.051  34.136  0.00  0.00    +0.170 A 
ATOM      3  N   LIG    1      -24.317  78.680  34.141  0.00  0.00    -0.212 NA
ATOM      4  C   LIG    1      -24.002  79.437  35.176  0.00  0.00    +0.126 A 
ATOM      5  C   LIG    1      -24.957  79.633  36.331  0.00  0.00    +0.063 A 
ATOM      6  C   LIG    1      -26.124  78.983  36.284  0.00  0.00    +0.118 A 
ATOM      7  N   LIG    1      -26.429  78.174  35.205  0.00  0.00    -0.221 N 
ATOM      8  N   LIG    1      -27.548  77.435  35.029  0.00  0.00    -0.173 NA
ATOM      9  C   LIG    1      -27.377  76.867  33.836  0.00  0.00    +0.150 A 
ENDROOT
BRANCH   4  10
ATOM     10  N   LIG    1      -22.762  80.058  35.188  0.00  0.00    -0.305 N 
ATOM     11  C   LIG    1      -21.484  79.433  35.549  0.00  0.00    +0.108 C 
ATOM     12  C   LIG    1      -20.823  80.526  36.393  0.00  0.00    +0.060 C 
ATOM     13  C   LIG    1      -21.240  81.825  35.716  0.00  0.00    +0.134 C 
ATOM     14  C   LIG    1      -22.612  81.515  35.099  0.00  0.00    +0.138 C 
BRANCH  11  15
ATOM     15  C   LIG    1      -20.665  78.992  34.339  0.00  0.00    -0.024 A 
ATOM     16  C   LIG    1      -19.275  79.183  34.265  0.00  0.00    +0.043 A 
ATOM     17  C   LIG    1      -18.557  78.785  33.139  0.00  0.00    +0.124 A 
ATOM     18  F   LIG    1      -17.231  78.967  33.110  0.00  0.00    -0.205 F 
ATOM     19  C   LIG    1      -19.190  78.198  32.054  0.00  0.00    +0.038 A 
ATOM     20  C   LIG    1      -20.568  78.009  32.094  0.00  0.00    +0.003 A 
ATOM     21  C   LIG    1      -21.299  78.406  33.223  0.00  0.00    +0.005 A 
ENDBRANCH  11  15
BRANCH  13  22
ATOM     22  O   LIG    1      -21.296  82.879  36.673  0.00  0.00    -0.390 OA
ATOM     23  H   LIG    1      -21.589  83.690  36.219  0.00  0.00    +0.210 HD
ENDBRANCH  13  22
ENDBRANCH   4  10
BRANCH   1  26
ATOM     24  N   LIG    1      -24.362  76.777  31.709  0.00  0.00    -0.309 N 
ATOM     25  H   LIG    1      -23.779  77.101  32.478  0.00  0.00    +0.149 HD
ATOM     26  C   LIG    1      -25.729  76.812  31.892  0.00  0.00    +0.249 C 
ATOM     27  O   LIG    1      -26.528  76.512  31.018  0.00  0.00    -0.270 OA
BRANCH  24  29
ATOM     28  C   LIG    1      -23.210  77.555  29.671  0.00  0.00    +0.027 C 
ATOM     29  C   LIG    1      -23.763  76.363  30.450  0.00  0.00    +0.067 C 
ATOM     30  C   LIG    1      -22.662  75.335  30.697  0.00  0.00    +0.027 C 
ENDBRANCH  24  29
ENDBRANCH   1  26
TORSDOF 5
ENDMDL
MODEL 3
REMARK VINA RESULT:      -5.9      2.220      3.396
REMARK  Name = pdb/CHEMBL3676082.pdb
REMARK                            x       y       z     vdW  Elec       q    Type
REMARK                         _______ _______ _______ _____ _____    ______ ____
ROOT
ATOM      1  C   LIG    1      -24.114  77.406  31.001  0.00  0.00    +0.100 A 
ATOM      2  C   LIG    1      -22.859  77.624  31.545  0.00  0.00    +0.170 A 
ATOM      3  N   LIG    1      -22.443  77.946  32.814  0.00  0.00    -0.212 NA
ATOM      4  C   LIG    1      -21.147  78.055  33.043  0.00  0.00    +0.126 A 
ATOM      5  C   LIG    1      -20.129  77.818  31.952  0.00  0.00    +0.063 A 
ATOM      6  C   LIG    1      -20.589  77.524  30.732  0.00  0.00    +0.118 A 
ATOM      7  N   LIG    1      -21.950  77.438  30.501  0.00  0.00    -0.221 N 
ATOM      8  N   LIG    1      -22.564  77.182  29.325  0.00  0.00    -0.173 NA
ATOM      9  C   LIG    1      -23.861  77.176  29.630  0.00  0.00    +0.150 A 
ENDROOT
BRANCH   4  10
ATOM     10  N   LIG    1      -20.729  78.399  34.321  0.00  0.00    -0.305 N 
ATOM     11  C   LIG    1      -20.191  79.699  34.735  0.00  0.00    +0.108 C 
ATOM     12  C   LIG    1      -19.032  79.289  35.647  0.00  0.00    +0.060 C 
ATOM     13  C   LIG    1      -19.543  78.049  36.369  0.00  0.00    +0.134 C 
ATOM     14  C   LIG    1      -20.515  77.397  35.372  0.00  0.00    +0.138 C 
BRANCH  11  15
ATOM     15  C   LIG    1      -21.231  80.595  35.406  0.00  0.00    -0.024 A 
ATOM     16  C   LIG    1      -22.610  80.344  35.309  0.00  0.00    +0.043 A 
ATOM     17  C   LIG    1      -23.535  81.188  35.918  0.00  0.00    +0.124 A 
ATOM     18  F   LIG    1      -24.841  80.909  35.819  0.00  0.00    -0.205 F 
ATOM     19  C   LIG    1      -23.128  82.307  36.628  0.00  0.00    +0.038 A 
ATOM     20  C   LIG    1      -21.769  82.588  36.730  0.00  0.00    +0.003 A 
ATOM     21  C   LIG    1      -20.829  81.743  36.120  0.00  0.00    +0.005 A 
ENDBRANCH  11  15
BRANCH  13  22
ATOM     22  O   LIG    1      -18.454  77.196  36.707  0.00  0.00    -0.390 OA
ATOM     23  H   LIG    1      -18.314  76.571  35.972  0.00  0.00    +0.210 HD
ENDBRANCH  13  22
ENDBRANCH   4  10
BRANCH   1  26
ATOM     24  N   LIG    1      -25.434  77.043  32.961  0.00  0.00    -0.309 N 
ATOM     25  H   LIG    1      -24.552  76.741  33.370  0.00  0.00    +0.149 HD
ATOM     26  C   LIG    1      -25.420  77.415  31.633  0.00  0.00    +0.249 C 
ATOM     27  O   LIG    1      -26.427  77.732  31.017  0.00  0.00    -0.270 OA
BRANCH  24  29
ATOM     28  C   LIG    1      -27.113  75.579  34.020  0.00  0.00    +0.027 C 
ATOM     29  C   LIG    1      -26.661  77.011  33.741  0.00  0.00    +0.067 C 
ATOM     30  C   LIG    1      -26.481  77.776  35.049  0.00  0.00    +0.027 C 
ENDBRANCH  24  29
ENDBRANCH   1  26
TORSDOF 5
ENDMDL
MODEL 4
REMARK VINA RESULT:      -5.8      2.656      5.655
REMARK  Name = pdb/CHEMBL3676082.pdb
REMARK                            x       y       z     vdW  Elec       q    Type
REMARK                         _______ _______ _______ _____ _____    ______ ____
ROOT
ATOM      1  C   LIG    1      -20.107  77.094  30.488  0.00  0.00    +0.100 A 
ATOM      2  C   LIG    1      -19.720  77.693  31.675  0.00  0.00    +0.170 A 
ATOM      3  N   LIG    1      -20.431  78.301  32.682  0.00  0.00    -0.212 NA
ATOM      4  C   LIG    1      -19.774  78.757  33.731  0.00  0.00    +0.126 A 
ATOM      5  C   LIG    1      -18.274  78.609  33.850  0.00  0.00    +0.063 A 
ATOM      6  C   LIG    1      -17.630  78.025  32.835  0.00  0.00    +0.118 A 
ATOM      7  N   LIG    1      -18.329  77.575  31.730  0.00  0.00    -0.221 N 
ATOM      8  N   LIG    1      -17.819  76.996  30.620  0.00  0.00    -0.173 NA
ATOM      9  C   LIG    1      -18.889  76.722  29.875  0.00  0.00    +0.150 A 
ENDROOT
BRANCH   4  10
ATOM     10  N   LIG    1      -20.491  79.386  34.738  0.00  0.00    -0.305 N 
ATOM     11  C   LIG    1      -21.664  80.248  34.557  0.00  0.00    +0.108 C 
ATOM     12  C   LIG    1      -21.383  81.382  35.547  0.00  0.00    +0.060 C 
ATOM     13  C   LIG    1      -20.721  80.690  36.731  0.00  0.00    +0.134 C 
ATOM     14  C   LIG    1      -19.988  79.488  36.114  0.00  0.00    +0.138 C 
BRANCH  11  15
ATOM     15  C   LIG    1      -22.987  79.521  34.793  0.00  0.00    -0.024 A 
ATOM     16  C   LIG    1      -23.217  78.215  34.331  0.00  0.00    +0.043 A 
ATOM     17  C   LIG    1      -24.440  77.584  34.547  0.00  0.00    +0.124 A 
ATOM     18  F   LIG    1      -24.618  76.332  34.108  0.00  0.00    -0.205 F 
ATOM     19  C   LIG    1      -25.472  78.227  35.213  0.00  0.00    +0.038 A 
ATOM     20  C   LIG    1      -25.277  79.527  35.670  0.00  0.00    +0.003 A 
ATOM     21  C   LIG    1      -24.048  80.170  35.457  0.00  0.00    +0.005 A 
ENDBRANCH  11  15
BRANCH  13  22
ATOM     22  O   LIG    1      -19.835  81.589  37.390  0.00  0.00    -0.390 OA
ATOM     23  H   LIG    1      -20.213  81.810  38.261  0.00  0.00    +0.210 HD
ENDBRANCH  13  22
ENDBRANCH   4  10
BRANCH   1  26
ATOM     24  N   LIG    1      -22.477  77.165  30.794  0.00  0.00    -0.309 N 
ATOM     25  H   LIG    1      -22.240  77.439  31.745  0.00  0.00    +0.149 HD
ATOM     26  C   LIG    1      -21.432  76.883  29.938  0.00  0.00    +0.249 C 
ATOM     27  O   LIG    1      -21.595  76.481  28.796  0.00  0.00    -0.270 OA
BRANCH  24  29
ATOM     28  C   LIG    1      -24.471  75.719  30.926  0.00  0.00    +0.027 C 
ATOM     29  C   LIG    1      -23.866  77.016  30.391  0.00  0.00    +0.067 C 
ATOM     30  C   LIG    1      -24.688  78.215  30.855  0.00  0.00    +0.027 C 
ENDBRANCH  24  29
ENDBRANCH   1  26
TORSDOF 5
ENDMDL
MODEL 5
REMARK VINA RESULT:      -5.7     13.196     17.855
REMARK  Name = pdb/CHEMBL3676082.pdb
REMARK                            x       y       z     vdW  Elec       q    Type
REMARK                         _______ _______ _______ _____ _____    ______ ____
ROOT
ATOM      1  C   LIG    1      -33.461  75.350  28.799  0.00  0.00    +0.100 A 
ATOM      2  C   LIG    1      -34.687  74.920  28.319  0.00  0.00    +0.170 A 
ATOM      3  N   LIG    1      -35.654  75.536  27.561  0.00  0.00    -0.212 NA
ATOM      4  C   LIG    1      -36.725  74.843  27.223  0.00  0.00    +0.126 A 
ATOM      5  C   LIG    1      -36.896  73.399  27.636  0.00  0.00    +0.063 A 
ATOM      6  C   LIG    1      -35.933  72.855  28.387  0.00  0.00    +0.118 A 
ATOM      7  N   LIG    1      -34.829  73.601  28.755  0.00  0.00    -0.221 N 
ATOM      8  N   LIG    1      -33.796  73.203  29.531  0.00  0.00    -0.173 NA
ATOM      9  C   LIG    1      -32.986  74.261  29.562  0.00  0.00    +0.150 A 
ENDROOT
BRANCH   4  10
ATOM     10  N   LIG    1      -37.709  75.471  26.473  0.00  0.00    -0.305 N 
ATOM     11  C   LIG    1      -37.870  75.392  25.017  0.00  0.00    +0.108 C 
ATOM     12  C   LIG    1      -38.202  76.842  24.654  0.00  0.00    +0.060 C 
ATOM     13  C   LIG    1      -39.060  77.331  25.814  0.00  0.00    +0.134 C 
ATOM     14  C   LIG    1      -38.562  76.529  27.026  0.00  0.00    +0.138 C 
BRANCH  11  15
ATOM     15  C   LIG    1      -38.925  74.378  24.581  0.00  0.00    -0.024 A 
ATOM     16  C   LIG    1      -38.680  72.995  24.580  0.00  0.00    +0.043 A 
ATOM     17  C   LIG    1      -39.658  72.095  24.161  0.00  0.00    +0.124 A 
ATOM     18  F   LIG    1      -39.395  70.782  24.188  0.00  0.00    -0.205 F 
ATOM     19  C   LIG    1      -40.898  72.534  23.723  0.00  0.00    +0.038 A 
ATOM     20  C   LIG    1      -41.164  73.900  23.702  0.00  0.00    +0.003 A 
ATOM     21  C   LIG    1      -40.186  74.813  24.122  0.00  0.00    +0.005 A 
ENDBRANCH  11  15
BRANCH  13  22
ATOM     22  O   LIG    1      -38.898  78.736  25.984  0.00  0.00    -0.390 OA
ATOM     23  H   LIG    1      -39.733  79.174  25.736  0.00  0.00    +0.210 HD
ENDBRANCH  13  22
ENDBRANCH   4  10
BRANCH   1  26
ATOM     24  N   LIG    1      -33.541  77.620  28.051  0.00  0.00    -0.309 N 
ATOM     25  H   LIG    1      -34.488  77.382  27.766  0.00  0.00    +0.149 HD
ATOM     26  C   LIG    1      -32.777  76.616  28.611  0.00  0.00    +0.249 C 
ATOM     27  O   LIG    1      -31.607  76.765  28.929  0.00  0.00    -0.270 OA
BRANCH  24  29
ATOM     28  C   LIG    1      -32.275  79.027  26.470  0.00  0.00    +0.027 C 
ATOM     29  C   LIG    1      -33.007  78.951  27.808  0.00  0.00    +0.067 C 
ATOM     30  C   LIG    1      -34.122  79.991  27.862  0.00  0.00    +0.027 C 
ENDBRANCH  24  29
ENDBRANCH   1  26
TORSDOF 5
ENDMDL
MODEL 6
REMARK VINA RESULT:      -5.7      1.624      5.593
REMARK  Name = pdb/CHEMBL3676082.pdb
REMARK                            x       y       z     vdW  Elec       q    Type
REMARK                         _______ _______ _______ _____ _____    ______ ____
ROOT
ATOM      1  C   LIG    1      -19.031  77.449  32.291  0.00  0.00    +0.100 A 
ATOM      2  C   LIG    1      -20.284  77.322  31.715  0.00  0.00    +0.170 A 
ATOM      3  N   LIG    1      -21.554  77.483  32.213  0.00  0.00    -0.212 NA
ATOM      4  C   LIG    1      -22.577  77.325  31.394  0.00  0.00    +0.126 A 
ATOM      5  C   LIG    1      -22.377  76.991  29.934  0.00  0.00    +0.063 A 
ATOM      6  C   LIG    1      -21.121  76.829  29.505  0.00  0.00    +0.118 A 
ATOM      7  N   LIG    1      -20.060  76.972  30.381  0.00  0.00    -0.221 N 
ATOM      8  N   LIG    1      -18.747  76.810  30.106  0.00  0.00    -0.173 NA
ATOM      9  C   LIG    1      -18.137  77.086  31.259  0.00  0.00    +0.150 A 
ENDROOT
BRANCH   4  10
ATOM     10  N   LIG    1      -23.860  77.470  31.903  0.00  0.00    -0.305 N 
ATOM     11  C   LIG    1      -24.293  77.145  33.266  0.00  0.00    +0.108 C 
ATOM     12  C   LIG    1      -25.644  76.469  33.019  0.00  0.00    +0.060 C 
ATOM     13  C   LIG    1      -26.240  77.241  31.849  0.00  0.00    +0.134 C 
ATOM     14  C   LIG    1      -25.023  77.717  31.041  0.00  0.00    +0.138 C 
BRANCH  11  15
ATOM     15  C   LIG    1      -24.358  78.363  34.185  0.00  0.00    -0.024 A 
ATOM     16  C   LIG    1      -23.420  79.406  34.114  0.00  0.00    +0.043 A 
ATOM     17  C   LIG    1      -23.497  80.497  34.977  0.00  0.00    +0.124 A 
ATOM     18  F   LIG    1      -22.596  81.482  34.870  0.00  0.00    -0.205 F 
ATOM     19  C   LIG    1      -24.492  80.584  35.938  0.00  0.00    +0.038 A 
ATOM     20  C   LIG    1      -25.427  79.558  36.040  0.00  0.00    +0.003 A 
ATOM     21  C   LIG    1      -25.358  78.456  35.175  0.00  0.00    +0.005 A 
ENDBRANCH  11  15
BRANCH  13  22
ATOM     22  O   LIG    1      -27.100  76.395  31.092  0.00  0.00    -0.390 OA
ATOM     23  H   LIG    1      -26.559  75.695  30.681  0.00  0.00    +0.210 HD
ENDBRANCH  13  22
ENDBRANCH   4  10
BRANCH   1  26
ATOM     24  N   LIG    1      -19.700  78.264  34.437  0.00  0.00    -0.309 N 
ATOM     25  H   LIG    1      -20.622  78.322  34.010  0.00  0.00    +0.149 HD
ATOM     26  C   LIG    1      -18.658  77.841  33.637  0.00  0.00    +0.249 C 
ATOM     27  O   LIG    1      -17.499  77.796  34.019  0.00  0.00    -0.270 OA
BRANCH  24  29
ATOM     28  C   LIG    1      -19.881  80.143  36.024  0.00  0.00    +0.027 C 
ATOM     29  C   LIG    1      -19.495  78.681  35.815  0.00  0.00    +0.067 C 
ATOM     30  C   LIG    1      -20.282  77.784  36.765  0.00  0.00    +0.027 C 
ENDBRANCH  24  29
ENDBRANCH   1  26
TORSDOF 5
ENDMDL
MODEL 7
REMARK VINA RESULT:      -5.7      2.487      6.413
REMARK  Name = pdb/CHEMBL3676082.pdb
REMARK                            x       y       z     vdW  Elec       q    Type
REMARK                         _______ _______ _______ _____ _____    ______ ____
ROOT
ATOM      1  C   LIG    1      -21.525  79.962  36.186  0.00  0.00    +0.100 A 
ATOM      2  C   LIG    1      -22.690  79.526  35.577  0.00  0.00    +0.170 A 
ATOM      3  N   LIG    1      -22.922  78.770  34.453  0.00  0.00    -0.212 NA
ATOM      4  C   LIG    1      -24.169  78.480  34.134  0.00  0.00    +0.126 A 
ATOM      5  C   LIG    1      -25.330  78.946  34.983  0.00  0.00    +0.063 A 
ATOM      6  C   LIG    1      -25.050  79.693  36.055  0.00  0.00    +0.118 A 
ATOM      7  N   LIG    1      -23.739  80.009  36.362  0.00  0.00    -0.221 N 
ATOM      8  N   LIG    1      -23.302  80.774  37.388  0.00  0.00    -0.173 NA
ATOM      9  C   LIG    1      -21.975  80.751  37.268  0.00  0.00    +0.150 A 
ENDROOT
BRANCH   4  10
ATOM     10  N   LIG    1      -24.403  77.732  32.989  0.00  0.00    -0.305 N 
ATOM     11  C   LIG    1      -23.936  78.052  31.636  0.00  0.00    +0.108 C 
ATOM     12  C   LIG    1      -25.166  77.717  30.787  0.00  0.00    +0.060 C 
ATOM     13  C   LIG    1      -25.765  76.491  31.465  0.00  0.00    +0.134 C 
ATOM     14  C   LIG    1      -25.394  76.650  32.947  0.00  0.00    +0.138 C 
BRANCH  11  15
ATOM     15  C   LIG    1      -22.673  77.292  31.238  0.00  0.00    -0.024 A 
ATOM     16  C   LIG    1      -21.907  76.573  32.171  0.00  0.00    +0.043 A 
ATOM     17  C   LIG    1      -20.749  75.903  31.781  0.00  0.00    +0.124 A 
ATOM     18  F   LIG    1      -20.053  75.212  32.693  0.00  0.00    -0.205 F 
ATOM     19  C   LIG    1      -20.310  75.933  30.466  0.00  0.00    +0.038 A 
ATOM     20  C   LIG    1      -21.042  76.649  29.523  0.00  0.00    +0.003 A 
ATOM     21  C   LIG    1      -22.209  77.326  29.907  0.00  0.00    +0.005 A 
ENDBRANCH  11  15
BRANCH  13  22
ATOM     22  O   LIG    1      -27.174  76.456  31.255  0.00  0.00    -0.390 OA
ATOM     23  H   LIG    1      -27.482  75.543  31.396  0.00  0.00    +0.210 HD
ENDBRANCH  13  22
ENDBRANCH   4  10
BRANCH   1  26
ATOM     24  N   LIG    1      -19.946  78.992  34.675  0.00  0.00    -0.309 N 
ATOM     25  H   LIG    1      -20.775  78.645  34.197  0.00  0.00    +0.149 HD
ATOM     26  C   LIG    1      -20.139  79.715  35.834  0.00  0.00    +0.249 C 
ATOM     27  O   LIG    1      -19.221  80.124  36.528  0.00  0.00    -0.270 OA
BRANCH  24  29
ATOM     28  C   LIG    1      -18.191  77.262  34.587  0.00  0.00    +0.027 C 
ATOM     29  C   LIG    1      -18.617  78.671  34.179  0.00  0.00    +0.067 C 
ATOM     30  C   LIG    1      -18.563  78.823  32.662  0.00  0.00    +0.027 C 
ENDBRANCH  24  29
ENDBRANCH   1  26
TORSDOF 5
ENDMDL
MODEL 8
REMARK VINA RESULT:      -5.5     19.862     22.253
REMARK  Name = pdb/CHEMBL3676082.pdb
REMARK                            x       y       z     vdW  Elec       q    Type
REMARK                         _______ _______ _______ _____ _____    ______ ____
ROOT
ATOM      1  C   LIG    1      -23.978  82.264  12.669  0.00  0.00    +0.100 A 
ATOM      2  C   LIG    1      -23.502  83.456  12.149  0.00  0.00    +0.170 A 
ATOM      3  N   LIG    1      -23.001  84.591  12.740  0.00  0.00    -0.212 NA
ATOM      4  C   LIG    1      -22.583  85.573  11.964  0.00  0.00    +0.126 A 
ATOM      5  C   LIG    1      -22.628  85.465  10.457  0.00  0.00    +0.063 A 
ATOM      6  C   LIG    1      -23.140  84.346   9.935  0.00  0.00    +0.118 A 
ATOM      7  N   LIG    1      -23.598  83.336  10.761  0.00  0.00    -0.221 N 
ATOM      8  N   LIG    1      -24.166  82.168  10.385  0.00  0.00    -0.173 NA
ATOM      9  C   LIG    1      -24.402  81.537  11.534  0.00  0.00    +0.150 A 
ENDROOT
BRANCH   4  10
ATOM     10  N   LIG    1      -22.095  86.726  12.563  0.00  0.00    -0.305 N 
ATOM     11  C   LIG    1      -21.403  87.828  11.884  0.00  0.00    +0.108 C 
ATOM     12  C   LIG    1      -20.274  88.149  12.867  0.00  0.00    +0.060 C 
ATOM     13  C   LIG    1      -20.904  87.947  14.240  0.00  0.00    +0.134 C 
ATOM     14  C   LIG    1      -21.968  86.862  14.019  0.00  0.00    +0.138 C 
BRANCH  11  15
ATOM     15  C   LIG    1      -22.317  89.010  11.569  0.00  0.00    -0.024 A 
ATOM     16  C   LIG    1      -23.703  88.966  11.794  0.00  0.00    +0.043 A 
ATOM     17  C   LIG    1      -24.514  90.055  11.481  0.00  0.00    +0.124 A 
ATOM     18  F   LIG    1      -25.829  89.985  11.725  0.00  0.00    -0.205 F 
ATOM     19  C   LIG    1      -23.983  91.211  10.930  0.00  0.00    +0.038 A 
ATOM     20  C   LIG    1      -22.614  91.277  10.684  0.00  0.00    +0.003 A 
ATOM     21  C   LIG    1      -21.790  90.186  10.996  0.00  0.00    +0.005 A 
ENDBRANCH  11  15
BRANCH  13  22
ATOM     22  O   LIG    1      -19.910  87.554  15.181  0.00  0.00    -0.390 OA
ATOM     23  H   LIG    1      -19.216  88.239  15.200  0.00  0.00    +0.210 HD
ENDBRANCH  13  22
ENDBRANCH   4  10
BRANCH   1  26
ATOM     24  N   LIG    1      -22.989  82.148  14.843  0.00  0.00    -0.309 N 
ATOM     25  H   LIG    1      -22.208  82.623  14.397  0.00  0.00    +0.149 HD
ATOM     26  C   LIG    1      -24.065  81.815  14.045  0.00  0.00    +0.249 C 
ATOM     27  O   LIG    1      -25.030  81.186  14.453  0.00  0.00    -0.270 OA
BRANCH  24  29
ATOM     28  C   LIG    1      -21.928  80.654  16.492  0.00  0.00    +0.027 C 
ATOM     29  C   LIG    1      -22.929  81.782  16.248  0.00  0.00    +0.067 C 
ATOM     30  C   LIG    1      -22.576  82.997  17.101  0.00  0.00    +0.027 C 
ENDBRANCH  24  29
ENDBRANCH   1  26
TORSDOF 5
ENDMDL
MODEL 9
REMARK VINA RESULT:      -5.4     17.947     21.429
REMARK  Name = pdb/CHEMBL3676082.pdb
REMARK                            x       y       z     vdW  Elec       q    Type
REMARK                         _______ _______ _______ _____ _____    ______ ____
ROOT
ATOM      1  C   LIG    1      -36.778  68.001  22.288  0.00  0.00    +0.100 A 
ATOM      2  C   LIG    1      -37.874  68.802  22.561  0.00  0.00    +0.170 A 
ATOM      3  N   LIG    1      -38.141  69.698  23.568  0.00  0.00    -0.212 NA
ATOM      4  C   LIG    1      -39.285  70.354  23.541  0.00  0.00    +0.126 A 
ATOM      5  C   LIG    1      -40.287  70.151  22.427  0.00  0.00    +0.063 A 
ATOM      6  C   LIG    1      -39.985  69.255  21.483  0.00  0.00    +0.118 A 
ATOM      7  N   LIG    1      -38.793  68.556  21.538  0.00  0.00    -0.221 N 
ATOM      8  N   LIG    1      -38.364  67.604  20.680  0.00  0.00    -0.173 NA
ATOM      9  C   LIG    1      -37.161  67.267  21.143  0.00  0.00    +0.150 A 
ENDROOT
BRANCH   4  10
ATOM     10  N   LIG    1      -39.561  71.245  24.568  0.00  0.00    -0.305 N 
ATOM     11  C   LIG    1      -39.014  72.599  24.710  0.00  0.00    +0.108 C 
ATOM     12  C   LIG    1      -38.704  72.661  26.208  0.00  0.00    +0.060 C 
ATOM     13  C   LIG    1      -39.836  71.878  26.859  0.00  0.00    +0.134 C 
ATOM     14  C   LIG    1      -40.236  70.832  25.805  0.00  0.00    +0.138 C 
BRANCH  11  15
ATOM     15  C   LIG    1      -39.966  73.687  24.220  0.00  0.00    -0.024 A 
ATOM     16  C   LIG    1      -41.173  73.389  23.566  0.00  0.00    +0.043 A 
ATOM     17  C   LIG    1      -42.013  74.405  23.115  0.00  0.00    +0.124 A 
ATOM     18  F   LIG    1      -43.164  74.083  22.512  0.00  0.00    -0.205 F 
ATOM     19  C   LIG    1      -41.681  75.740  23.286  0.00  0.00    +0.038 A 
ATOM     20  C   LIG    1      -40.484  76.065  23.918  0.00  0.00    +0.003 A 
ATOM     21  C   LIG    1      -39.633  75.049  24.376  0.00  0.00    +0.005 A 
ENDBRANCH  11  15
BRANCH  13  22
ATOM     22  O   LIG    1      -39.387  71.285  28.073  0.00  0.00    -0.390 OA
ATOM     23  H   LIG    1      -39.813  71.748  28.817  0.00  0.00    +0.210 HD
ENDBRANCH  13  22
ENDBRANCH   4  10
BRANCH   1  26
ATOM     24  N   LIG    1      -35.519  68.317  24.297  0.00  0.00    -0.309 N 
ATOM     25  H   LIG    1      -36.380  68.730  24.646  0.00  0.00    +0.149 HD
ATOM     26  C   LIG    1      -35.512  67.883  22.986  0.00  0.00    +0.249 C 
ATOM     27  O   LIG    1      -34.518  67.432  22.438  0.00  0.00    -0.270 OA
BRANCH  24  29
ATOM     28  C   LIG    1      -34.105  69.567  25.884  0.00  0.00    +0.027 C 
ATOM     29  C   LIG    1      -34.333  68.255  25.136  0.00  0.00    +0.067 C 
ATOM     30  C   LIG    1      -34.437  67.095  26.121  0.00  0.00    +0.027 C 
ENDBRANCH  24  29
ENDBRANCH   1  26
TORSDOF 5
ENDMDL
