MODEL 1
REMARK VINA RESULT:      -7.0      0.000      0.000
REMARK  Name = pdb/CHEMBL3952980.pdb
REMARK                            x       y       z     vdW  Elec       q    Type
REMARK                         _______ _______ _______ _____ _____    ______ ____
ROOT
ATOM      1  C   LIG    1      -38.172  74.059  25.955  0.00  0.00    +0.251 C 
ATOM      2  N   LIG    1      -37.076  74.959  25.630  0.00  0.00    -0.266 N 
ATOM      3  H   LIG    1      -36.443  74.740  24.863  0.00  0.00    +0.157 HD
ATOM      4  O   LIG    1      -38.970  74.334  26.820  0.00  0.00    -0.270 OA
ENDROOT
BRANCH   1  11
ATOM      5  C   LIG    1      -37.423  70.529  24.737  0.00  0.00    +0.019 A 
ATOM      6  C   LIG    1      -38.531  70.308  23.895  0.00  0.00    +0.052 A 
ATOM      7 CL   LIG    1      -38.909  68.794  23.149  0.00  0.00    -0.083 Cl
ATOM      8  C   LIG    1      -39.472  71.320  23.647  0.00  0.00    +0.041 A 
ATOM      9  C   LIG    1      -39.379  72.567  24.255  0.00  0.00    +0.054 A 
ATOM     10 CL   LIG    1      -40.620  73.692  23.844  0.00  0.00    -0.083 Cl
ATOM     11  C   LIG    1      -38.332  72.821  25.145  0.00  0.00    +0.056 A 
ATOM     12  C   LIG    1      -37.366  71.806  25.348  0.00  0.00    +0.026 A 
BRANCH   5  15
ATOM     13  C   LIG    1      -35.145  67.690  24.232  0.00  0.00    +0.068 A 
ATOM     14  N   LIG    1      -36.047  68.690  24.024  0.00  0.00    -0.249 NA
ATOM     15  C   LIG    1      -36.343  69.547  25.041  0.00  0.00    +0.073 A 
ATOM     16  C   LIG    1      -35.711  69.423  26.276  0.00  0.00    +0.028 A 
ATOM     17  C   LIG    1      -34.744  68.439  26.464  0.00  0.00    +0.004 A 
ATOM     18  C   LIG    1      -34.462  67.554  25.436  0.00  0.00    +0.026 A 
BRANCH  13  19
ATOM     19  C   LIG    1      -34.880  66.708  23.105  0.00  0.00    +0.214 C 
BRANCH  19  21
ATOM     20  C   LIG    1      -33.823  66.406  21.018  0.00  0.00    +0.194 C 
ATOM     21  O   LIG    1      -34.170  67.339  22.035  0.00  0.00    -0.377 OA
ENDBRANCH  19  21
ENDBRANCH  13  19
ENDBRANCH   5  15
ENDBRANCH   1  11
BRANCH   2  22
ATOM     22  C   LIG    1      -36.849  76.146  26.322  0.00  0.00    +0.129 A 
ATOM     23  N   LIG    1      -37.515  77.366  26.273  0.00  0.00    -0.218 N 
ATOM     24  N   LIG    1      -36.917  78.296  27.084  0.00  0.00    -0.160 NA
ATOM     25  C   LIG    1      -35.919  77.631  27.707  0.00  0.00    +0.149 A 
ATOM     26  C   LIG    1      -35.778  76.354  27.149  0.00  0.00    +0.078 A 
BRANCH  23  27
ATOM     27  C   LIG    1      -38.698  77.692  25.552  0.00  0.00    +0.067 A 
ATOM     28  C   LIG    1      -39.835  78.126  26.248  0.00  0.00    +0.028 A 
ATOM     29  C   LIG    1      -41.012  78.423  25.552  0.00  0.00    +0.002 A 
ATOM     30  C   LIG    1      -41.068  78.262  24.168  0.00  0.00    +0.000 A 
ATOM     31  C   LIG    1      -39.941  77.830  23.473  0.00  0.00    +0.002 A 
ATOM     32  C   LIG    1      -38.756  77.549  24.158  0.00  0.00    +0.028 A 
ENDBRANCH  23  27
BRANCH  25  33
ATOM     33  C   LIG    1      -35.141  78.256  28.785  0.00  0.00    +0.236 C 
ATOM     34  N   LIG    1      -34.187  79.107  28.708  0.00  0.00    -0.247 NA
BRANCH  33  35
ATOM     35  O   LIG    1      -35.497  77.833  30.022  0.00  0.00    -0.491 OA
ATOM     36  H   LIG    1      -36.344  78.242  30.274  0.00  0.00    +0.294 HD
ENDBRANCH  33  35
BRANCH  34  37
ATOM     37  C   LIG    1      -33.658  79.661  27.474  0.00  0.00    +0.173 C 
BRANCH  37  38
ATOM     38  C   LIG    1      -32.399  78.903  27.043  0.00  0.00    +0.179 C 
BRANCH  38  39
ATOM     39  O   LIG    1      -32.344  78.783  25.628  0.00  0.00    -0.393 OA
ATOM     40  H   LIG    1      -31.442  78.500  25.394  0.00  0.00    +0.209 HD
ENDBRANCH  38  39
ENDBRANCH  37  38
ENDBRANCH  34  37
ENDBRANCH  25  33
ENDBRANCH   2  22
TORSDOF 11
ENDMDL
MODEL 2
REMARK VINA RESULT:      -6.6      1.301      2.061
REMARK  Name = pdb/CHEMBL3952980.pdb
REMARK                            x       y       z     vdW  Elec       q    Type
REMARK                         _______ _______ _______ _____ _____    ______ ____
ROOT
ATOM      1  C   LIG    1      -38.446  74.045  25.807  0.00  0.00    +0.251 C 
ATOM      2  N   LIG    1      -37.387  74.956  25.401  0.00  0.00    -0.266 N 
ATOM      3  H   LIG    1      -36.902  74.816  24.516  0.00  0.00    +0.157 HD
ATOM      4  O   LIG    1      -39.073  74.232  26.823  0.00  0.00    -0.270 OA
ENDROOT
BRANCH   1  11
ATOM      5  C   LIG    1      -38.074  70.654  24.114  0.00  0.00    +0.019 A 
ATOM      6  C   LIG    1      -39.306  70.570  23.435  0.00  0.00    +0.052 A 
ATOM      7 CL   LIG    1      -39.870  69.166  22.598  0.00  0.00    -0.083 Cl
ATOM      8  C   LIG    1      -40.218  71.636  23.446  0.00  0.00    +0.041 A 
ATOM      9  C   LIG    1      -39.970  72.802  24.163  0.00  0.00    +0.054 A 
ATOM     10 CL   LIG    1      -41.198  74.009  24.073  0.00  0.00    -0.083 Cl
ATOM     11  C   LIG    1      -38.790  72.915  24.903  0.00  0.00    +0.056 A 
ATOM     12  C   LIG    1      -37.860  71.850  24.843  0.00  0.00    +0.026 A 
BRANCH   5  15
ATOM     13  C   LIG    1      -35.006  68.923  25.162  0.00  0.00    +0.068 A 
ATOM     14  N   LIG    1      -36.073  69.769  25.113  0.00  0.00    -0.249 NA
ATOM     15  C   LIG    1      -37.014  69.606  24.141  0.00  0.00    +0.073 A 
ATOM     16  C   LIG    1      -36.905  68.565  23.221  0.00  0.00    +0.028 A 
ATOM     17  C   LIG    1      -35.846  67.666  23.313  0.00  0.00    +0.004 A 
ATOM     18  C   LIG    1      -34.879  67.849  24.288  0.00  0.00    +0.026 A 
BRANCH  13  19
ATOM     19  C   LIG    1      -33.937  69.166  26.212  0.00  0.00    +0.214 C 
BRANCH  19  21
ATOM     20  C   LIG    1      -33.905  70.188  28.338  0.00  0.00    +0.194 C 
ATOM     21  O   LIG    1      -34.216  70.354  26.959  0.00  0.00    -0.377 OA
ENDBRANCH  19  21
ENDBRANCH  13  19
ENDBRANCH   5  15
ENDBRANCH   1  11
BRANCH   2  22
ATOM     22  C   LIG    1      -36.998  76.048  26.172  0.00  0.00    +0.129 A 
ATOM     23  N   LIG    1      -37.519  77.336  26.247  0.00  0.00    -0.218 N 
ATOM     24  N   LIG    1      -36.788  78.122  27.101  0.00  0.00    -0.160 NA
ATOM     25  C   LIG    1      -35.854  77.299  27.625  0.00  0.00    +0.149 A 
ATOM     26  C   LIG    1      -35.882  76.064  26.965  0.00  0.00    +0.078 A 
BRANCH  23  27
ATOM     27  C   LIG    1      -38.679  77.852  25.606  0.00  0.00    +0.067 A 
ATOM     28  C   LIG    1      -39.666  78.492  26.371  0.00  0.00    +0.028 A 
ATOM     29  C   LIG    1      -40.824  78.979  25.755  0.00  0.00    +0.002 A 
ATOM     30  C   LIG    1      -41.015  78.807  24.385  0.00  0.00    +0.000 A 
ATOM     31  C   LIG    1      -40.039  78.171  23.622  0.00  0.00    +0.002 A 
ATOM     32  C   LIG    1      -38.871  77.699  24.226  0.00  0.00    +0.028 A 
ENDBRANCH  23  27
BRANCH  25  33
ATOM     33  C   LIG    1      -34.970  77.741  28.714  0.00  0.00    +0.236 C 
ATOM     34  N   LIG    1      -34.046  78.627  28.698  0.00  0.00    -0.247 NA
BRANCH  33  35
ATOM     35  O   LIG    1      -35.179  77.081  29.878  0.00  0.00    -0.491 OA
ATOM     36  H   LIG    1      -35.288  76.130  29.698  0.00  0.00    +0.294 HD
ENDBRANCH  33  35
BRANCH  34  37
ATOM     37  C   LIG    1      -33.668  79.421  27.542  0.00  0.00    +0.173 C 
BRANCH  37  38
ATOM     38  C   LIG    1      -32.304  78.974  27.009  0.00  0.00    +0.179 C 
BRANCH  38  39
ATOM     39  O   LIG    1      -32.359  78.762  25.605  0.00  0.00    -0.393 OA
ATOM     40  H   LIG    1      -32.433  77.803  25.457  0.00  0.00    +0.209 HD
ENDBRANCH  38  39
ENDBRANCH  37  38
ENDBRANCH  34  37
ENDBRANCH  25  33
ENDBRANCH   2  22
TORSDOF 11
ENDMDL
MODEL 3
REMARK VINA RESULT:      -6.6      1.887      2.319
REMARK  Name = pdb/CHEMBL3952980.pdb
REMARK                            x       y       z     vdW  Elec       q    Type
REMARK                         _______ _______ _______ _____ _____    ______ ____
ROOT
ATOM      1  C   LIG    1      -37.772  75.527  25.353  0.00  0.00    +0.251 C 
ATOM      2  N   LIG    1      -37.646  75.569  26.803  0.00  0.00    -0.266 N 
ATOM      3  H   LIG    1      -38.145  74.895  27.381  0.00  0.00    +0.157 HD
ATOM      4  O   LIG    1      -37.139  76.278  24.651  0.00  0.00    -0.270 OA
ENDROOT
BRANCH   1  11
ATOM      5  C   LIG    1      -38.980  72.022  24.482  0.00  0.00    +0.019 A 
ATOM      6  C   LIG    1      -40.226  72.319  23.894  0.00  0.00    +0.052 A 
ATOM      7 CL   LIG    1      -41.398  71.135  23.431  0.00  0.00    -0.083 Cl
ATOM      8  C   LIG    1      -40.640  73.645  23.695  0.00  0.00    +0.041 A 
ATOM      9  C   LIG    1      -39.864  74.722  24.110  0.00  0.00    +0.054 A 
ATOM     10 CL   LIG    1      -40.525  76.283  23.793  0.00  0.00    -0.083 Cl
ATOM     11  C   LIG    1      -38.646  74.484  24.752  0.00  0.00    +0.056 A 
ATOM     12  C   LIG    1      -38.222  73.142  24.903  0.00  0.00    +0.026 A 
BRANCH   5  15
ATOM     13  C   LIG    1      -37.200  68.894  23.737  0.00  0.00    +0.068 A 
ATOM     14  N   LIG    1      -37.676  70.170  23.675  0.00  0.00    -0.249 NA
ATOM     15  C   LIG    1      -38.419  70.659  24.707  0.00  0.00    +0.073 A 
ATOM     16  C   LIG    1      -38.669  69.875  25.831  0.00  0.00    +0.028 A 
ATOM     17  C   LIG    1      -38.129  68.595  25.917  0.00  0.00    +0.004 A 
ATOM     18  C   LIG    1      -37.393  68.092  24.856  0.00  0.00    +0.026 A 
BRANCH  13  19
ATOM     19  C   LIG    1      -36.431  68.349  22.548  0.00  0.00    +0.214 C 
BRANCH  19  21
ATOM     20  C   LIG    1      -34.609  66.850  22.530  0.00  0.00    +0.194 C 
ATOM     21  O   LIG    1      -35.051  68.158  22.876  0.00  0.00    -0.377 OA
ENDBRANCH  19  21
ENDBRANCH  13  19
ENDBRANCH   5  15
ENDBRANCH   1  11
BRANCH   2  22
ATOM     22  C   LIG    1      -36.845  76.499  27.460  0.00  0.00    +0.129 A 
ATOM     23  N   LIG    1      -37.079  77.833  27.778  0.00  0.00    -0.218 N 
ATOM     24  N   LIG    1      -35.986  78.403  28.381  0.00  0.00    -0.160 NA
ATOM     25  C   LIG    1      -35.093  77.397  28.513  0.00  0.00    +0.149 A 
ATOM     26  C   LIG    1      -35.549  76.262  27.831  0.00  0.00    +0.078 A 
BRANCH  23  27
ATOM     27  C   LIG    1      -38.274  78.583  27.595  0.00  0.00    +0.067 A 
ATOM     28  C   LIG    1      -39.068  78.901  28.706  0.00  0.00    +0.028 A 
ATOM     29  C   LIG    1      -40.260  79.614  28.534  0.00  0.00    +0.002 A 
ATOM     30  C   LIG    1      -40.677  79.987  27.257  0.00  0.00    +0.000 A 
ATOM     31  C   LIG    1      -39.892  79.671  26.150  0.00  0.00    +0.002 A 
ATOM     32  C   LIG    1      -38.691  78.976  26.315  0.00  0.00    +0.028 A 
ENDBRANCH  23  27
BRANCH  25  33
ATOM     33  C   LIG    1      -33.843  77.581  29.265  0.00  0.00    +0.236 C 
ATOM     34  N   LIG    1      -32.642  77.671  28.831  0.00  0.00    -0.247 NA
BRANCH  33  35
ATOM     35  O   LIG    1      -34.025  77.636  30.606  0.00  0.00    -0.491 OA
ATOM     36  H   LIG    1      -34.896  78.027  30.800  0.00  0.00    +0.294 HD
ENDBRANCH  33  35
BRANCH  34  37
ATOM     37  C   LIG    1      -32.251  77.615  27.434  0.00  0.00    +0.173 C 
BRANCH  37  38
ATOM     38  C   LIG    1      -32.254  79.018  26.820  0.00  0.00    +0.179 C 
BRANCH  38  39
ATOM     39  O   LIG    1      -32.335  78.946  25.403  0.00  0.00    -0.393 OA
ATOM     40  H   LIG    1      -32.636  78.049  25.173  0.00  0.00    +0.209 HD
ENDBRANCH  38  39
ENDBRANCH  37  38
ENDBRANCH  34  37
ENDBRANCH  25  33
ENDBRANCH   2  22
TORSDOF 11
ENDMDL
MODEL 4
REMARK VINA RESULT:      -6.5      2.236      4.608
REMARK  Name = pdb/CHEMBL3952980.pdb
REMARK                            x       y       z     vdW  Elec       q    Type
REMARK                         _______ _______ _______ _____ _____    ______ ____
ROOT
ATOM      1  C   LIG    1      -37.878  76.148  25.385  0.00  0.00    +0.251 C 
ATOM      2  N   LIG    1      -37.862  76.024  26.835  0.00  0.00    -0.266 N 
ATOM      3  H   LIG    1      -38.629  75.560  27.318  0.00  0.00    +0.157 HD
ATOM      4  O   LIG    1      -36.948  76.638  24.791  0.00  0.00    -0.270 OA
ENDROOT
BRANCH   1  11
ATOM      5  C   LIG    1      -40.141  73.473  23.892  0.00  0.00    +0.019 A 
ATOM      6  C   LIG    1      -41.226  74.263  23.466  0.00  0.00    +0.052 A 
ATOM      7 CL   LIG    1      -42.715  73.635  22.850  0.00  0.00    -0.083 Cl
ATOM      8  C   LIG    1      -41.196  75.662  23.575  0.00  0.00    +0.041 A 
ATOM      9  C   LIG    1      -40.117  76.326  24.149  0.00  0.00    +0.054 A 
ATOM     10 CL   LIG    1      -40.245  78.045  24.209  0.00  0.00    -0.083 Cl
ATOM     11  C   LIG    1      -39.039  75.587  24.642  0.00  0.00    +0.056 A 
ATOM     12  C   LIG    1      -39.064  74.181  24.482  0.00  0.00    +0.026 A 
BRANCH   5  15
ATOM     13  C   LIG    1      -38.613  70.132  24.012  0.00  0.00    +0.068 A 
ATOM     14  N   LIG    1      -38.840  71.468  24.161  0.00  0.00    -0.249 NA
ATOM     15  C   LIG    1      -40.044  71.988  23.790  0.00  0.00    +0.073 A 
ATOM     16  C   LIG    1      -41.046  71.161  23.289  0.00  0.00    +0.028 A 
ATOM     17  C   LIG    1      -40.832  69.789  23.197  0.00  0.00    +0.004 A 
ATOM     18  C   LIG    1      -39.599  69.266  23.553  0.00  0.00    +0.026 A 
BRANCH  13  19
ATOM     19  C   LIG    1      -37.243  69.586  24.370  0.00  0.00    +0.214 C 
BRANCH  19  21
ATOM     20  C   LIG    1      -35.894  67.846  23.523  0.00  0.00    +0.194 C 
ATOM     21  O   LIG    1      -36.590  69.048  23.216  0.00  0.00    -0.377 OA
ENDBRANCH  19  21
ENDBRANCH  13  19
ENDBRANCH   5  15
ENDBRANCH   1  11
BRANCH   2  22
ATOM     22  C   LIG    1      -36.816  76.507  27.618  0.00  0.00    +0.129 A 
ATOM     23  N   LIG    1      -35.759  75.841  28.229  0.00  0.00    -0.218 N 
ATOM     24  N   LIG    1      -34.984  76.701  28.964  0.00  0.00    -0.160 NA
ATOM     25  C   LIG    1      -35.513  77.925  28.746  0.00  0.00    +0.149 A 
ATOM     26  C   LIG    1      -36.715  77.806  28.037  0.00  0.00    +0.078 A 
BRANCH  23  27
ATOM     27  C   LIG    1      -35.410  74.465  28.124  0.00  0.00    +0.067 A 
ATOM     28  C   LIG    1      -36.422  73.494  28.109  0.00  0.00    +0.028 A 
ATOM     29  C   LIG    1      -36.090  72.137  28.034  0.00  0.00    +0.002 A 
ATOM     30  C   LIG    1      -34.752  71.743  28.003  0.00  0.00    +0.000 A 
ATOM     31  C   LIG    1      -33.744  72.704  28.019  0.00  0.00    +0.002 A 
ATOM     32  C   LIG    1      -34.069  74.063  28.075  0.00  0.00    +0.028 A 
ENDBRANCH  23  27
BRANCH  25  33
ATOM     33  C   LIG    1      -34.854  79.141  29.244  0.00  0.00    +0.236 C 
ATOM     34  N   LIG    1      -34.122  79.982  28.615  0.00  0.00    -0.247 NA
BRANCH  33  35
ATOM     35  O   LIG    1      -35.055  79.360  30.566  0.00  0.00    -0.491 OA
ATOM     36  H   LIG    1      -36.003  79.268  30.770  0.00  0.00    +0.294 HD
ENDBRANCH  33  35
BRANCH  34  37
ATOM     37  C   LIG    1      -33.782  79.904  27.205  0.00  0.00    +0.173 C 
BRANCH  37  38
ATOM     38  C   LIG    1      -32.496  79.097  27.008  0.00  0.00    +0.179 C 
BRANCH  38  39
ATOM     39  O   LIG    1      -32.293  78.803  25.632  0.00  0.00    -0.393 OA
ATOM     40  H   LIG    1      -31.485  78.264  25.565  0.00  0.00    +0.209 HD
ENDBRANCH  38  39
ENDBRANCH  37  38
ENDBRANCH  34  37
ENDBRANCH  25  33
ENDBRANCH   2  22
TORSDOF 11
ENDMDL
MODEL 5
REMARK VINA RESULT:      -6.5      2.156      3.057
REMARK  Name = pdb/CHEMBL3952980.pdb
REMARK                            x       y       z     vdW  Elec       q    Type
REMARK                         _______ _______ _______ _____ _____    ______ ____
ROOT
ATOM      1  C   LIG    1      -38.087  76.008  25.135  0.00  0.00    +0.251 C 
ATOM      2  N   LIG    1      -38.312  76.425  26.511  0.00  0.00    -0.266 N 
ATOM      3  H   LIG    1      -38.932  75.887  27.115  0.00  0.00    +0.157 HD
ATOM      4  O   LIG    1      -37.307  76.597  24.426  0.00  0.00    -0.270 OA
ENDROOT
BRANCH   1  11
ATOM      5  C   LIG    1      -38.653  72.300  24.477  0.00  0.00    +0.019 A 
ATOM      6  C   LIG    1      -39.975  72.324  23.993  0.00  0.00    +0.052 A 
ATOM      7 CL   LIG    1      -40.927  70.917  23.670  0.00  0.00    -0.083 Cl
ATOM      8  C   LIG    1      -40.655  73.535  23.792  0.00  0.00    +0.041 A 
ATOM      9  C   LIG    1      -40.074  74.760  24.105  0.00  0.00    +0.054 A 
ATOM     10 CL   LIG    1      -41.051  76.148  23.802  0.00  0.00    -0.083 Cl
ATOM     11  C   LIG    1      -38.786  74.790  24.644  0.00  0.00    +0.056 A 
ATOM     12  C   LIG    1      -38.096  73.563  24.796  0.00  0.00    +0.026 A 
BRANCH   5  15
ATOM     13  C   LIG    1      -36.289  70.025  26.135  0.00  0.00    +0.068 A 
ATOM     14  N   LIG    1      -37.156  71.046  25.881  0.00  0.00    -0.249 NA
ATOM     15  C   LIG    1      -37.819  71.082  24.692  0.00  0.00    +0.073 A 
ATOM     16  C   LIG    1      -37.639  70.070  23.752  0.00  0.00    +0.028 A 
ATOM     17  C   LIG    1      -36.800  68.996  24.041  0.00  0.00    +0.004 A 
ATOM     18  C   LIG    1      -36.109  68.975  25.242  0.00  0.00    +0.026 A 
BRANCH  13  19
ATOM     19  C   LIG    1      -35.513  70.041  27.439  0.00  0.00    +0.214 C 
BRANCH  19  21
ATOM     20  C   LIG    1      -34.371  72.001  28.089  0.00  0.00    +0.194 C 
ATOM     21  O   LIG    1      -34.314  70.812  27.309  0.00  0.00    -0.377 OA
ENDBRANCH  19  21
ENDBRANCH  13  19
ENDBRANCH   5  15
ENDBRANCH   1  11
BRANCH   2  22
ATOM     22  C   LIG    1      -37.697  77.544  27.067  0.00  0.00    +0.129 A 
ATOM     23  N   LIG    1      -38.064  78.885  27.045  0.00  0.00    -0.218 N 
ATOM     24  N   LIG    1      -37.131  79.670  27.673  0.00  0.00    -0.160 NA
ATOM     25  C   LIG    1      -36.215  78.805  28.162  0.00  0.00    +0.149 A 
ATOM     26  C   LIG    1      -36.474  77.515  27.681  0.00  0.00    +0.078 A 
BRANCH  23  27
ATOM     27  C   LIG    1      -39.252  79.462  26.515  0.00  0.00    +0.067 A 
ATOM     28  C   LIG    1      -39.455  79.474  25.127  0.00  0.00    +0.028 A 
ATOM     29  C   LIG    1      -40.607  80.063  24.594  0.00  0.00    +0.002 A 
ATOM     30  C   LIG    1      -41.543  80.663  25.435  0.00  0.00    +0.000 A 
ATOM     31  C   LIG    1      -41.344  80.654  26.814  0.00  0.00    +0.002 A 
ATOM     32  C   LIG    1      -40.206  80.051  27.356  0.00  0.00    +0.028 A 
ENDBRANCH  23  27
BRANCH  25  33
ATOM     33  C   LIG    1      -35.129  79.259  29.044  0.00  0.00    +0.236 C 
ATOM     34  N   LIG    1      -33.981  79.732  28.737  0.00  0.00    -0.247 NA
BRANCH  33  35
ATOM     35  O   LIG    1      -35.414  79.122  30.361  0.00  0.00    -0.491 OA
ATOM     36  H   LIG    1      -35.055  79.882  30.852  0.00  0.00    +0.294 HD
ENDBRANCH  33  35
BRANCH  34  37
ATOM     37  C   LIG    1      -33.493  79.934  27.384  0.00  0.00    +0.173 C 
BRANCH  37  38
ATOM     38  C   LIG    1      -32.483  78.845  27.010  0.00  0.00    +0.179 C 
BRANCH  38  39
ATOM     39  O   LIG    1      -32.382  78.716  25.598  0.00  0.00    -0.393 OA
ATOM     40  H   LIG    1      -31.840  79.458  25.276  0.00  0.00    +0.209 HD
ENDBRANCH  38  39
ENDBRANCH  37  38
ENDBRANCH  34  37
ENDBRANCH  25  33
ENDBRANCH   2  22
TORSDOF 11
ENDMDL
MODEL 6
REMARK VINA RESULT:      -6.3      2.536      4.260
REMARK  Name = pdb/CHEMBL3952980.pdb
REMARK                            x       y       z     vdW  Elec       q    Type
REMARK                         _______ _______ _______ _____ _____    ______ ____
ROOT
ATOM      1  C   LIG    1      -37.680  73.698  26.414  0.00  0.00    +0.251 C 
ATOM      2  N   LIG    1      -37.142  74.877  25.753  0.00  0.00    -0.266 N 
ATOM      3  H   LIG    1      -36.967  74.867  24.749  0.00  0.00    +0.157 HD
ATOM      4  O   LIG    1      -37.953  73.713  27.591  0.00  0.00    -0.270 OA
ENDROOT
BRANCH   1  11
ATOM      5  C   LIG    1      -39.534  71.481  23.934  0.00  0.00    +0.019 A 
ATOM      6  C   LIG    1      -38.609  70.428  23.790  0.00  0.00    +0.052 A 
ATOM      7 CL   LIG    1      -38.756  69.145  22.640  0.00  0.00    -0.083 Cl
ATOM      8  C   LIG    1      -37.433  70.382  24.553  0.00  0.00    +0.041 A 
ATOM      9  C   LIG    1      -37.104  71.394  25.449  0.00  0.00    +0.054 A 
ATOM     10 CL   LIG    1      -35.619  71.183  26.301  0.00  0.00    -0.083 Cl
ATOM     11  C   LIG    1      -37.957  72.492  25.589  0.00  0.00    +0.056 A 
ATOM     12  C   LIG    1      -39.162  72.499  24.847  0.00  0.00    +0.026 A 
BRANCH   5  15
ATOM     13  C   LIG    1      -42.349  70.543  21.765  0.00  0.00    +0.068 A 
ATOM     14  N   LIG    1      -41.229  70.497  22.540  0.00  0.00    -0.249 NA
ATOM     15  C   LIG    1      -40.831  71.615  23.210  0.00  0.00    +0.073 A 
ATOM     16  C   LIG    1      -41.575  72.789  23.129  0.00  0.00    +0.028 A 
ATOM     17  C   LIG    1      -42.753  72.814  22.386  0.00  0.00    +0.004 A 
ATOM     18  C   LIG    1      -43.142  71.683  21.687  0.00  0.00    +0.026 A 
BRANCH  13  19
ATOM     19  C   LIG    1      -42.736  69.305  20.977  0.00  0.00    +0.214 C 
BRANCH  19  21
ATOM     20  C   LIG    1      -41.762  67.165  21.166  0.00  0.00    +0.194 C 
ATOM     21  O   LIG    1      -41.588  68.498  20.698  0.00  0.00    -0.377 OA
ENDBRANCH  19  21
ENDBRANCH  13  19
ENDBRANCH   5  15
ENDBRANCH   1  11
BRANCH   2  22
ATOM     22  C   LIG    1      -36.860  76.058  26.435  0.00  0.00    +0.129 A 
ATOM     23  N   LIG    1      -37.473  77.305  26.382  0.00  0.00    -0.218 N 
ATOM     24  N   LIG    1      -36.830  78.214  27.183  0.00  0.00    -0.160 NA
ATOM     25  C   LIG    1      -35.857  77.510  27.803  0.00  0.00    +0.149 A 
ATOM     26  C   LIG    1      -35.775  76.225  27.253  0.00  0.00    +0.078 A 
BRANCH  23  27
ATOM     27  C   LIG    1      -38.646  77.676  25.666  0.00  0.00    +0.067 A 
ATOM     28  C   LIG    1      -38.708  77.463  24.281  0.00  0.00    +0.028 A 
ATOM     29  C   LIG    1      -39.844  77.849  23.563  0.00  0.00    +0.002 A 
ATOM     30  C   LIG    1      -40.908  78.473  24.215  0.00  0.00    +0.000 A 
ATOM     31  C   LIG    1      -40.850  78.688  25.590  0.00  0.00    +0.002 A 
ATOM     32  C   LIG    1      -39.726  78.288  26.318  0.00  0.00    +0.028 A 
ENDBRANCH  23  27
BRANCH  25  33
ATOM     33  C   LIG    1      -35.045  78.109  28.873  0.00  0.00    +0.236 C 
ATOM     34  N   LIG    1      -34.069  78.932  28.784  0.00  0.00    -0.247 NA
BRANCH  33  35
ATOM     35  O   LIG    1      -35.395  77.690  30.113  0.00  0.00    -0.491 OA
ATOM     36  H   LIG    1      -34.674  77.885  30.737  0.00  0.00    +0.294 HD
ENDBRANCH  33  35
BRANCH  34  37
ATOM     37  C   LIG    1      -33.544  79.476  27.544  0.00  0.00    +0.173 C 
BRANCH  37  38
ATOM     38  C   LIG    1      -32.471  78.550  26.965  0.00  0.00    +0.179 C 
BRANCH  38  39
ATOM     39  O   LIG    1      -32.296  78.790  25.576  0.00  0.00    -0.393 OA
ATOM     40  H   LIG    1      -31.339  78.866  25.411  0.00  0.00    +0.209 HD
ENDBRANCH  38  39
ENDBRANCH  37  38
ENDBRANCH  34  37
ENDBRANCH  25  33
ENDBRANCH   2  22
TORSDOF 11
ENDMDL
MODEL 7
REMARK VINA RESULT:      -6.2     12.524     18.645
REMARK  Name = pdb/CHEMBL3952980.pdb
REMARK                            x       y       z     vdW  Elec       q    Type
REMARK                         _______ _______ _______ _____ _____    ______ ____
ROOT
ATOM      1  C   LIG    1      -23.454  78.224  34.361  0.00  0.00    +0.251 C 
ATOM      2  N   LIG    1      -24.373  78.304  33.235  0.00  0.00    -0.266 N 
ATOM      3  H   LIG    1      -24.608  79.208  32.828  0.00  0.00    +0.157 HD
ATOM      4  O   LIG    1      -23.115  77.157  34.814  0.00  0.00    -0.270 OA
ENDROOT
BRANCH   1  11
ATOM      5  C   LIG    1      -23.338  81.474  36.342  0.00  0.00    +0.019 A 
ATOM      6  C   LIG    1      -21.980  81.818  36.191  0.00  0.00    +0.052 A 
ATOM      7 CL   LIG    1      -21.202  83.125  37.016  0.00  0.00    -0.083 Cl
ATOM      8  C   LIG    1      -21.121  81.059  35.382  0.00  0.00    +0.041 A 
ATOM      9  C   LIG    1      -21.558  79.909  34.732  0.00  0.00    +0.054 A 
ATOM     10 CL   LIG    1      -20.372  79.092  33.783  0.00  0.00    -0.083 Cl
ATOM     11  C   LIG    1      -22.881  79.489  34.894  0.00  0.00    +0.056 A 
ATOM     12  C   LIG    1      -23.746  80.293  35.675  0.00  0.00    +0.026 A 
BRANCH   5  15
ATOM     13  C   LIG    1      -26.200  83.676  37.027  0.00  0.00    +0.068 A 
ATOM     14  N   LIG    1      -25.289  82.879  36.400  0.00  0.00    -0.249 NA
ATOM     15  C   LIG    1      -24.350  82.225  37.140  0.00  0.00    +0.073 A 
ATOM     16  C   LIG    1      -24.335  82.344  38.527  0.00  0.00    +0.028 A 
ATOM     17  C   LIG    1      -25.306  83.109  39.168  0.00  0.00    +0.004 A 
ATOM     18  C   LIG    1      -26.245  83.792  38.412  0.00  0.00    +0.026 A 
BRANCH  13  19
ATOM     19  C   LIG    1      -27.194  84.446  36.178  0.00  0.00    +0.214 C 
BRANCH  19  21
ATOM     20  C   LIG    1      -27.608  86.475  35.048  0.00  0.00    +0.194 C 
ATOM     21  O   LIG    1      -26.666  85.722  35.803  0.00  0.00    -0.377 OA
ENDBRANCH  19  21
ENDBRANCH  13  19
ENDBRANCH   5  15
ENDBRANCH   1  11
BRANCH   2  22
ATOM     22  C   LIG    1      -24.953  77.178  32.658  0.00  0.00    +0.129 A 
ATOM     23  N   LIG    1      -24.462  76.293  31.704  0.00  0.00    -0.218 N 
ATOM     24  N   LIG    1      -25.398  75.347  31.370  0.00  0.00    -0.160 NA
ATOM     25  C   LIG    1      -26.451  75.593  32.180  0.00  0.00    +0.149 A 
ATOM     26  C   LIG    1      -26.249  76.792  32.874  0.00  0.00    +0.078 A 
BRANCH  23  27
ATOM     27  C   LIG    1      -23.162  76.256  31.128  0.00  0.00    +0.067 A 
ATOM     28  C   LIG    1      -22.131  75.573  31.790  0.00  0.00    +0.028 A 
ATOM     29  C   LIG    1      -20.842  75.553  31.247  0.00  0.00    +0.002 A 
ATOM     30  C   LIG    1      -20.570  76.234  30.061  0.00  0.00    +0.000 A 
ATOM     31  C   LIG    1      -21.590  76.915  29.401  0.00  0.00    +0.002 A 
ATOM     32  C   LIG    1      -22.885  76.923  29.927  0.00  0.00    +0.028 A 
ENDBRANCH  23  27
BRANCH  25  33
ATOM     33  C   LIG    1      -27.604  74.682  32.231  0.00  0.00    +0.236 C 
ATOM     34  N   LIG    1      -28.831  74.911  31.949  0.00  0.00    -0.247 NA
BRANCH  33  35
ATOM     35  O   LIG    1      -27.287  73.437  32.663  0.00  0.00    -0.491 OA
ATOM     36  H   LIG    1      -28.071  73.023  33.065  0.00  0.00    +0.294 HD
ENDBRANCH  33  35
BRANCH  34  37
ATOM     37  C   LIG    1      -29.361  76.183  31.490  0.00  0.00    +0.173 C 
BRANCH  37  38
ATOM     38  C   LIG    1      -30.210  76.836  32.585  0.00  0.00    +0.179 C 
BRANCH  38  39
ATOM     39  O   LIG    1      -29.610  78.043  33.034  0.00  0.00    -0.393 OA
ATOM     40  H   LIG    1      -30.306  78.576  33.456  0.00  0.00    +0.209 HD
ENDBRANCH  38  39
ENDBRANCH  37  38
ENDBRANCH  34  37
ENDBRANCH  25  33
ENDBRANCH   2  22
TORSDOF 11
ENDMDL
MODEL 8
REMARK VINA RESULT:      -6.2      2.796      5.052
REMARK  Name = pdb/CHEMBL3952980.pdb
REMARK                            x       y       z     vdW  Elec       q    Type
REMARK                         _______ _______ _______ _____ _____    ______ ____
ROOT
ATOM      1  C   LIG    1      -38.013  73.775  26.299  0.00  0.00    +0.251 C 
ATOM      2  N   LIG    1      -37.122  74.787  25.751  0.00  0.00    -0.266 N 
ATOM      3  H   LIG    1      -36.671  74.640  24.849  0.00  0.00    +0.157 HD
ATOM      4  O   LIG    1      -38.604  73.961  27.335  0.00  0.00    -0.270 OA
ENDROOT
BRANCH   1  11
ATOM      5  C   LIG    1      -39.697  71.450  23.797  0.00  0.00    +0.019 A 
ATOM      6  C   LIG    1      -38.770  70.390  23.767  0.00  0.00    +0.052 A 
ATOM      7 CL   LIG    1      -38.841  69.055  22.670  0.00  0.00    -0.083 Cl
ATOM      8  C   LIG    1      -37.650  70.377  24.614  0.00  0.00    +0.041 A 
ATOM      9  C   LIG    1      -37.381  71.429  25.484  0.00  0.00    +0.054 A 
ATOM     10 CL   LIG    1      -35.962  71.254  26.448  0.00  0.00    -0.083 Cl
ATOM     11  C   LIG    1      -38.237  72.533  25.512  0.00  0.00    +0.056 A 
ATOM     12  C   LIG    1      -39.386  72.508  24.686  0.00  0.00    +0.026 A 
BRANCH   5  15
ATOM     13  C   LIG    1      -42.783  72.911  22.437  0.00  0.00    +0.068 A 
ATOM     14  N   LIG    1      -41.586  72.748  23.068  0.00  0.00    -0.249 NA
ATOM     15  C   LIG    1      -40.938  71.553  22.976  0.00  0.00    +0.073 A 
ATOM     16  C   LIG    1      -41.476  70.514  22.220  0.00  0.00    +0.028 A 
ATOM     17  C   LIG    1      -42.668  70.707  21.527  0.00  0.00    +0.004 A 
ATOM     18  C   LIG    1      -43.336  71.915  21.641  0.00  0.00    +0.026 A 
BRANCH  13  19
ATOM     19  C   LIG    1      -43.518  74.228  22.608  0.00  0.00    +0.214 C 
BRANCH  19  21
ATOM     20  C   LIG    1      -43.527  75.502  24.594  0.00  0.00    +0.194 C 
ATOM     21  O   LIG    1      -42.777  75.121  23.446  0.00  0.00    -0.377 OA
ENDBRANCH  19  21
ENDBRANCH  13  19
ENDBRANCH   5  15
ENDBRANCH   1  11
BRANCH   2  22
ATOM     22  C   LIG    1      -36.856  75.987  26.406  0.00  0.00    +0.129 A 
ATOM     23  N   LIG    1      -37.479  77.227  26.314  0.00  0.00    -0.218 N 
ATOM     24  N   LIG    1      -36.852  78.162  27.098  0.00  0.00    -0.160 NA
ATOM     25  C   LIG    1      -35.880  77.483  27.746  0.00  0.00    +0.149 A 
ATOM     26  C   LIG    1      -35.781  76.185  27.230  0.00  0.00    +0.078 A 
BRANCH  23  27
ATOM     27  C   LIG    1      -38.647  77.570  25.577  0.00  0.00    +0.067 A 
ATOM     28  C   LIG    1      -39.784  78.030  26.258  0.00  0.00    +0.028 A 
ATOM     29  C   LIG    1      -40.948  78.343  25.547  0.00  0.00    +0.002 A 
ATOM     30  C   LIG    1      -40.991  78.175  24.163  0.00  0.00    +0.000 A 
ATOM     31  C   LIG    1      -39.865  77.717  23.483  0.00  0.00    +0.002 A 
ATOM     32  C   LIG    1      -38.693  77.420  24.184  0.00  0.00    +0.028 A 
ENDBRANCH  23  27
BRANCH  25  33
ATOM     33  C   LIG    1      -35.084  78.116  28.807  0.00  0.00    +0.236 C 
ATOM     34  N   LIG    1      -33.822  78.322  28.860  0.00  0.00    -0.247 NA
BRANCH  33  35
ATOM     35  O   LIG    1      -35.822  78.505  29.874  0.00  0.00    -0.491 OA
ATOM     36  H   LIG    1      -35.834  79.477  29.924  0.00  0.00    +0.294 HD
ENDBRANCH  33  35
BRANCH  34  37
ATOM     37  C   LIG    1      -32.871  77.960  27.823  0.00  0.00    +0.173 C 
BRANCH  37  38
ATOM     38  C   LIG    1      -32.582  79.160  26.917  0.00  0.00    +0.179 C 
BRANCH  38  39
ATOM     39  O   LIG    1      -32.311  78.734  25.589  0.00  0.00    -0.393 OA
ATOM     40  H   LIG    1      -32.947  78.029  25.373  0.00  0.00    +0.209 HD
ENDBRANCH  38  39
ENDBRANCH  37  38
ENDBRANCH  34  37
ENDBRANCH  25  33
ENDBRANCH   2  22
TORSDOF 11
ENDMDL
MODEL 9
REMARK VINA RESULT:      -6.1      3.583      8.812
REMARK  Name = pdb/CHEMBL3952980.pdb
REMARK                            x       y       z     vdW  Elec       q    Type
REMARK                         _______ _______ _______ _____ _____    ______ ____
ROOT
ATOM      1  C   LIG    1      -35.594  70.713  26.446  0.00  0.00    +0.251 C 
ATOM      2  N   LIG    1      -37.030  70.474  26.424  0.00  0.00    -0.266 N 
ATOM      3  H   LIG    1      -37.578  70.565  27.278  0.00  0.00    +0.157 HD
ATOM      4  O   LIG    1      -34.940  70.671  25.431  0.00  0.00    -0.270 OA
ENDROOT
BRANCH   1  11
ATOM      5  C   LIG    1      -33.854  72.936  29.001  0.00  0.00    +0.019 A 
ATOM      6  C   LIG    1      -33.897  72.104  30.137  0.00  0.00    +0.052 A 
ATOM      7 CL   LIG    1      -33.426  72.591  31.728  0.00  0.00    -0.083 Cl
ATOM      8  C   LIG    1      -34.402  70.797  30.064  0.00  0.00    +0.041 A 
ATOM      9  C   LIG    1      -34.925  70.281  28.882  0.00  0.00    +0.054 A 
ATOM     10 CL   LIG    1      -35.509  68.661  28.969  0.00  0.00    -0.083 Cl
ATOM     11  C   LIG    1      -34.961  71.085  27.739  0.00  0.00    +0.056 A 
ATOM     12  C   LIG    1      -34.405  72.384  27.818  0.00  0.00    +0.026 A 
BRANCH   5  15
ATOM     13  C   LIG    1      -33.713  76.529  28.240  0.00  0.00    +0.068 A 
ATOM     14  N   LIG    1      -34.152  75.252  28.424  0.00  0.00    -0.249 NA
ATOM     15  C   LIG    1      -33.306  74.322  28.950  0.00  0.00    +0.073 A 
ATOM     16  C   LIG    1      -32.012  74.677  29.325  0.00  0.00    +0.028 A 
ATOM     17  C   LIG    1      -31.589  75.997  29.193  0.00  0.00    +0.004 A 
ATOM     18  C   LIG    1      -32.444  76.934  28.636  0.00  0.00    +0.026 A 
BRANCH  13  19
ATOM     19  C   LIG    1      -34.652  77.531  27.592  0.00  0.00    +0.214 C 
BRANCH  19  21
ATOM     20  C   LIG    1      -36.979  77.436  27.219  0.00  0.00    +0.194 C 
ATOM     21  O   LIG    1      -35.715  76.864  26.905  0.00  0.00    -0.377 OA
ENDBRANCH  19  21
ENDBRANCH  13  19
ENDBRANCH   5  15
ENDBRANCH   1  11
BRANCH   2  22
ATOM     22  C   LIG    1      -37.717  70.132  25.262  0.00  0.00    +0.129 A 
ATOM     23  N   LIG    1      -38.529  70.896  24.431  0.00  0.00    -0.218 N 
ATOM     24  N   LIG    1      -39.061  70.139  23.418  0.00  0.00    -0.160 NA
ATOM     25  C   LIG    1      -38.513  68.913  23.569  0.00  0.00    +0.149 A 
ATOM     26  C   LIG    1      -37.798  68.856  24.772  0.00  0.00    +0.078 A 
BRANCH  23  27
ATOM     27  C   LIG    1      -38.793  72.292  24.504  0.00  0.00    +0.067 A 
ATOM     28  C   LIG    1      -40.012  72.791  24.020  0.00  0.00    +0.028 A 
ATOM     29  C   LIG    1      -40.271  74.165  24.062  0.00  0.00    +0.002 A 
ATOM     30  C   LIG    1      -39.311  75.046  24.558  0.00  0.00    +0.000 A 
ATOM     31  C   LIG    1      -38.099  74.555  25.038  0.00  0.00    +0.002 A 
ATOM     32  C   LIG    1      -37.840  73.182  25.018  0.00  0.00    +0.028 A 
ENDBRANCH  23  27
BRANCH  25  33
ATOM     33  C   LIG    1      -38.720  67.856  22.569  0.00  0.00    +0.236 C 
ATOM     34  N   LIG    1      -37.946  67.472  21.624  0.00  0.00    -0.247 NA
BRANCH  33  35
ATOM     35  O   LIG    1      -39.919  67.235  22.681  0.00  0.00    -0.491 OA
ATOM     36  H   LIG    1      -40.516  67.778  23.225  0.00  0.00    +0.294 HD
ENDBRANCH  33  35
BRANCH  34  37
ATOM     37  C   LIG    1      -36.635  68.028  21.338  0.00  0.00    +0.173 C 
BRANCH  37  38
ATOM     38  C   LIG    1      -35.546  67.235  22.067  0.00  0.00    +0.179 C 
BRANCH  38  39
ATOM     39  O   LIG    1      -34.823  68.075  22.956  0.00  0.00    -0.393 OA
ATOM     40  H   LIG    1      -35.078  68.994  22.762  0.00  0.00    +0.209 HD
ENDBRANCH  38  39
ENDBRANCH  37  38
ENDBRANCH  34  37
ENDBRANCH  25  33
ENDBRANCH   2  22
TORSDOF 11
ENDMDL
