MODEL 1
REMARK VINA RESULT:      -5.4      0.000      0.000
REMARK  Name = pdb/CHEMBL3676028.pdb
REMARK                            x       y       z     vdW  Elec       q    Type
REMARK                         _______ _______ _______ _____ _____    ______ ____
ROOT
ATOM      1  C   LIG    1      -23.267  79.297  34.629  0.00  0.00    +0.126 A 
ATOM      2  N   LIG    1      -23.519  78.753  33.458  0.00  0.00    -0.212 NA
ATOM      3  C   LIG    1      -24.737  78.150  33.271  0.00  0.00    +0.170 A 
ATOM      4  C   LIG    1      -25.295  77.502  32.182  0.00  0.00    +0.100 A 
ATOM      5  C   LIG    1      -26.583  77.128  32.608  0.00  0.00    +0.150 A 
ATOM      6  N   LIG    1      -26.833  77.467  33.872  0.00  0.00    -0.173 NA
ATOM      7  N   LIG    1      -25.707  78.104  34.272  0.00  0.00    -0.221 N 
ATOM      8  C   LIG    1      -25.458  78.666  35.511  0.00  0.00    +0.118 A 
ATOM      9  C   LIG    1      -24.291  79.271  35.751  0.00  0.00    +0.063 A 
ENDROOT
BRANCH   1  11
ATOM     10  C   LIG    1      -20.904  79.180  35.512  0.00  0.00    +0.110 C 
ATOM     11  N   LIG    1      -22.033  79.903  34.855  0.00  0.00    -0.308 N 
ATOM     12  C   LIG    1      -21.939  81.340  35.144  0.00  0.00    +0.107 C 
ATOM     13  C   LIG    1      -21.075  81.419  36.388  0.00  0.00    +0.021 C 
ATOM     14  C   LIG    1      -20.070  80.308  36.158  0.00  0.00    +0.029 C 
BRANCH  10  16
ATOM     15  C   LIG    1      -20.083  76.978  34.502  0.00  0.00    +0.220 A 
ATOM     16  C   LIG    1      -20.044  78.380  34.549  0.00  0.00    +0.037 A 
ATOM     17  C   LIG    1      -19.097  79.005  33.720  0.00  0.00    +0.050 A 
ATOM     18  C   LIG    1      -18.266  78.241  32.910  0.00  0.00    +0.142 A 
ATOM     19  F   LIG    1      -17.366  78.832  32.116  0.00  0.00    -0.204 F 
ATOM     20  C   LIG    1      -18.373  76.868  32.949  0.00  0.00    +0.153 A 
ATOM     21  N   LIG    1      -19.259  76.221  33.733  0.00  0.00    -0.218 NA
BRANCH  15  23
ATOM     22  C   LIG    1      -22.017  75.659  34.546  0.00  0.00    +0.279 C 
ATOM     23  O   LIG    1      -20.990  76.312  35.304  0.00  0.00    -0.479 OA
ENDBRANCH  15  23
ENDBRANCH  10  16
ENDBRANCH   1  11
BRANCH   4  24
ATOM     24  C   LIG    1      -24.711  77.260  30.892  0.00  0.00    +0.249 C 
ATOM     25  N   LIG    1      -23.339  77.260  30.858  0.00  0.00    -0.309 N 
ATOM     26  H   LIG    1      -22.853  77.530  31.708  0.00  0.00    +0.149 HD
ATOM     27  O   LIG    1      -25.406  77.060  29.891  0.00  0.00    -0.270 OA
BRANCH  25  28
ATOM     28  C   LIG    1      -22.593  77.015  29.639  0.00  0.00    +0.135 C 
BRANCH  28  29
ATOM     29  C   LIG    1      -21.306  76.227  29.907  0.00  0.00    +0.128 C 
ATOM     30  C   LIG    1      -20.074  77.093  29.701  0.00  0.00    +0.039 C 
BRANCH  29  31
ATOM     31  O   LIG    1      -21.238  75.713  31.235  0.00  0.00    -0.391 OA
ATOM     32  H   LIG    1      -20.577  74.998  31.242  0.00  0.00    +0.210 HD
ENDBRANCH  29  31
ENDBRANCH  28  29
ENDBRANCH  25  28
ENDBRANCH   4  24
TORSDOF 7
ENDMDL
MODEL 2
REMARK VINA RESULT:      -5.4     13.349     17.439
REMARK  Name = pdb/CHEMBL3676028.pdb
REMARK                            x       y       z     vdW  Elec       q    Type
REMARK                         _______ _______ _______ _____ _____    ______ ____
ROOT
ATOM      1  C   LIG    1      -38.874  78.984  27.117  0.00  0.00    +0.126 A 
ATOM      2  N   LIG    1      -37.580  79.210  27.201  0.00  0.00    -0.212 NA
ATOM      3  C   LIG    1      -37.031  79.387  28.446  0.00  0.00    +0.170 A 
ATOM      4  C   LIG    1      -35.734  79.636  28.861  0.00  0.00    +0.100 A 
ATOM      5  C   LIG    1      -35.812  79.688  30.266  0.00  0.00    +0.150 A 
ATOM      6  N   LIG    1      -37.051  79.525  30.726  0.00  0.00    -0.173 NA
ATOM      7  N   LIG    1      -37.795  79.329  29.611  0.00  0.00    -0.221 N 
ATOM      8  C   LIG    1      -39.156  79.097  29.543  0.00  0.00    +0.118 A 
ATOM      9  C   LIG    1      -39.746  78.913  28.358  0.00  0.00    +0.063 A 
ENDROOT
BRANCH   1  11
ATOM     10  C   LIG    1      -38.751  78.148  24.737  0.00  0.00    +0.110 C 
ATOM     11  N   LIG    1      -39.463  78.817  25.866  0.00  0.00    -0.308 N 
ATOM     12  C   LIG    1      -40.411  79.806  25.339  0.00  0.00    +0.107 C 
ATOM     13  C   LIG    1      -39.903  80.110  23.943  0.00  0.00    +0.021 C 
ATOM     14  C   LIG    1      -39.403  78.758  23.477  0.00  0.00    +0.029 C 
BRANCH  10  16
ATOM     15  C   LIG    1      -37.880  75.780  25.163  0.00  0.00    +0.220 A 
ATOM     16  C   LIG    1      -38.902  76.637  24.724  0.00  0.00    +0.037 A 
ATOM     17  C   LIG    1      -40.042  76.019  24.184  0.00  0.00    +0.050 A 
ATOM     18  C   LIG    1      -40.118  74.634  24.110  0.00  0.00    +0.142 A 
ATOM     19  F   LIG    1      -41.203  74.041  23.600  0.00  0.00    -0.204 F 
ATOM     20  C   LIG    1      -39.051  73.882  24.554  0.00  0.00    +0.153 A 
ATOM     21  N   LIG    1      -37.933  74.427  25.073  0.00  0.00    -0.218 NA
BRANCH  15  23
ATOM     22  C   LIG    1      -36.491  75.911  27.044  0.00  0.00    +0.279 C 
ATOM     23  O   LIG    1      -36.732  76.336  25.695  0.00  0.00    -0.479 OA
ENDBRANCH  15  23
ENDBRANCH  10  16
ENDBRANCH   1  11
BRANCH   4  24
ATOM     24  C   LIG    1      -34.555  79.800  28.058  0.00  0.00    +0.249 C 
ATOM     25  N   LIG    1      -33.462  79.076  28.463  0.00  0.00    -0.309 N 
ATOM     26  H   LIG    1      -33.538  78.572  29.342  0.00  0.00    +0.149 HD
ATOM     27  O   LIG    1      -34.540  80.538  27.068  0.00  0.00    -0.270 OA
BRANCH  25  28
ATOM     28  C   LIG    1      -32.199  79.114  27.753  0.00  0.00    +0.135 C 
BRANCH  28  29
ATOM     29  C   LIG    1      -32.141  78.067  26.635  0.00  0.00    +0.128 C 
ATOM     30  C   LIG    1      -32.956  76.833  26.990  0.00  0.00    +0.039 C 
BRANCH  29  31
ATOM     31  O   LIG    1      -32.641  78.555  25.393  0.00  0.00    -0.391 OA
ATOM     32  H   LIG    1      -33.580  78.307  25.334  0.00  0.00    +0.210 HD
ENDBRANCH  29  31
ENDBRANCH  28  29
ENDBRANCH  25  28
ENDBRANCH   4  24
TORSDOF 7
ENDMDL
MODEL 3
REMARK VINA RESULT:      -5.2      2.463      5.011
REMARK  Name = pdb/CHEMBL3676028.pdb
REMARK                            x       y       z     vdW  Elec       q    Type
REMARK                         _______ _______ _______ _____ _____    ______ ____
ROOT
ATOM      1  C   LIG    1      -21.026  79.076  33.847  0.00  0.00    +0.126 A 
ATOM      2  N   LIG    1      -21.426  78.322  32.846  0.00  0.00    -0.212 NA
ATOM      3  C   LIG    1      -20.474  77.792  32.012  0.00  0.00    +0.170 A 
ATOM      4  C   LIG    1      -20.567  76.978  30.896  0.00  0.00    +0.100 A 
ATOM      5  C   LIG    1      -19.234  76.758  30.501  0.00  0.00    +0.150 A 
ATOM      6  N   LIG    1      -18.351  77.399  31.265  0.00  0.00    -0.173 NA
ATOM      7  N   LIG    1      -19.111  78.021  32.197  0.00  0.00    -0.221 N 
ATOM      8  C   LIG    1      -18.673  78.814  33.241  0.00  0.00    +0.118 A 
ATOM      9  C   LIG    1      -19.553  79.356  34.088  0.00  0.00    +0.063 A 
ENDROOT
BRANCH   1  11
ATOM     10  C   LIG    1      -21.930  79.428  36.179  0.00  0.00    +0.110 C 
ATOM     11  N   LIG    1      -21.970  79.642  34.702  0.00  0.00    -0.308 N 
ATOM     12  C   LIG    1      -23.357  79.847  34.266  0.00  0.00    +0.107 C 
ATOM     13  C   LIG    1      -24.195  79.241  35.376  0.00  0.00    +0.021 C 
ATOM     14  C   LIG    1      -23.402  79.600  36.616  0.00  0.00    +0.029 C 
BRANCH  10  16
ATOM     15  C   LIG    1      -20.176  80.017  37.946  0.00  0.00    +0.220 A 
ATOM     16  C   LIG    1      -21.047  80.417  36.919  0.00  0.00    +0.037 A 
ATOM     17  C   LIG    1      -21.126  81.798  36.673  0.00  0.00    +0.050 A 
ATOM     18  C   LIG    1      -20.366  82.686  37.424  0.00  0.00    +0.142 A 
ATOM     19  F   LIG    1      -20.436  84.002  37.190  0.00  0.00    -0.204 F 
ATOM     20  C   LIG    1      -19.553  82.193  38.421  0.00  0.00    +0.153 A 
ATOM     21  N   LIG    1      -19.448  80.878  38.701  0.00  0.00    -0.218 NA
BRANCH  15  23
ATOM     22  C   LIG    1      -18.828  78.110  37.778  0.00  0.00    +0.279 C 
ATOM     23  O   LIG    1      -20.067  78.671  38.235  0.00  0.00    -0.479 OA
ENDBRANCH  15  23
ENDBRANCH  10  16
ENDBRANCH   1  11
BRANCH   4  24
ATOM     24  C   LIG    1      -21.748  76.455  30.269  0.00  0.00    +0.249 C 
ATOM     25  N   LIG    1      -22.736  76.040  31.126  0.00  0.00    -0.309 N 
ATOM     26  H   LIG    1      -22.518  76.036  32.119  0.00  0.00    +0.149 HD
ATOM     27  O   LIG    1      -21.860  76.395  29.040  0.00  0.00    -0.270 OA
BRANCH  25  28
ATOM     28  C   LIG    1      -23.998  75.504  30.657  0.00  0.00    +0.135 C 
BRANCH  28  29
ATOM     29  C   LIG    1      -25.129  76.533  30.758  0.00  0.00    +0.128 C 
ATOM     30  C   LIG    1      -24.946  77.437  31.966  0.00  0.00    +0.039 C 
BRANCH  29  31
ATOM     31  O   LIG    1      -25.213  77.377  29.613  0.00  0.00    -0.391 OA
ATOM     32  H   LIG    1      -26.149  77.613  29.487  0.00  0.00    +0.210 HD
ENDBRANCH  29  31
ENDBRANCH  28  29
ENDBRANCH  25  28
ENDBRANCH   4  24
TORSDOF 7
ENDMDL
MODEL 4
REMARK VINA RESULT:      -5.2     18.943     21.680
REMARK  Name = pdb/CHEMBL3676028.pdb
REMARK                            x       y       z     vdW  Elec       q    Type
REMARK                         _______ _______ _______ _____ _____    ______ ____
ROOT
ATOM      1  C   LIG    1      -23.053  86.376  12.107  0.00  0.00    +0.126 A 
ATOM      2  N   LIG    1      -23.447  85.167  12.444  0.00  0.00    -0.212 NA
ATOM      3  C   LIG    1      -24.263  84.485  11.578  0.00  0.00    +0.170 A 
ATOM      4  C   LIG    1      -24.836  83.226  11.639  0.00  0.00    +0.100 A 
ATOM      5  C   LIG    1      -25.544  83.096  10.430  0.00  0.00    +0.150 A 
ATOM      6  N   LIG    1      -25.472  84.182   9.663  0.00  0.00    -0.173 NA
ATOM      7  N   LIG    1      -24.677  85.027  10.361  0.00  0.00    -0.221 N 
ATOM      8  C   LIG    1      -24.277  86.298   9.992  0.00  0.00    +0.118 A 
ATOM      9  C   LIG    1      -23.479  87.010  10.794  0.00  0.00    +0.063 A 
ENDROOT
BRANCH   1  11
ATOM     10  C   LIG    1      -21.395  86.436  14.011  0.00  0.00    +0.110 C 
ATOM     11  N   LIG    1      -22.236  87.101  12.972  0.00  0.00    -0.308 N 
ATOM     12  C   LIG    1      -22.622  88.442  13.429  0.00  0.00    +0.107 C 
ATOM     13  C   LIG    1      -22.463  88.388  14.936  0.00  0.00    +0.021 C 
ATOM     14  C   LIG    1      -21.235  87.516  15.103  0.00  0.00    +0.029 C 
BRANCH  10  16
ATOM     15  C   LIG    1      -19.623  84.653  13.536  0.00  0.00    +0.220 A 
ATOM     16  C   LIG    1      -20.031  85.996  13.508  0.00  0.00    +0.037 A 
ATOM     17  C   LIG    1      -19.074  86.928  13.074  0.00  0.00    +0.050 A 
ATOM     18  C   LIG    1      -17.806  86.505  12.697  0.00  0.00    +0.142 A 
ATOM     19  F   LIG    1      -16.893  87.389  12.279  0.00  0.00    -0.204 F 
ATOM     20  C   LIG    1      -17.499  85.163  12.776  0.00  0.00    +0.153 A 
ATOM     21  N   LIG    1      -18.379  84.231  13.193  0.00  0.00    -0.218 NA
BRANCH  15  23
ATOM     22  C   LIG    1      -19.885  82.456  14.300  0.00  0.00    +0.279 C 
ATOM     23  O   LIG    1      -20.522  83.695  13.963  0.00  0.00    -0.479 OA
ENDBRANCH  15  23
ENDBRANCH  10  16
ENDBRANCH   1  11
BRANCH   4  24
ATOM     24  C   LIG    1      -24.738  82.251  12.688  0.00  0.00    +0.249 C 
ATOM     25  N   LIG    1      -23.521  82.186  13.319  0.00  0.00    -0.309 N 
ATOM     26  H   LIG    1      -22.766  82.746  12.932  0.00  0.00    +0.149 HD
ATOM     27  O   LIG    1      -25.692  81.531  12.999  0.00  0.00    -0.270 OA
BRANCH  25  28
ATOM     28  C   LIG    1      -23.259  81.268  14.410  0.00  0.00    +0.135 C 
BRANCH  28  29
ATOM     29  C   LIG    1      -23.317  81.969  15.772  0.00  0.00    +0.128 C 
ATOM     30  C   LIG    1      -22.313  81.370  16.744  0.00  0.00    +0.039 C 
BRANCH  29  31
ATOM     31  O   LIG    1      -23.036  83.364  15.688  0.00  0.00    -0.391 OA
ATOM     32  H   LIG    1      -22.274  83.477  15.094  0.00  0.00    +0.210 HD
ENDBRANCH  29  31
ENDBRANCH  28  29
ENDBRANCH  25  28
ENDBRANCH   4  24
TORSDOF 7
ENDMDL
MODEL 5
REMARK VINA RESULT:      -5.1     18.442     21.707
REMARK  Name = pdb/CHEMBL3676028.pdb
REMARK                            x       y       z     vdW  Elec       q    Type
REMARK                         _______ _______ _______ _____ _____    ______ ____
ROOT
ATOM      1  C   LIG    1      -20.363  82.134  13.780  0.00  0.00    +0.126 A 
ATOM      2  N   LIG    1      -20.037  83.408  13.756  0.00  0.00    -0.212 NA
ATOM      3  C   LIG    1      -18.919  83.779  13.053  0.00  0.00    +0.170 A 
ATOM      4  C   LIG    1      -18.324  85.011  12.839  0.00  0.00    +0.100 A 
ATOM      5  C   LIG    1      -17.220  84.735  12.009  0.00  0.00    +0.150 A 
ATOM      6  N   LIG    1      -17.083  83.439  11.736  0.00  0.00    -0.173 NA
ATOM      7  N   LIG    1      -18.131  82.857  12.365  0.00  0.00    -0.221 N 
ATOM      8  C   LIG    1      -18.456  81.513  12.383  0.00  0.00    +0.118 A 
ATOM      9  C   LIG    1      -19.535  81.091  13.049  0.00  0.00    +0.063 A 
ENDROOT
BRANCH   1  11
ATOM     10  C   LIG    1      -22.717  82.559  14.590  0.00  0.00    +0.110 C 
ATOM     11  N   LIG    1      -21.483  81.723  14.500  0.00  0.00    -0.308 N 
ATOM     12  C   LIG    1      -21.345  80.908  15.713  0.00  0.00    +0.107 C 
ATOM     13  C   LIG    1      -22.189  81.626  16.749  0.00  0.00    +0.021 C 
ATOM     14  C   LIG    1      -23.360  82.125  15.925  0.00  0.00    +0.029 C 
BRANCH  10  16
ATOM     15  C   LIG    1      -23.850  83.277  12.411  0.00  0.00    +0.220 A 
ATOM     16  C   LIG    1      -23.691  82.341  13.446  0.00  0.00    +0.037 A 
ATOM     17  C   LIG    1      -24.552  81.231  13.417  0.00  0.00    +0.050 A 
ATOM     18  C   LIG    1      -25.491  81.100  12.402  0.00  0.00    +0.142 A 
ATOM     19  F   LIG    1      -26.309  80.042  12.368  0.00  0.00    -0.204 F 
ATOM     20  C   LIG    1      -25.576  82.084  11.440  0.00  0.00    +0.153 A 
ATOM     21  N   LIG    1      -24.780  83.172  11.428  0.00  0.00    -0.218 NA
BRANCH  15  23
ATOM     22  C   LIG    1      -23.743  85.584  12.025  0.00  0.00    +0.279 C 
ATOM     23  O   LIG    1      -23.035  84.393  12.397  0.00  0.00    -0.479 OA
ENDBRANCH  15  23
ENDBRANCH  10  16
ENDBRANCH   1  11
BRANCH   4  24
ATOM     24  C   LIG    1      -18.728  86.296  13.334  0.00  0.00    +0.249 C 
ATOM     25  N   LIG    1      -19.797  86.285  14.195  0.00  0.00    -0.309 N 
ATOM     26  H   LIG    1      -20.277  85.399  14.329  0.00  0.00    +0.149 HD
ATOM     27  O   LIG    1      -18.142  87.333  13.007  0.00  0.00    -0.270 OA
BRANCH  25  28
ATOM     28  C   LIG    1      -20.321  87.495  14.798  0.00  0.00    +0.135 C 
BRANCH  28  29
ATOM     29  C   LIG    1      -21.853  87.488  14.852  0.00  0.00    +0.128 C 
ATOM     30  C   LIG    1      -22.380  86.184  15.429  0.00  0.00    +0.039 C 
BRANCH  29  31
ATOM     31  O   LIG    1      -22.383  88.543  15.651  0.00  0.00    -0.391 OA
ATOM     32  H   LIG    1      -23.331  88.366  15.784  0.00  0.00    +0.210 HD
ENDBRANCH  29  31
ENDBRANCH  28  29
ENDBRANCH  25  28
ENDBRANCH   4  24
TORSDOF 7
ENDMDL
MODEL 6
REMARK VINA RESULT:      -5.0     14.300     18.222
REMARK  Name = pdb/CHEMBL3676028.pdb
REMARK                            x       y       z     vdW  Elec       q    Type
REMARK                         _______ _______ _______ _____ _____    ______ ____
ROOT
ATOM      1  C   LIG    1      -39.773  79.040  25.091  0.00  0.00    +0.126 A 
ATOM      2  N   LIG    1      -38.822  78.686  25.929  0.00  0.00    -0.212 NA
ATOM      3  C   LIG    1      -38.277  77.433  25.801  0.00  0.00    +0.170 A 
ATOM      4  C   LIG    1      -37.285  76.776  26.509  0.00  0.00    +0.100 A 
ATOM      5  C   LIG    1      -37.161  75.526  25.875  0.00  0.00    +0.150 A 
ATOM      6  N   LIG    1      -38.018  75.364  24.869  0.00  0.00    -0.173 NA
ATOM      7  N   LIG    1      -38.692  76.537  24.816  0.00  0.00    -0.221 N 
ATOM      8  C   LIG    1      -39.693  76.890  23.930  0.00  0.00    +0.118 A 
ATOM      9  C   LIG    1      -40.259  78.098  24.003  0.00  0.00    +0.063 A 
ENDROOT
BRANCH   1  11
ATOM     10  C   LIG    1      -39.905  81.294  26.223  0.00  0.00    +0.110 C 
ATOM     11  N   LIG    1      -40.357  80.299  25.205  0.00  0.00    -0.308 N 
ATOM     12  C   LIG    1      -41.782  80.500  24.913  0.00  0.00    +0.107 C 
ATOM     13  C   LIG    1      -42.313  81.253  26.118  0.00  0.00    +0.021 C 
ATOM     14  C   LIG    1      -41.155  82.167  26.466  0.00  0.00    +0.029 C 
BRANCH  10  16
ATOM     15  C   LIG    1      -37.545  82.245  26.487  0.00  0.00    +0.220 A 
ATOM     16  C   LIG    1      -38.744  82.158  25.763  0.00  0.00    +0.037 A 
ATOM     17  C   LIG    1      -38.851  82.988  24.634  0.00  0.00    +0.050 A 
ATOM     18  C   LIG    1      -37.804  83.831  24.285  0.00  0.00    +0.142 A 
ATOM     19  F   LIG    1      -37.899  84.621  23.209  0.00  0.00    -0.204 F 
ATOM     20  C   LIG    1      -36.673  83.853  25.072  0.00  0.00    +0.153 A 
ATOM     21  N   LIG    1      -36.525  83.082  26.169  0.00  0.00    -0.218 NA
BRANCH  15  23
ATOM     22  C   LIG    1      -37.282  82.231  28.813  0.00  0.00    +0.279 C 
ATOM     23  O   LIG    1      -37.391  81.456  27.611  0.00  0.00    -0.479 OA
ENDBRANCH  15  23
ENDBRANCH  10  16
ENDBRANCH   1  11
BRANCH   4  24
ATOM     24  C   LIG    1      -36.531  77.248  27.636  0.00  0.00    +0.249 C 
ATOM     25  N   LIG    1      -35.981  78.498  27.495  0.00  0.00    -0.309 N 
ATOM     26  H   LIG    1      -36.059  78.939  26.583  0.00  0.00    +0.149 HD
ATOM     27  O   LIG    1      -36.399  76.571  28.660  0.00  0.00    -0.270 OA
BRANCH  25  28
ATOM     28  C   LIG    1      -35.205  79.128  28.544  0.00  0.00    +0.135 C 
BRANCH  28  29
ATOM     29  C   LIG    1      -34.047  79.958  27.978  0.00  0.00    +0.128 C 
ATOM     30  C   LIG    1      -33.003  79.071  27.318  0.00  0.00    +0.039 C 
BRANCH  29  31
ATOM     31  O   LIG    1      -34.471  80.904  26.999  0.00  0.00    -0.391 OA
ATOM     32  H   LIG    1      -35.384  80.679  26.747  0.00  0.00    +0.210 HD
ENDBRANCH  29  31
ENDBRANCH  28  29
ENDBRANCH  25  28
ENDBRANCH   4  24
TORSDOF 7
ENDMDL
MODEL 7
REMARK VINA RESULT:      -5.0     14.468     18.666
REMARK  Name = pdb/CHEMBL3676028.pdb
REMARK                            x       y       z     vdW  Elec       q    Type
REMARK                         _______ _______ _______ _____ _____    ______ ____
ROOT
ATOM      1  C   LIG    1      -39.488  76.574  26.737  0.00  0.00    +0.126 A 
ATOM      2  N   LIG    1      -38.416  77.301  26.971  0.00  0.00    -0.212 NA
ATOM      3  C   LIG    1      -37.747  77.108  28.153  0.00  0.00    +0.170 A 
ATOM      4  C   LIG    1      -36.613  77.700  28.685  0.00  0.00    +0.100 A 
ATOM      5  C   LIG    1      -36.416  77.050  29.918  0.00  0.00    +0.150 A 
ATOM      6  N   LIG    1      -37.353  76.144  30.186  0.00  0.00    -0.173 NA
ATOM      7  N   LIG    1      -38.160  76.171  29.099  0.00  0.00    -0.221 N 
ATOM      8  C   LIG    1      -39.287  75.402  28.873  0.00  0.00    +0.118 A 
ATOM      9  C   LIG    1      -39.978  75.542  27.738  0.00  0.00    +0.063 A 
ENDROOT
BRANCH   1  11
ATOM     10  C   LIG    1      -39.759  76.149  24.262  0.00  0.00    +0.110 C 
ATOM     11  N   LIG    1      -40.199  76.757  25.553  0.00  0.00    -0.308 N 
ATOM     12  C   LIG    1      -40.922  78.008  25.292  0.00  0.00    +0.107 C 
ATOM     13  C   LIG    1      -40.470  78.425  23.906  0.00  0.00    +0.021 C 
ATOM     14  C   LIG    1      -40.345  77.094  23.191  0.00  0.00    +0.029 C 
BRANCH  10  16
ATOM     15  C   LIG    1      -39.482  73.607  24.339  0.00  0.00    +0.220 A 
ATOM     16  C   LIG    1      -40.266  74.735  24.045  0.00  0.00    +0.037 A 
ATOM     17  C   LIG    1      -41.514  74.487  23.450  0.00  0.00    +0.050 A 
ATOM     18  C   LIG    1      -41.917  73.183  23.187  0.00  0.00    +0.142 A 
ATOM     19  F   LIG    1      -43.107  72.943  22.624  0.00  0.00    -0.204 F 
ATOM     20  C   LIG    1      -41.066  72.146  23.500  0.00  0.00    +0.153 A 
ATOM     21  N   LIG    1      -39.855  72.331  24.064  0.00  0.00    -0.218 NA
BRANCH  15  23
ATOM     22  C   LIG    1      -37.828  72.669  25.704  0.00  0.00    +0.279 C 
ATOM     23  O   LIG    1      -38.241  73.795  24.917  0.00  0.00    -0.479 OA
ENDBRANCH  15  23
ENDBRANCH  10  16
ENDBRANCH   1  11
BRANCH   4  24
ATOM     24  C   LIG    1      -35.800  78.739  28.119  0.00  0.00    +0.249 C 
ATOM     25  N   LIG    1      -34.445  78.543  28.215  0.00  0.00    -0.309 N 
ATOM     26  H   LIG    1      -34.127  77.747  28.761  0.00  0.00    +0.149 HD
ATOM     27  O   LIG    1      -36.296  79.732  27.578  0.00  0.00    -0.270 OA
BRANCH  25  28
ATOM     28  C   LIG    1      -33.484  79.488  27.680  0.00  0.00    +0.135 C 
BRANCH  28  29
ATOM     29  C   LIG    1      -32.340  78.782  26.943  0.00  0.00    +0.128 C 
ATOM     30  C   LIG    1      -32.415  77.275  27.121  0.00  0.00    +0.039 C 
BRANCH  29  31
ATOM     31  O   LIG    1      -32.345  79.038  25.540  0.00  0.00    -0.391 OA
ATOM     32  H   LIG    1      -32.239  79.998  25.414  0.00  0.00    +0.210 HD
ENDBRANCH  29  31
ENDBRANCH  28  29
ENDBRANCH  25  28
ENDBRANCH   4  24
TORSDOF 7
ENDMDL
MODEL 8
REMARK VINA RESULT:      -4.9      2.453      5.076
REMARK  Name = pdb/CHEMBL3676028.pdb
REMARK                            x       y       z     vdW  Elec       q    Type
REMARK                         _______ _______ _______ _____ _____    ______ ____
ROOT
ATOM      1  C   LIG    1      -20.451  78.876  33.792  0.00  0.00    +0.126 A 
ATOM      2  N   LIG    1      -20.991  78.224  32.784  0.00  0.00    -0.212 NA
ATOM      3  C   LIG    1      -20.157  77.682  31.840  0.00  0.00    +0.170 A 
ATOM      4  C   LIG    1      -20.407  76.956  30.688  0.00  0.00    +0.100 A 
ATOM      5  C   LIG    1      -19.133  76.665  30.165  0.00  0.00    +0.150 A 
ATOM      6  N   LIG    1      -18.141  77.184  30.887  0.00  0.00    -0.173 NA
ATOM      7  N   LIG    1      -18.769  77.795  31.919  0.00  0.00    -0.221 N 
ATOM      8  C   LIG    1      -18.184  78.481  32.968  0.00  0.00    +0.118 A 
ATOM      9  C   LIG    1      -18.946  79.027  33.920  0.00  0.00    +0.063 A 
ENDROOT
BRANCH   1  11
ATOM     10  C   LIG    1      -22.751  79.241  34.770  0.00  0.00    +0.110 C 
ATOM     11  N   LIG    1      -21.273  79.451  34.759  0.00  0.00    -0.308 N 
ATOM     12  C   LIG    1      -20.953  80.761  35.340  0.00  0.00    +0.107 C 
ATOM     13  C   LIG    1      -22.240  81.554  35.218  0.00  0.00    +0.021 C 
ATOM     14  C   LIG    1      -23.297  80.500  35.479  0.00  0.00    +0.029 C 
BRANCH  10  16
ATOM     15  C   LIG    1      -24.443  77.397  35.301  0.00  0.00    +0.220 A 
ATOM     16  C   LIG    1      -23.188  77.991  35.513  0.00  0.00    +0.037 A 
ATOM     17  C   LIG    1      -22.391  77.420  36.519  0.00  0.00    +0.050 A 
ATOM     18  C   LIG    1      -22.853  76.326  37.240  0.00  0.00    +0.142 A 
ATOM     19  F   LIG    1      -22.095  75.776  38.196  0.00  0.00    -0.204 F 
ATOM     20  C   LIG    1      -24.108  75.826  36.965  0.00  0.00    +0.153 A 
ATOM     21  N   LIG    1      -24.914  76.343  36.016  0.00  0.00    -0.218 NA
BRANCH  15  23
ATOM     22  C   LIG    1      -26.638  77.525  34.498  0.00  0.00    +0.279 C 
ATOM     23  O   LIG    1      -25.271  77.925  34.329  0.00  0.00    -0.479 OA
ENDBRANCH  15  23
ENDBRANCH  10  16
ENDBRANCH   1  11
BRANCH   4  24
ATOM     24  C   LIG    1      -21.673  76.567  30.135  0.00  0.00    +0.249 C 
ATOM     25  N   LIG    1      -22.660  76.305  31.051  0.00  0.00    -0.309 N 
ATOM     26  H   LIG    1      -22.395  76.304  32.033  0.00  0.00    +0.149 HD
ATOM     27  O   LIG    1      -21.853  76.485  28.916  0.00  0.00    -0.270 OA
BRANCH  25  28
ATOM     28  C   LIG    1      -24.001  75.917  30.660  0.00  0.00    +0.135 C 
BRANCH  28  29
ATOM     29  C   LIG    1      -25.050  76.929  31.135  0.00  0.00    +0.128 C 
ATOM     30  C   LIG    1      -24.861  78.279  30.461  0.00  0.00    +0.039 C 
BRANCH  29  31
ATOM     31  O   LIG    1      -26.385  76.510  30.866  0.00  0.00    -0.391 OA
ATOM     32  H   LIG    1      -26.551  75.701  31.380  0.00  0.00    +0.210 HD
ENDBRANCH  29  31
ENDBRANCH  28  29
ENDBRANCH  25  28
ENDBRANCH   4  24
TORSDOF 7
ENDMDL
MODEL 9
REMARK VINA RESULT:      -4.8      2.322      4.239
REMARK  Name = pdb/CHEMBL3676028.pdb
REMARK                            x       y       z     vdW  Elec       q    Type
REMARK                         _______ _______ _______ _____ _____    ______ ____
ROOT
ATOM      1  C   LIG    1      -21.550  78.622  33.455  0.00  0.00    +0.126 A 
ATOM      2  N   LIG    1      -22.511  78.065  32.748  0.00  0.00    -0.212 NA
ATOM      3  C   LIG    1      -22.191  77.529  31.527  0.00  0.00    +0.170 A 
ATOM      4  C   LIG    1      -22.955  76.889  30.566  0.00  0.00    +0.100 A 
ATOM      5  C   LIG    1      -22.041  76.550  29.550  0.00  0.00    +0.150 A 
ATOM      6  N   LIG    1      -20.801  76.963  29.804  0.00  0.00    -0.173 NA
ATOM      7  N   LIG    1      -20.891  77.551  31.021  0.00  0.00    -0.221 N 
ATOM      8  C   LIG    1      -19.870  78.136  31.747  0.00  0.00    +0.118 A 
ATOM      9  C   LIG    1      -20.120  78.672  32.945  0.00  0.00    +0.063 A 
ENDROOT
BRANCH   1  11
ATOM     10  C   LIG    1      -21.734  78.418  35.965  0.00  0.00    +0.110 C 
ATOM     11  N   LIG    1      -21.846  79.190  34.692  0.00  0.00    -0.308 N 
ATOM     12  C   LIG    1      -22.888  80.215  34.823  0.00  0.00    +0.107 C 
ATOM     13  C   LIG    1      -23.757  79.728  35.967  0.00  0.00    +0.021 C 
ATOM     14  C   LIG    1      -22.741  79.113  36.908  0.00  0.00    +0.029 C 
BRANCH  10  16
ATOM     15  C   LIG    1      -19.528  77.298  36.617  0.00  0.00    +0.220 A 
ATOM     16  C   LIG    1      -20.345  78.440  36.577  0.00  0.00    +0.037 A 
ATOM     17  C   LIG    1      -19.844  79.586  37.217  0.00  0.00    +0.050 A 
ATOM     18  C   LIG    1      -18.603  79.552  37.841  0.00  0.00    +0.142 A 
ATOM     19  F   LIG    1      -18.120  80.642  38.449  0.00  0.00    -0.204 F 
ATOM     20  C   LIG    1      -17.885  78.376  37.838  0.00  0.00    +0.153 A 
ATOM     21  N   LIG    1      -18.325  77.247  37.245  0.00  0.00    -0.218 NA
BRANCH  15  23
ATOM     22  C   LIG    1      -19.135  75.730  34.924  0.00  0.00    +0.279 C 
ATOM     23  O   LIG    1      -19.977  76.141  36.011  0.00  0.00    -0.479 OA
ENDBRANCH  15  23
ENDBRANCH  10  16
ENDBRANCH   1  11
BRANCH   4  24
ATOM     24  C   LIG    1      -24.363  76.613  30.583  0.00  0.00    +0.249 C 
ATOM     25  N   LIG    1      -24.797  75.833  31.626  0.00  0.00    -0.309 N 
ATOM     26  H   LIG    1      -24.088  75.432  32.233  0.00  0.00    +0.149 HD
ATOM     27  O   LIG    1      -25.125  77.058  29.719  0.00  0.00    -0.270 OA
BRANCH  25  28
ATOM     28  C   LIG    1      -26.191  75.475  31.801  0.00  0.00    +0.135 C 
BRANCH  28  29
ATOM     29  C   LIG    1      -26.978  76.579  32.517  0.00  0.00    +0.128 C 
ATOM     30  C   LIG    1      -26.134  77.258  33.583  0.00  0.00    +0.039 C 
BRANCH  29  31
ATOM     31  O   LIG    1      -27.431  77.599  31.630  0.00  0.00    -0.391 OA
ATOM     32  H   LIG    1      -26.882  77.558  30.827  0.00  0.00    +0.210 HD
ENDBRANCH  29  31
ENDBRANCH  28  29
ENDBRANCH  25  28
ENDBRANCH   4  24
TORSDOF 7
ENDMDL
