MODEL 1
REMARK VINA RESULT:      -6.2      0.000      0.000
REMARK  Name = pdb/CHEMBL3666427.pdb
REMARK                            x       y       z     vdW  Elec       q    Type
REMARK                         _______ _______ _______ _____ _____    ______ ____
ROOT
ATOM      1  C   LIG    1      -19.797  78.317  32.465  0.00  0.00    +0.053 A 
ATOM      2  C   LIG    1      -20.909  77.759  31.828  0.00  0.00    +0.038 A 
ATOM      3  C   LIG    1      -20.731  76.924  30.718  0.00  0.00    +0.042 A 
ATOM      4  C   LIG    1      -19.434  76.618  30.329  0.00  0.00    +0.122 A 
ATOM      5  N   LIG    1      -18.334  77.145  30.915  0.00  0.00    -0.261 NA
ATOM      6  C   LIG    1      -18.541  77.991  31.957  0.00  0.00    +0.134 A 
ENDROOT
BRANCH   1   8
ATOM      7  C   LIG    1      -19.721  78.897  34.889  0.00  0.00    +0.267 C 
ATOM      8  N   LIG    1      -20.023  79.167  33.565  0.00  0.00    -0.279 N 
ATOM      9  H   LIG    1      -20.458  80.073  33.410  0.00  0.00    +0.155 HD
ATOM     10  O   LIG    1      -19.202  77.875  35.319  0.00  0.00    -0.268 OA
BRANCH   7  13
ATOM     11  C   LIG    1      -21.596  81.731  36.509  0.00  0.00    -0.044 A 
ATOM     12  C   LIG    1      -21.251  80.722  35.614  0.00  0.00    +0.036 A 
ATOM     13  C   LIG    1      -20.079  80.002  35.830  0.00  0.00    +0.126 A 
ATOM     14  N   LIG    1      -19.224  80.228  36.869  0.00  0.00    -0.250 NA
ATOM     15  C   LIG    1      -19.583  81.221  37.720  0.00  0.00    +0.112 A 
ATOM     16  C   LIG    1      -20.741  81.983  37.582  0.00  0.00    +0.023 A 
BRANCH  11  18
ATOM     17  C   LIG    1      -24.112  81.656  36.377  0.00  0.00    +0.009 C 
ATOM     18  C   LIG    1      -22.863  82.521  36.299  0.00  0.00    +0.032 C 
ENDBRANCH  11  18
ENDBRANCH   7  13
ENDBRANCH   1   8
BRANCH   3  19
ATOM     19  C   LIG    1      -21.855  76.333  29.957  0.00  0.00    +0.197 C 
ATOM     20  O   LIG    1      -21.839  76.411  28.732  0.00  0.00    -0.287 OA
BRANCH  19  21
ATOM     21  C   LIG    1      -22.969  75.704  30.663  0.00  0.00    +0.051 A 
ATOM     22  C   LIG    1      -24.249  76.283  30.928  0.00  0.00    +0.048 A 
ATOM     23  C   LIG    1      -24.886  77.485  30.618  0.00  0.00    +0.124 A 
ATOM     24  N   LIG    1      -26.167  77.684  31.004  0.00  0.00    -0.243 NA
ATOM     25  C   LIG    1      -26.770  76.704  31.704  0.00  0.00    +0.223 A 
ATOM     26  N   LIG    1      -26.252  75.524  32.095  0.00  0.00    -0.218 NA
ATOM     27  C   LIG    1      -24.984  75.370  31.675  0.00  0.00    +0.145 A 
ATOM     28  N   LIG    1      -24.175  74.288  31.929  0.00  0.00    -0.329 N 
ATOM     29  C   LIG    1      -22.983  74.451  31.259  0.00  0.00    +0.100 A 
BRANCH  28  30
ATOM     30  C   LIG    1      -24.501  73.179  32.827  0.00  0.00    +0.083 C 
ATOM     31  C   LIG    1      -23.301  72.740  33.677  0.00  0.00    +0.030 C 
ATOM     32  C   LIG    1      -25.076  71.987  32.066  0.00  0.00    +0.030 C 
ENDBRANCH  28  30
ENDBRANCH  19  21
ENDBRANCH   3  19
TORSDOF 6
ENDMDL
MODEL 2
REMARK VINA RESULT:      -6.1     10.936     16.534
REMARK  Name = pdb/CHEMBL3666427.pdb
REMARK                            x       y       z     vdW  Elec       q    Type
REMARK                         _______ _______ _______ _____ _____    ______ ____
ROOT
ATOM      1  C   LIG    1      -36.703  76.883  27.103  0.00  0.00    +0.053 A 
ATOM      2  C   LIG    1      -35.370  76.472  27.021  0.00  0.00    +0.038 A 
ATOM      3  C   LIG    1      -34.377  77.186  27.704  0.00  0.00    +0.042 A 
ATOM      4  C   LIG    1      -34.767  78.246  28.509  0.00  0.00    +0.122 A 
ATOM      5  N   LIG    1      -36.046  78.678  28.607  0.00  0.00    -0.261 NA
ATOM      6  C   LIG    1      -36.979  77.997  27.893  0.00  0.00    +0.134 A 
ENDROOT
BRANCH   1   8
ATOM      7  C   LIG    1      -37.877  76.188  25.017  0.00  0.00    +0.267 C 
ATOM      8  N   LIG    1      -37.665  76.149  26.384  0.00  0.00    -0.279 N 
ATOM      9  H   LIG    1      -38.291  75.523  26.888  0.00  0.00    +0.155 HD
ATOM     10  O   LIG    1      -37.257  76.866  24.207  0.00  0.00    -0.268 OA
BRANCH   7  13
ATOM     11  C   LIG    1      -39.818  73.075  24.172  0.00  0.00    -0.044 A 
ATOM     12  C   LIG    1      -38.783  73.910  24.584  0.00  0.00    +0.036 A 
ATOM     13  C   LIG    1      -38.975  75.289  24.547  0.00  0.00    +0.126 A 
ATOM     14  N   LIG    1      -40.122  75.889  24.117  0.00  0.00    -0.250 NA
ATOM     15  C   LIG    1      -41.110  75.050  23.717  0.00  0.00    +0.112 A 
ATOM     16  C   LIG    1      -41.004  73.661  23.729  0.00  0.00    +0.023 A 
BRANCH  11  18
ATOM     17  C   LIG    1      -38.173  71.169  24.296  0.00  0.00    +0.009 C 
ATOM     18  C   LIG    1      -39.636  71.579  24.207  0.00  0.00    +0.032 C 
ENDBRANCH  11  18
ENDBRANCH   7  13
ENDBRANCH   1   8
BRANCH   3  19
ATOM     19  C   LIG    1      -32.936  76.847  27.630  0.00  0.00    +0.197 C 
ATOM     20  O   LIG    1      -32.276  77.297  26.698  0.00  0.00    -0.287 OA
BRANCH  19  21
ATOM     21  C   LIG    1      -32.336  75.970  28.632  0.00  0.00    +0.051 A 
ATOM     22  C   LIG    1      -32.669  74.601  28.878  0.00  0.00    +0.048 A 
ATOM     23  C   LIG    1      -33.532  73.664  28.309  0.00  0.00    +0.124 A 
ATOM     24  N   LIG    1      -33.554  72.397  28.783  0.00  0.00    -0.243 NA
ATOM     25  C   LIG    1      -32.742  72.102  29.817  0.00  0.00    +0.223 A 
ATOM     26  N   LIG    1      -31.898  72.922  30.471  0.00  0.00    -0.218 NA
ATOM     27  C   LIG    1      -31.905  74.163  29.953  0.00  0.00    +0.145 A 
ATOM     28  N   LIG    1      -31.172  75.233  30.410  0.00  0.00    -0.329 N 
ATOM     29  C   LIG    1      -31.372  76.306  29.571  0.00  0.00    +0.100 A 
BRANCH  28  30
ATOM     30  C   LIG    1      -30.368  75.247  31.634  0.00  0.00    +0.083 C 
ATOM     31  C   LIG    1      -31.209  75.535  32.885  0.00  0.00    +0.030 C 
ATOM     32  C   LIG    1      -29.209  76.236  31.536  0.00  0.00    +0.030 C 
ENDBRANCH  28  30
ENDBRANCH  19  21
ENDBRANCH   3  19
TORSDOF 6
ENDMDL
MODEL 3
REMARK VINA RESULT:      -6.0     16.961     19.993
REMARK  Name = pdb/CHEMBL3666427.pdb
REMARK                            x       y       z     vdW  Elec       q    Type
REMARK                         _______ _______ _______ _____ _____    ______ ____
ROOT
ATOM      1  C   LIG    1      -32.140  66.328  19.399  0.00  0.00    +0.053 A 
ATOM      2  C   LIG    1      -33.042  66.289  20.465  0.00  0.00    +0.038 A 
ATOM      3  C   LIG    1      -33.817  65.143  20.682  0.00  0.00    +0.042 A 
ATOM      4  C   LIG    1      -33.605  64.043  19.862  0.00  0.00    +0.122 A 
ATOM      5  N   LIG    1      -32.747  64.046  18.815  0.00  0.00    -0.261 NA
ATOM      6  C   LIG    1      -32.047  65.190  18.600  0.00  0.00    +0.134 A 
ENDROOT
BRANCH   1   8
ATOM      7  C   LIG    1      -31.633  68.482  18.251  0.00  0.00    +0.267 C 
ATOM      8  N   LIG    1      -31.397  67.508  19.206  0.00  0.00    -0.279 N 
ATOM      9  H   LIG    1      -30.593  67.691  19.803  0.00  0.00    +0.155 HD
ATOM     10  O   LIG    1      -32.533  68.479  17.421  0.00  0.00    -0.268 OA
BRANCH   7  13
ATOM     11  C   LIG    1      -28.495  70.475  18.848  0.00  0.00    -0.044 A 
ATOM     12  C   LIG    1      -29.400  69.417  18.832  0.00  0.00    +0.036 A 
ATOM     13  C   LIG    1      -30.669  69.624  18.298  0.00  0.00    +0.126 A 
ATOM     14  N   LIG    1      -31.099  70.815  17.791  0.00  0.00    -0.250 NA
ATOM     15  C   LIG    1      -30.198  71.828  17.825  0.00  0.00    +0.112 A 
ATOM     16  C   LIG    1      -28.907  71.705  18.333  0.00  0.00    +0.023 A 
BRANCH  11  18
ATOM     17  C   LIG    1      -27.138  69.826  20.871  0.00  0.00    +0.009 C 
ATOM     18  C   LIG    1      -27.113  70.274  19.416  0.00  0.00    +0.032 C 
ENDBRANCH  11  18
ENDBRANCH   7  13
ENDBRANCH   1   8
BRANCH   3  19
ATOM     19  C   LIG    1      -34.830  65.037  21.757  0.00  0.00    +0.197 C 
ATOM     20  O   LIG    1      -35.209  63.920  22.098  0.00  0.00    -0.287 OA
BRANCH  19  21
ATOM     21  C   LIG    1      -35.382  66.245  22.367  0.00  0.00    +0.051 A 
ATOM     22  C   LIG    1      -36.190  67.234  21.723  0.00  0.00    +0.048 A 
ATOM     23  C   LIG    1      -36.747  67.398  20.455  0.00  0.00    +0.124 A 
ATOM     24  N   LIG    1      -37.528  68.473  20.199  0.00  0.00    -0.243 NA
ATOM     25  C   LIG    1      -37.713  69.363  21.194  0.00  0.00    +0.223 A 
ATOM     26  N   LIG    1      -37.202  69.335  22.439  0.00  0.00    -0.218 NA
ATOM     27  C   LIG    1      -36.447  68.241  22.645  0.00  0.00    +0.145 A 
ATOM     28  N   LIG    1      -35.770  67.933  23.801  0.00  0.00    -0.329 N 
ATOM     29  C   LIG    1      -35.187  66.693  23.664  0.00  0.00    +0.100 A 
BRANCH  28  30
ATOM     30  C   LIG    1      -35.632  68.815  24.962  0.00  0.00    +0.083 C 
ATOM     31  C   LIG    1      -34.252  68.701  25.624  0.00  0.00    +0.030 C 
ATOM     32  C   LIG    1      -36.735  68.572  25.990  0.00  0.00    +0.030 C 
ENDBRANCH  28  30
ENDBRANCH  19  21
ENDBRANCH   3  19
TORSDOF 6
ENDMDL
MODEL 4
REMARK VINA RESULT:      -5.9     17.748     20.733
REMARK  Name = pdb/CHEMBL3666427.pdb
REMARK                            x       y       z     vdW  Elec       q    Type
REMARK                         _______ _______ _______ _____ _____    ______ ____
ROOT
ATOM      1  C   LIG    1      -32.163  66.382  19.512  0.00  0.00    +0.053 A 
ATOM      2  C   LIG    1      -33.133  66.405  20.517  0.00  0.00    +0.038 A 
ATOM      3  C   LIG    1      -33.938  65.280  20.735  0.00  0.00    +0.042 A 
ATOM      4  C   LIG    1      -33.691  64.141  19.982  0.00  0.00    +0.122 A 
ATOM      5  N   LIG    1      -32.767  64.084  18.995  0.00  0.00    -0.261 NA
ATOM      6  C   LIG    1      -32.036  65.207  18.774  0.00  0.00    +0.134 A 
ENDROOT
BRANCH   1   8
ATOM      7  C   LIG    1      -31.553  68.478  18.306  0.00  0.00    +0.267 C 
ATOM      8  N   LIG    1      -31.390  67.542  19.314  0.00  0.00    -0.279 N 
ATOM      9  H   LIG    1      -30.621  67.741  19.950  0.00  0.00    +0.155 HD
ATOM     10  O   LIG    1      -32.401  68.451  17.423  0.00  0.00    -0.268 OA
BRANCH   7  13
ATOM     11  C   LIG    1      -28.346  70.396  18.772  0.00  0.00    -0.044 A 
ATOM     12  C   LIG    1      -29.262  69.347  18.748  0.00  0.00    +0.036 A 
ATOM     13  C   LIG    1      -30.574  69.607  18.362  0.00  0.00    +0.126 A 
ATOM     14  N   LIG    1      -31.037  70.841  18.011  0.00  0.00    -0.250 NA
ATOM     15  C   LIG    1      -30.124  71.843  18.049  0.00  0.00    +0.112 A 
ATOM     16  C   LIG    1      -28.791  71.669  18.415  0.00  0.00    +0.023 A 
BRANCH  11  18
ATOM     17  C   LIG    1      -25.922  70.496  18.088  0.00  0.00    +0.009 C 
ATOM     18  C   LIG    1      -26.919  70.138  19.182  0.00  0.00    +0.032 C 
ENDBRANCH  11  18
ENDBRANCH   7  13
ENDBRANCH   1   8
BRANCH   3  19
ATOM     19  C   LIG    1      -35.020  65.238  21.745  0.00  0.00    +0.197 C 
ATOM     20  O   LIG    1      -34.886  64.498  22.716  0.00  0.00    -0.287 OA
BRANCH  19  21
ATOM     21  C   LIG    1      -36.229  66.038  21.561  0.00  0.00    +0.051 A 
ATOM     22  C   LIG    1      -36.553  67.262  22.226  0.00  0.00    +0.048 A 
ATOM     23  C   LIG    1      -35.919  68.099  23.143  0.00  0.00    +0.124 A 
ATOM     24  N   LIG    1      -36.522  69.246  23.534  0.00  0.00    -0.243 NA
ATOM     25  C   LIG    1      -37.740  69.517  23.026  0.00  0.00    +0.223 A 
ATOM     26  N   LIG    1      -38.466  68.775  22.169  0.00  0.00    -0.218 NA
ATOM     27  C   LIG    1      -37.817  67.655  21.802  0.00  0.00    +0.145 A 
ATOM     28  N   LIG    1      -38.298  66.682  20.959  0.00  0.00    -0.329 N 
ATOM     29  C   LIG    1      -37.315  65.741  20.750  0.00  0.00    +0.100 A 
BRANCH  28  30
ATOM     30  C   LIG    1      -39.661  66.621  20.427  0.00  0.00    +0.083 C 
ATOM     31  C   LIG    1      -40.705  66.355  21.520  0.00  0.00    +0.030 C 
ATOM     32  C   LIG    1      -39.787  65.584  19.312  0.00  0.00    +0.030 C 
ENDBRANCH  28  30
ENDBRANCH  19  21
ENDBRANCH   3  19
TORSDOF 6
ENDMDL
MODEL 5
REMARK VINA RESULT:      -5.9     14.865     18.931
REMARK  Name = pdb/CHEMBL3666427.pdb
REMARK                            x       y       z     vdW  Elec       q    Type
REMARK                         _______ _______ _______ _____ _____    ______ ____
ROOT
ATOM      1  C   LIG    1      -38.121  76.124  24.941  0.00  0.00    +0.053 A 
ATOM      2  C   LIG    1      -38.899  74.970  25.064  0.00  0.00    +0.038 A 
ATOM      3  C   LIG    1      -40.144  74.897  24.427  0.00  0.00    +0.042 A 
ATOM      4  C   LIG    1      -40.533  75.960  23.624  0.00  0.00    +0.122 A 
ATOM      5  N   LIG    1      -39.811  77.096  23.488  0.00  0.00    -0.261 NA
ATOM      6  C   LIG    1      -38.632  77.158  24.159  0.00  0.00    +0.134 A 
ENDROOT
BRANCH   1   8
ATOM      7  C   LIG    1      -36.645  76.719  26.861  0.00  0.00    +0.267 C 
ATOM      8  N   LIG    1      -36.886  76.163  25.616  0.00  0.00    -0.279 N 
ATOM      9  H   LIG    1      -36.065  75.759  25.171  0.00  0.00    +0.155 HD
ATOM     10  O   LIG    1      -37.471  77.265  27.582  0.00  0.00    -0.268 OA
BRANCH   7  13
ATOM     11  C   LIG    1      -33.454  75.278  28.244  0.00  0.00    -0.044 A 
ATOM     12  C   LIG    1      -34.784  75.394  27.850  0.00  0.00    +0.036 A 
ATOM     13  C   LIG    1      -35.225  76.601  27.314  0.00  0.00    +0.126 A 
ATOM     14  N   LIG    1      -34.435  77.701  27.156  0.00  0.00    -0.250 NA
ATOM     15  C   LIG    1      -33.146  77.560  27.555  0.00  0.00    +0.112 A 
ATOM     16  C   LIG    1      -32.621  76.387  28.092  0.00  0.00    +0.023 A 
BRANCH  11  18
ATOM     17  C   LIG    1      -33.836  72.796  28.460  0.00  0.00    +0.009 C 
ATOM     18  C   LIG    1      -32.951  73.980  28.823  0.00  0.00    +0.032 C 
ENDBRANCH  11  18
ENDBRANCH   7  13
ENDBRANCH   1   8
BRANCH   3  19
ATOM     19  C   LIG    1      -41.051  73.732  24.545  0.00  0.00    +0.197 C 
ATOM     20  O   LIG    1      -42.038  73.829  25.269  0.00  0.00    -0.287 OA
BRANCH  19  21
ATOM     21  C   LIG    1      -40.747  72.490  23.838  0.00  0.00    +0.051 A 
ATOM     22  C   LIG    1      -41.475  71.931  22.742  0.00  0.00    +0.048 A 
ATOM     23  C   LIG    1      -42.576  72.312  21.975  0.00  0.00    +0.124 A 
ATOM     24  N   LIG    1      -42.979  71.532  20.945  0.00  0.00    -0.243 NA
ATOM     25  C   LIG    1      -42.299  70.391  20.721  0.00  0.00    +0.223 A 
ATOM     26  N   LIG    1      -41.251  69.899  21.409  0.00  0.00    -0.218 NA
ATOM     27  C   LIG    1      -40.883  70.717  22.411  0.00  0.00    +0.145 A 
ATOM     28  N   LIG    1      -39.867  70.489  23.308  0.00  0.00    -0.329 N 
ATOM     29  C   LIG    1      -39.731  71.590  24.124  0.00  0.00    +0.100 A 
BRANCH  28  30
ATOM     30  C   LIG    1      -39.101  69.246  23.422  0.00  0.00    +0.083 C 
ATOM     31  C   LIG    1      -38.992  68.756  24.872  0.00  0.00    +0.030 C 
ATOM     32  C   LIG    1      -37.713  69.378  22.801  0.00  0.00    +0.030 C 
ENDBRANCH  28  30
ENDBRANCH  19  21
ENDBRANCH   3  19
TORSDOF 6
ENDMDL
MODEL 6
REMARK VINA RESULT:      -5.8     11.896     16.334
REMARK  Name = pdb/CHEMBL3666427.pdb
REMARK                            x       y       z     vdW  Elec       q    Type
REMARK                         _______ _______ _______ _____ _____    ______ ____
ROOT
ATOM      1  C   LIG    1      -34.744  72.483  27.809  0.00  0.00    +0.053 A 
ATOM      2  C   LIG    1      -34.085  73.691  28.053  0.00  0.00    +0.038 A 
ATOM      3  C   LIG    1      -33.002  73.728  28.941  0.00  0.00    +0.042 A 
ATOM      4  C   LIG    1      -32.570  72.533  29.497  0.00  0.00    +0.122 A 
ATOM      5  N   LIG    1      -33.187  71.346  29.291  0.00  0.00    -0.261 NA
ATOM      6  C   LIG    1      -34.265  71.351  28.466  0.00  0.00    +0.134 A 
ENDROOT
BRANCH   1   8
ATOM      7  C   LIG    1      -37.128  72.911  27.219  0.00  0.00    +0.267 C 
ATOM      8  N   LIG    1      -35.840  72.496  26.926  0.00  0.00    -0.279 N 
ATOM      9  H   LIG    1      -35.713  72.166  25.971  0.00  0.00    +0.155 HD
ATOM     10  O   LIG    1      -37.523  73.340  28.295  0.00  0.00    -0.268 OA
BRANCH   7  13
ATOM     11  C   LIG    1      -39.657  73.844  24.591  0.00  0.00    -0.044 A 
ATOM     12  C   LIG    1      -38.797  73.935  25.682  0.00  0.00    +0.036 A 
ATOM     13  C   LIG    1      -38.076  72.808  26.067  0.00  0.00    +0.126 A 
ATOM     14  N   LIG    1      -38.162  71.596  25.446  0.00  0.00    -0.250 NA
ATOM     15  C   LIG    1      -39.012  71.537  24.391  0.00  0.00    +0.112 A 
ATOM     16  C   LIG    1      -39.764  72.617  23.935  0.00  0.00    +0.023 A 
BRANCH  11  18
ATOM     17  C   LIG    1      -39.591  76.307  24.061  0.00  0.00    +0.009 C 
ATOM     18  C   LIG    1      -40.445  75.051  24.151  0.00  0.00    +0.032 C 
ENDBRANCH  11  18
ENDBRANCH   7  13
ENDBRANCH   1   8
BRANCH   3  19
ATOM     19  C   LIG    1      -32.281  74.973  29.292  0.00  0.00    +0.197 C 
ATOM     20  O   LIG    1      -31.092  74.897  29.587  0.00  0.00    -0.287 OA
BRANCH  19  21
ATOM     21  C   LIG    1      -32.990  76.251  29.315  0.00  0.00    +0.051 A 
ATOM     22  C   LIG    1      -32.911  77.289  28.335  0.00  0.00    +0.048 A 
ATOM     23  C   LIG    1      -32.267  77.461  27.110  0.00  0.00    +0.124 A 
ATOM     24  N   LIG    1      -32.463  78.596  26.402  0.00  0.00    -0.243 NA
ATOM     25  C   LIG    1      -33.269  79.536  26.936  0.00  0.00    +0.223 A 
ATOM     26  N   LIG    1      -33.912  79.503  28.118  0.00  0.00    -0.218 NA
ATOM     27  C   LIG    1      -33.695  78.349  28.774  0.00  0.00    +0.145 A 
ATOM     28  N   LIG    1      -34.190  78.020  30.013  0.00  0.00    -0.329 N 
ATOM     29  C   LIG    1      -33.829  76.724  30.312  0.00  0.00    +0.100 A 
BRANCH  28  30
ATOM     30  C   LIG    1      -34.921  78.925  30.902  0.00  0.00    +0.083 C 
ATOM     31  C   LIG    1      -34.483  78.791  32.366  0.00  0.00    +0.030 C 
ATOM     32  C   LIG    1      -36.432  78.737  30.781  0.00  0.00    +0.030 C 
ENDBRANCH  28  30
ENDBRANCH  19  21
ENDBRANCH   3  19
TORSDOF 6
ENDMDL
MODEL 7
REMARK VINA RESULT:      -5.8     20.277     22.979
REMARK  Name = pdb/CHEMBL3666427.pdb
REMARK                            x       y       z     vdW  Elec       q    Type
REMARK                         _______ _______ _______ _____ _____    ______ ____
ROOT
ATOM      1  C   LIG    1      -21.585  85.898  13.793  0.00  0.00    +0.053 A 
ATOM      2  C   LIG    1      -22.222  86.337  12.629  0.00  0.00    +0.038 A 
ATOM      3  C   LIG    1      -21.947  87.614  12.123  0.00  0.00    +0.042 A 
ATOM      4  C   LIG    1      -20.982  88.378  12.762  0.00  0.00    +0.122 A 
ATOM      5  N   LIG    1      -20.351  87.991  13.895  0.00  0.00    -0.261 NA
ATOM      6  C   LIG    1      -20.677  86.769  14.390  0.00  0.00    +0.134 A 
ENDROOT
BRANCH   1   8
ATOM      7  C   LIG    1      -22.514  84.322  15.487  0.00  0.00    +0.267 C 
ATOM      8  N   LIG    1      -21.907  84.616  14.278  0.00  0.00    -0.279 N 
ATOM      9  H   LIG    1      -21.679  83.800  13.714  0.00  0.00    +0.155 HD
ATOM     10  O   LIG    1      -22.874  85.132  16.332  0.00  0.00    -0.268 OA
BRANCH   7  13
ATOM     11  C   LIG    1      -23.852  80.819  15.151  0.00  0.00    -0.044 A 
ATOM     12  C   LIG    1      -23.674  82.186  14.952  0.00  0.00    +0.036 A 
ATOM     13  C   LIG    1      -22.729  82.861  15.720  0.00  0.00    +0.126 A 
ATOM     14  N   LIG    1      -21.959  82.270  16.678  0.00  0.00    -0.250 NA
ATOM     15  C   LIG    1      -22.158  80.940  16.853  0.00  0.00    +0.112 A 
ATOM     16  C   LIG    1      -23.076  80.187  16.124  0.00  0.00    +0.023 A 
BRANCH  11  18
ATOM     17  C   LIG    1      -25.307  80.836  13.093  0.00  0.00    +0.009 C 
ATOM     18  C   LIG    1      -24.866  80.065  14.329  0.00  0.00    +0.032 C 
ENDBRANCH  11  18
ENDBRANCH   7  13
ENDBRANCH   1   8
BRANCH   3  19
ATOM     19  C   LIG    1      -22.613  88.174  10.925  0.00  0.00    +0.197 C 
ATOM     20  O   LIG    1      -22.058  88.055   9.836  0.00  0.00    -0.287 OA
BRANCH  19  21
ATOM     21  C   LIG    1      -23.886  88.880  11.055  0.00  0.00    +0.051 A 
ATOM     22  C   LIG    1      -25.150  88.467  10.530  0.00  0.00    +0.048 A 
ATOM     23  C   LIG    1      -25.628  87.358   9.831  0.00  0.00    +0.124 A 
ATOM     24  N   LIG    1      -26.943  87.273   9.526  0.00  0.00    -0.243 NA
ATOM     25  C   LIG    1      -27.740  88.294   9.899  0.00  0.00    +0.223 A 
ATOM     26  N   LIG    1      -27.393  89.426  10.540  0.00  0.00    -0.218 NA
ATOM     27  C   LIG    1      -26.080  89.454  10.831  0.00  0.00    +0.145 A 
ATOM     28  N   LIG    1      -25.415  90.480  11.458  0.00  0.00    -0.329 N 
ATOM     29  C   LIG    1      -24.105  90.107  11.664  0.00  0.00    +0.100 A 
BRANCH  28  30
ATOM     30  C   LIG    1      -25.989  91.786  11.789  0.00  0.00    +0.083 C 
ATOM     31  C   LIG    1      -25.096  92.950  11.340  0.00  0.00    +0.030 C 
ATOM     32  C   LIG    1      -26.304  91.903  13.278  0.00  0.00    +0.030 C 
ENDBRANCH  28  30
ENDBRANCH  19  21
ENDBRANCH   3  19
TORSDOF 6
ENDMDL
MODEL 8
REMARK VINA RESULT:      -5.8      3.756      9.790
REMARK  Name = pdb/CHEMBL3666427.pdb
REMARK                            x       y       z     vdW  Elec       q    Type
REMARK                         _______ _______ _______ _____ _____    ______ ____
ROOT
ATOM      1  C   LIG    1      -25.101  72.329  31.480  0.00  0.00    +0.053 A 
ATOM      2  C   LIG    1      -24.820  73.626  31.042  0.00  0.00    +0.038 A 
ATOM      3  C   LIG    1      -25.375  74.724  31.712  0.00  0.00    +0.042 A 
ATOM      4  C   LIG    1      -26.134  74.484  32.848  0.00  0.00    +0.122 A 
ATOM      5  N   LIG    1      -26.434  73.243  33.297  0.00  0.00    -0.261 NA
ATOM      6  C   LIG    1      -25.924  72.197  32.597  0.00  0.00    +0.134 A 
ENDROOT
BRANCH   1   8
ATOM      7  C   LIG    1      -25.207  70.402  29.903  0.00  0.00    +0.267 C 
ATOM      8  N   LIG    1      -24.539  71.255  30.765  0.00  0.00    -0.279 N 
ATOM      9  H   LIG    1      -23.548  71.050  30.873  0.00  0.00    +0.155 HD
ATOM     10  O   LIG    1      -26.397  70.446  29.618  0.00  0.00    -0.268 OA
BRANCH   7  13
ATOM     11  C   LIG    1      -22.268  68.741  28.236  0.00  0.00    -0.044 A 
ATOM     12  C   LIG    1      -23.090  69.723  28.782  0.00  0.00    +0.036 A 
ATOM     13  C   LIG    1      -24.334  69.355  29.288  0.00  0.00    +0.126 A 
ATOM     14  N   LIG    1      -24.818  68.079  29.274  0.00  0.00    -0.250 NA
ATOM     15  C   LIG    1      -23.997  67.146  28.731  0.00  0.00    +0.112 A 
ATOM     16  C   LIG    1      -22.736  67.427  28.211  0.00  0.00    +0.023 A 
BRANCH  11  18
ATOM     17  C   LIG    1      -19.857  69.241  28.773  0.00  0.00    +0.009 C 
ATOM     18  C   LIG    1      -20.914  69.114  27.687  0.00  0.00    +0.032 C 
ENDBRANCH  11  18
ENDBRANCH   7  13
ENDBRANCH   1   8
BRANCH   3  19
ATOM     19  C   LIG    1      -25.168  76.127  31.285  0.00  0.00    +0.197 C 
ATOM     20  O   LIG    1      -26.041  76.669  30.612  0.00  0.00    -0.287 OA
BRANCH  19  21
ATOM     21  C   LIG    1      -23.933  76.826  31.633  0.00  0.00    +0.051 A 
ATOM     22  C   LIG    1      -22.719  76.845  30.877  0.00  0.00    +0.048 A 
ATOM     23  C   LIG    1      -22.297  76.329  29.652  0.00  0.00    +0.124 A 
ATOM     24  N   LIG    1      -21.047  76.593  29.208  0.00  0.00    -0.243 NA
ATOM     25  C   LIG    1      -20.246  77.336  29.997  0.00  0.00    +0.223 A 
ATOM     26  N   LIG    1      -20.524  77.856  31.207  0.00  0.00    -0.218 NA
ATOM     27  C   LIG    1      -21.781  77.576  31.595  0.00  0.00    +0.145 A 
ATOM     28  N   LIG    1      -22.359  77.943  32.787  0.00  0.00    -0.329 N 
ATOM     29  C   LIG    1      -23.681  77.558  32.784  0.00  0.00    +0.100 A 
BRANCH  28  30
ATOM     30  C   LIG    1      -21.660  78.577  33.907  0.00  0.00    +0.083 C 
ATOM     31  C   LIG    1      -21.129  77.554  34.921  0.00  0.00    +0.030 C 
ATOM     32  C   LIG    1      -22.537  79.612  34.608  0.00  0.00    +0.030 C 
ENDBRANCH  28  30
ENDBRANCH  19  21
ENDBRANCH   3  19
TORSDOF 6
ENDMDL
MODEL 9
REMARK VINA RESULT:      -5.8     13.210     17.484
REMARK  Name = pdb/CHEMBL3666427.pdb
REMARK                            x       y       z     vdW  Elec       q    Type
REMARK                         _______ _______ _______ _____ _____    ______ ____
ROOT
ATOM      1  C   LIG    1      -37.943  74.973  25.180  0.00  0.00    +0.053 A 
ATOM      2  C   LIG    1      -38.002  73.589  25.002  0.00  0.00    +0.038 A 
ATOM      3  C   LIG    1      -39.128  73.010  24.401  0.00  0.00    +0.042 A 
ATOM      4  C   LIG    1      -40.125  73.852  23.931  0.00  0.00    +0.122 A 
ATOM      5  N   LIG    1      -40.107  75.195  24.092  0.00  0.00    -0.261 NA
ATOM      6  C   LIG    1      -39.026  75.722  24.724  0.00  0.00    +0.134 A 
ENDROOT
BRANCH   1   8
ATOM      7  C   LIG    1      -36.600  75.646  27.169  0.00  0.00    +0.267 C 
ATOM      8  N   LIG    1      -36.802  75.510  25.806  0.00  0.00    -0.279 N 
ATOM      9  H   LIG    1      -36.034  75.849  25.232  0.00  0.00    +0.155 HD
ATOM     10  O   LIG    1      -37.380  75.317  28.054  0.00  0.00    -0.268 OA
BRANCH   7  13
ATOM     11  C   LIG    1      -33.076  76.014  28.443  0.00  0.00    -0.044 A 
ATOM     12  C   LIG    1      -34.313  75.454  28.135  0.00  0.00    +0.036 A 
ATOM     13  C   LIG    1      -35.281  76.251  27.529  0.00  0.00    +0.126 A 
ATOM     14  N   LIG    1      -35.103  77.568  27.221  0.00  0.00    -0.250 NA
ATOM     15  C   LIG    1      -33.890  78.086  27.538  0.00  0.00    +0.112 A 
ATOM     16  C   LIG    1      -32.864  77.359  28.137  0.00  0.00    +0.023 A 
BRANCH  11  18
ATOM     17  C   LIG    1      -32.507  73.778  29.459  0.00  0.00    +0.009 C 
ATOM     18  C   LIG    1      -32.010  75.170  29.095  0.00  0.00    +0.032 C 
ENDBRANCH  11  18
ENDBRANCH   7  13
ENDBRANCH   1   8
BRANCH   3  19
ATOM     19  C   LIG    1      -39.292  71.549  24.220  0.00  0.00    +0.197 C 
ATOM     20  O   LIG    1      -40.415  71.110  23.987  0.00  0.00    -0.287 OA
BRANCH  19  21
ATOM     21  C   LIG    1      -38.140  70.659  24.352  0.00  0.00    +0.051 A 
ATOM     22  C   LIG    1      -37.687  69.701  23.393  0.00  0.00    +0.048 A 
ATOM     23  C   LIG    1      -38.065  69.319  22.105  0.00  0.00    +0.124 A 
ATOM     24  N   LIG    1      -37.353  68.375  21.449  0.00  0.00    -0.243 NA
ATOM     25  C   LIG    1      -36.307  67.819  22.092  0.00  0.00    +0.223 A 
ATOM     26  N   LIG    1      -35.869  68.074  23.340  0.00  0.00    -0.218 NA
ATOM     27  C   LIG    1      -36.601  69.029  23.942  0.00  0.00    +0.145 A 
ATOM     28  N   LIG    1      -36.423  69.496  25.222  0.00  0.00    -0.329 N 
ATOM     29  C   LIG    1      -37.302  70.532  25.449  0.00  0.00    +0.100 A 
BRANCH  28  30
ATOM     30  C   LIG    1      -35.499  68.932  26.208  0.00  0.00    +0.083 C 
ATOM     31  C   LIG    1      -35.990  69.124  27.649  0.00  0.00    +0.030 C 
ATOM     32  C   LIG    1      -34.090  69.499  26.049  0.00  0.00    +0.030 C 
ENDBRANCH  28  30
ENDBRANCH  19  21
ENDBRANCH   3  19
TORSDOF 6
ENDMDL
