MODEL 1
REMARK VINA RESULT:      -5.7      0.000      0.000
REMARK  Name = pdb/CHEMBL3661485.pdb
REMARK                            x       y       z     vdW  Elec       q    Type
REMARK                         _______ _______ _______ _____ _____    ______ ____
ROOT
ATOM      1  C   LIG    1      -20.540  77.066  30.707  0.00  0.00    +0.042 A 
ATOM      2  C   LIG    1      -20.742  77.861  31.840  0.00  0.00    +0.038 A 
ATOM      3  C   LIG    1      -19.647  78.367  32.549  0.00  0.00    +0.052 A 
ATOM      4  C   LIG    1      -18.377  78.024  32.089  0.00  0.00    +0.134 A 
ATOM      5  N   LIG    1      -18.147  77.240  31.005  0.00  0.00    -0.261 NA
ATOM      6  C   LIG    1      -19.231  76.769  30.346  0.00  0.00    +0.122 A 
ENDROOT
BRANCH   3   7
ATOM      7  N   LIG    1      -19.910  79.185  33.671  0.00  0.00    -0.283 N 
ATOM      8  H   LIG    1      -20.416  80.049  33.500  0.00  0.00    +0.155 HD
ATOM      9  C   LIG    1      -19.599  78.895  34.992  0.00  0.00    +0.239 C 
ATOM     10  O   LIG    1      -19.051  77.868  35.385  0.00  0.00    -0.273 OA
BRANCH   9  11
ATOM     11  C   LIG    1      -19.960  79.994  35.964  0.00  0.00    +0.239 C 
BRANCH  11  12
ATOM     12  N   LIG    1      -21.357  80.349  35.854  0.00  0.00    -0.262 N 
ATOM     13  N   LIG    1      -22.242  79.451  35.372  0.00  0.00    -0.176 NA
ATOM     14  C   LIG    1      -23.405  80.113  35.412  0.00  0.00    +0.066 A 
ATOM     15  C   LIG    1      -23.259  81.432  35.886  0.00  0.00    +0.044 A 
ATOM     16  C   LIG    1      -21.917  81.558  36.155  0.00  0.00    +0.109 A 
BRANCH  14  17
ATOM     17  C   LIG    1      -24.752  79.527  35.018  0.00  0.00    +0.040 C 
ATOM     18  C   LIG    1      -25.633  78.948  36.106  0.00  0.00    +0.010 C 
ATOM     19  C   LIG    1      -24.976  78.033  35.130  0.00  0.00    +0.010 C 
ENDBRANCH  14  17
ENDBRANCH  11  12
ENDBRANCH   9  11
ENDBRANCH   3   7
BRANCH   1  20
ATOM     20  C   LIG    1      -21.645  76.451  29.935  0.00  0.00    +0.197 C 
ATOM     21  O   LIG    1      -21.578  76.479  28.704  0.00  0.00    -0.287 OA
BRANCH  20  29
ATOM     22  N   LIG    1      -24.046  74.321  31.722  0.00  0.00    -0.329 N 
ATOM     23  C   LIG    1      -24.817  75.443  31.537  0.00  0.00    +0.145 A 
ATOM     24  N   LIG    1      -26.091  75.600  31.936  0.00  0.00    -0.218 NA
ATOM     25  C   LIG    1      -26.568  76.819  31.624  0.00  0.00    +0.223 A 
ATOM     26  N   LIG    1      -25.928  77.824  30.998  0.00  0.00    -0.243 NA
ATOM     27  C   LIG    1      -24.646  77.616  30.622  0.00  0.00    +0.124 A 
ATOM     28  C   LIG    1      -24.040  76.386  30.877  0.00  0.00    +0.048 A 
ATOM     29  C   LIG    1      -22.763  75.798  30.611  0.00  0.00    +0.051 A 
ATOM     30  C   LIG    1      -22.800  74.527  31.165  0.00  0.00    +0.100 A 
BRANCH  22  32
ATOM     31  C   LIG    1      -24.881  72.006  31.441  0.00  0.00    +0.030 C 
ATOM     32  C   LIG    1      -24.475  73.109  32.421  0.00  0.00    +0.083 C 
ATOM     33  C   LIG    1      -23.404  72.611  33.393  0.00  0.00    +0.030 C 
ENDBRANCH  22  32
ENDBRANCH  20  29
ENDBRANCH   1  20
TORSDOF 7
ENDMDL
MODEL 2
REMARK VINA RESULT:      -5.4     19.236     21.878
REMARK  Name = pdb/CHEMBL3661485.pdb
REMARK                            x       y       z     vdW  Elec       q    Type
REMARK                         _______ _______ _______ _____ _____    ______ ____
ROOT
ATOM      1  C   LIG    1      -20.380  86.741  13.790  0.00  0.00    +0.042 A 
ATOM      2  C   LIG    1      -20.031  85.397  13.964  0.00  0.00    +0.038 A 
ATOM      3  C   LIG    1      -18.770  84.940  13.562  0.00  0.00    +0.052 A 
ATOM      4  C   LIG    1      -17.914  85.869  12.974  0.00  0.00    +0.134 A 
ATOM      5  N   LIG    1      -18.229  87.174  12.775  0.00  0.00    -0.261 NA
ATOM      6  C   LIG    1      -19.456  87.578  13.175  0.00  0.00    +0.122 A 
ENDROOT
BRANCH   3   7
ATOM      7  N   LIG    1      -18.462  83.579  13.784  0.00  0.00    -0.283 N 
ATOM      8  H   LIG    1      -18.164  83.323  14.722  0.00  0.00    +0.155 HD
ATOM      9  C   LIG    1      -18.585  82.547  12.865  0.00  0.00    +0.239 C 
ATOM     10  O   LIG    1      -18.993  82.666  11.713  0.00  0.00    -0.273 OA
BRANCH   9  11
ATOM     11  C   LIG    1      -18.126  81.204  13.384  0.00  0.00    +0.239 C 
BRANCH  11  12
ATOM     12  N   LIG    1      -18.895  80.800  14.539  0.00  0.00    -0.262 N 
ATOM     13  N   LIG    1      -20.122  81.325  14.746  0.00  0.00    -0.176 NA
ATOM     14  C   LIG    1      -20.521  80.737  15.881  0.00  0.00    +0.066 A 
ATOM     15  C   LIG    1      -19.545  79.869  16.411  0.00  0.00    +0.044 A 
ATOM     16  C   LIG    1      -18.499  79.940  15.523  0.00  0.00    +0.109 A 
BRANCH  14  17
ATOM     17  C   LIG    1      -21.877  80.946  16.537  0.00  0.00    +0.040 C 
ATOM     18  C   LIG    1      -23.035  80.075  16.093  0.00  0.00    +0.010 C 
ATOM     19  C   LIG    1      -23.019  81.518  15.722  0.00  0.00    +0.010 C 
ENDBRANCH  14  17
ENDBRANCH  11  12
ENDBRANCH   9  11
ENDBRANCH   3   7
BRANCH   1  20
ATOM     20  C   LIG    1      -21.711  87.289  14.141  0.00  0.00    +0.197 C 
ATOM     21  O   LIG    1      -21.984  87.428  15.335  0.00  0.00    -0.287 OA
BRANCH  20  29
ATOM     22  N   LIG    1      -23.892  88.890  11.657  0.00  0.00    -0.329 N 
ATOM     23  C   LIG    1      -24.201  87.572  11.427  0.00  0.00    +0.145 A 
ATOM     24  N   LIG    1      -25.083  87.113  10.523  0.00  0.00    -0.218 NA
ATOM     25  C   LIG    1      -25.152  85.769  10.525  0.00  0.00    +0.223 A 
ATOM     26  N   LIG    1      -24.463  84.905  11.294  0.00  0.00    -0.243 NA
ATOM     27  C   LIG    1      -23.586  85.419  12.185  0.00  0.00    +0.124 A 
ATOM     28  C   LIG    1      -23.432  86.801  12.289  0.00  0.00    +0.048 A 
ATOM     29  C   LIG    1      -22.658  87.688  13.103  0.00  0.00    +0.051 A 
ATOM     30  C   LIG    1      -22.958  88.971  12.670  0.00  0.00    +0.100 A 
BRANCH  22  32
ATOM     31  C   LIG    1      -25.652  90.634  11.653  0.00  0.00    +0.030 C 
ATOM     32  C   LIG    1      -24.451  90.027  10.924  0.00  0.00    +0.083 C 
ATOM     33  C   LIG    1      -23.389  91.090  10.639  0.00  0.00    +0.030 C 
ENDBRANCH  22  32
ENDBRANCH  20  29
ENDBRANCH   1  20
TORSDOF 7
ENDMDL
MODEL 3
REMARK VINA RESULT:      -5.3     12.961     16.723
REMARK  Name = pdb/CHEMBL3661485.pdb
REMARK                            x       y       z     vdW  Elec       q    Type
REMARK                         _______ _______ _______ _____ _____    ______ ____
ROOT
ATOM      1  C   LIG    1      -38.030  77.232  26.056  0.00  0.00    +0.042 A 
ATOM      2  C   LIG    1      -36.832  76.797  26.634  0.00  0.00    +0.038 A 
ATOM      3  C   LIG    1      -36.398  77.343  27.848  0.00  0.00    +0.052 A 
ATOM      4  C   LIG    1      -37.194  78.333  28.421  0.00  0.00    +0.134 A 
ATOM      5  N   LIG    1      -38.351  78.789  27.877  0.00  0.00    -0.261 NA
ATOM      6  C   LIG    1      -38.736  78.238  26.703  0.00  0.00    +0.122 A 
ENDROOT
BRANCH   3   7
ATOM      7  N   LIG    1      -35.194  76.850  28.399  0.00  0.00    -0.283 N 
ATOM      8  H   LIG    1      -35.274  76.262  29.224  0.00  0.00    +0.155 HD
ATOM      9  C   LIG    1      -33.918  77.039  27.888  0.00  0.00    +0.239 C 
ATOM     10  O   LIG    1      -33.646  77.663  26.866  0.00  0.00    -0.273 OA
BRANCH   9  11
ATOM     11  C   LIG    1      -32.822  76.431  28.733  0.00  0.00    +0.239 C 
BRANCH  11  12
ATOM     12  N   LIG    1      -32.947  74.992  28.792  0.00  0.00    -0.262 N 
ATOM     13  N   LIG    1      -33.789  74.355  27.950  0.00  0.00    -0.176 NA
ATOM     14  C   LIG    1      -33.647  73.068  28.288  0.00  0.00    +0.066 A 
ATOM     15  C   LIG    1      -32.747  72.886  29.356  0.00  0.00    +0.044 A 
ATOM     16  C   LIG    1      -32.318  74.154  29.668  0.00  0.00    +0.109 A 
BRANCH  14  17
ATOM     17  C   LIG    1      -34.349  71.907  27.598  0.00  0.00    +0.040 C 
ATOM     18  C   LIG    1      -35.716  71.489  28.100  0.00  0.00    +0.010 C 
ATOM     19  C   LIG    1      -34.543  70.604  28.344  0.00  0.00    +0.010 C 
ENDBRANCH  14  17
ENDBRANCH  11  12
ENDBRANCH   9  11
ENDBRANCH   3   7
BRANCH   1  20
ATOM     20  C   LIG    1      -38.528  76.741  24.750  0.00  0.00    +0.197 C 
ATOM     21  O   LIG    1      -38.560  77.535  23.806  0.00  0.00    -0.287 OA
BRANCH  20  29
ATOM     22  N   LIG    1      -38.994  73.101  24.604  0.00  0.00    -0.329 N 
ATOM     23  C   LIG    1      -40.173  73.513  24.033  0.00  0.00    +0.145 A 
ATOM     24  N   LIG    1      -41.152  72.712  23.575  0.00  0.00    -0.218 NA
ATOM     25  C   LIG    1      -42.190  73.417  23.089  0.00  0.00    +0.223 A 
ATOM     26  N   LIG    1      -42.328  74.754  23.028  0.00  0.00    -0.243 NA
ATOM     27  C   LIG    1      -41.317  75.514  23.506  0.00  0.00    +0.124 A 
ATOM     28  C   LIG    1      -40.177  74.902  24.026  0.00  0.00    +0.048 A 
ATOM     29  C   LIG    1      -38.933  75.349  24.573  0.00  0.00    +0.051 A 
ATOM     30  C   LIG    1      -38.236  74.206  24.935  0.00  0.00    +0.100 A 
BRANCH  22  32
ATOM     31  C   LIG    1      -37.131  71.469  24.558  0.00  0.00    +0.030 C 
ATOM     32  C   LIG    1      -38.615  71.707  24.843  0.00  0.00    +0.083 C 
ATOM     33  C   LIG    1      -38.979  71.261  26.260  0.00  0.00    +0.030 C 
ENDBRANCH  22  32
ENDBRANCH  20  29
ENDBRANCH   1  20
TORSDOF 7
ENDMDL
MODEL 4
REMARK VINA RESULT:      -5.3      2.641      7.369
REMARK  Name = pdb/CHEMBL3661485.pdb
REMARK                            x       y       z     vdW  Elec       q    Type
REMARK                         _______ _______ _______ _____ _____    ______ ____
ROOT
ATOM      1  C   LIG    1      -25.441  78.524  34.785  0.00  0.00    +0.042 A 
ATOM      2  C   LIG    1      -24.623  78.190  33.699  0.00  0.00    +0.038 A 
ATOM      3  C   LIG    1      -25.073  77.282  32.733  0.00  0.00    +0.052 A 
ATOM      4  C   LIG    1      -26.338  76.728  32.920  0.00  0.00    +0.134 A 
ATOM      5  N   LIG    1      -27.147  77.017  33.971  0.00  0.00    -0.261 NA
ATOM      6  C   LIG    1      -26.677  77.897  34.885  0.00  0.00    +0.122 A 
ENDROOT
BRANCH   3   7
ATOM      7  N   LIG    1      -24.217  77.000  31.645  0.00  0.00    -0.283 N 
ATOM      8  H   LIG    1      -23.677  76.141  31.696  0.00  0.00    +0.155 HD
ATOM      9  C   LIG    1      -24.086  77.751  30.486  0.00  0.00    +0.239 C 
ATOM     10  O   LIG    1      -24.708  78.778  30.229  0.00  0.00    -0.273 OA
BRANCH   9  11
ATOM     11  C   LIG    1      -23.046  77.221  29.525  0.00  0.00    +0.239 C 
BRANCH  11  12
ATOM     12  N   LIG    1      -21.719  77.316  30.088  0.00  0.00    -0.262 N 
ATOM     13  N   LIG    1      -21.523  78.002  31.235  0.00  0.00    -0.176 NA
ATOM     14  C   LIG    1      -20.207  77.881  31.446  0.00  0.00    +0.066 A 
ATOM     15  C   LIG    1      -19.562  77.151  30.428  0.00  0.00    +0.044 A 
ATOM     16  C   LIG    1      -20.569  76.807  29.557  0.00  0.00    +0.109 A 
BRANCH  14  17
ATOM     17  C   LIG    1      -19.466  78.439  32.651  0.00  0.00    +0.040 C 
ATOM     18  C   LIG    1      -19.640  77.747  33.989  0.00  0.00    +0.010 C 
ATOM     19  C   LIG    1      -20.249  79.090  33.772  0.00  0.00    +0.010 C 
ENDBRANCH  14  17
ENDBRANCH  11  12
ENDBRANCH   9  11
ENDBRANCH   3   7
BRANCH   1  20
ATOM     20  C   LIG    1      -25.015  79.433  35.874  0.00  0.00    +0.197 C 
ATOM     21  O   LIG    1      -25.793  80.326  36.221  0.00  0.00    -0.287 OA
BRANCH  20  29
ATOM     22  N   LIG    1      -22.016  78.414  37.734  0.00  0.00    -0.329 N 
ATOM     23  C   LIG    1      -21.595  79.630  37.256  0.00  0.00    +0.145 A 
ATOM     24  N   LIG    1      -20.396  80.196  37.480  0.00  0.00    -0.218 NA
ATOM     25  C   LIG    1      -20.278  81.384  36.859  0.00  0.00    +0.223 A 
ATOM     26  N   LIG    1      -21.185  82.010  36.088  0.00  0.00    -0.243 NA
ATOM     27  C   LIG    1      -22.374  81.397  35.891  0.00  0.00    +0.124 A 
ATOM     28  C   LIG    1      -22.625  80.164  36.491  0.00  0.00    +0.048 A 
ATOM     29  C   LIG    1      -23.730  79.256  36.545  0.00  0.00    +0.051 A 
ATOM     30  C   LIG    1      -23.308  78.178  37.309  0.00  0.00    +0.100 A 
BRANCH  22  32
ATOM     31  C   LIG    1      -22.076  76.694  39.516  0.00  0.00    +0.030 C 
ATOM     32  C   LIG    1      -21.210  77.503  38.548  0.00  0.00    +0.083 C 
ATOM     33  C   LIG    1      -20.352  76.581  37.679  0.00  0.00    +0.030 C 
ENDBRANCH  22  32
ENDBRANCH  20  29
ENDBRANCH   1  20
TORSDOF 7
ENDMDL
MODEL 5
REMARK VINA RESULT:      -5.3     11.508     15.842
REMARK  Name = pdb/CHEMBL3661485.pdb
REMARK                            x       y       z     vdW  Elec       q    Type
REMARK                         _______ _______ _______ _____ _____    ______ ____
ROOT
ATOM      1  C   LIG    1      -32.676  85.688  30.663  0.00  0.00    +0.042 A 
ATOM      2  C   LIG    1      -33.118  84.761  29.713  0.00  0.00    +0.038 A 
ATOM      3  C   LIG    1      -34.226  83.949  29.986  0.00  0.00    +0.052 A 
ATOM      4  C   LIG    1      -34.832  84.098  31.232  0.00  0.00    +0.134 A 
ATOM      5  N   LIG    1      -34.417  84.975  32.181  0.00  0.00    -0.261 NA
ATOM      6  C   LIG    1      -33.342  85.740  31.881  0.00  0.00    +0.122 A 
ENDROOT
BRANCH   3   7
ATOM      7  N   LIG    1      -34.645  83.048  28.982  0.00  0.00    -0.283 N 
ATOM      8  H   LIG    1      -33.990  82.316  28.719  0.00  0.00    +0.155 HD
ATOM      9  C   LIG    1      -35.886  83.025  28.363  0.00  0.00    +0.239 C 
ATOM     10  O   LIG    1      -36.817  83.790  28.605  0.00  0.00    -0.273 OA
BRANCH   9  11
ATOM     11  C   LIG    1      -36.017  81.972  27.286  0.00  0.00    +0.239 C 
BRANCH  11  12
ATOM     12  N   LIG    1      -35.314  80.763  27.652  0.00  0.00    -0.262 N 
ATOM     13  N   LIG    1      -34.054  80.560  27.213  0.00  0.00    -0.176 NA
ATOM     14  C   LIG    1      -33.735  79.368  27.733  0.00  0.00    +0.066 A 
ATOM     15  C   LIG    1      -34.792  78.801  28.471  0.00  0.00    +0.044 A 
ATOM     16  C   LIG    1      -35.806  79.726  28.391  0.00  0.00    +0.109 A 
BRANCH  14  17
ATOM     17  C   LIG    1      -32.383  78.688  27.580  0.00  0.00    +0.040 C 
ATOM     18  C   LIG    1      -32.216  77.652  26.487  0.00  0.00    +0.010 C 
ATOM     19  C   LIG    1      -32.247  77.217  27.912  0.00  0.00    +0.010 C 
ENDBRANCH  14  17
ENDBRANCH  11  12
ENDBRANCH   9  11
ENDBRANCH   3   7
BRANCH   1  20
ATOM     20  C   LIG    1      -31.481  86.543  30.470  0.00  0.00    +0.197 C 
ATOM     21  O   LIG    1      -30.515  86.063  29.871  0.00  0.00    -0.287 OA
BRANCH  20  29
ATOM     22  N   LIG    1      -31.840  90.132  31.167  0.00  0.00    -0.329 N 
ATOM     23  C   LIG    1      -31.014  89.772  32.203  0.00  0.00    +0.145 A 
ATOM     24  N   LIG    1      -30.525  90.594  33.147  0.00  0.00    -0.218 NA
ATOM     25  C   LIG    1      -29.759  89.938  34.037  0.00  0.00    +0.223 A 
ATOM     26  N   LIG    1      -29.461  88.626  34.067  0.00  0.00    -0.243 NA
ATOM     27  C   LIG    1      -29.981  87.841  33.096  0.00  0.00    +0.124 A 
ATOM     28  C   LIG    1      -30.784  88.405  32.105  0.00  0.00    +0.048 A 
ATOM     29  C   LIG    1      -31.461  87.926  30.939  0.00  0.00    +0.051 A 
ATOM     30  C   LIG    1      -32.117  89.021  30.396  0.00  0.00    +0.100 A 
BRANCH  22  32
ATOM     31  C   LIG    1      -32.276  91.871  29.458  0.00  0.00    +0.030 C 
ATOM     32  C   LIG    1      -32.362  91.479  30.935  0.00  0.00    +0.083 C 
ATOM     33  C   LIG    1      -33.792  91.627  31.458  0.00  0.00    +0.030 C 
ENDBRANCH  22  32
ENDBRANCH  20  29
ENDBRANCH   1  20
TORSDOF 7
ENDMDL
MODEL 6
REMARK VINA RESULT:      -5.2     11.602     15.516
REMARK  Name = pdb/CHEMBL3661485.pdb
REMARK                            x       y       z     vdW  Elec       q    Type
REMARK                         _______ _______ _______ _____ _____    ______ ____
ROOT
ATOM      1  C   LIG    1      -32.632  85.464  30.874  0.00  0.00    +0.042 A 
ATOM      2  C   LIG    1      -33.075  84.563  29.899  0.00  0.00    +0.038 A 
ATOM      3  C   LIG    1      -34.206  83.772  30.135  0.00  0.00    +0.052 A 
ATOM      4  C   LIG    1      -34.836  83.913  31.369  0.00  0.00    +0.134 A 
ATOM      5  N   LIG    1      -34.422  84.765  32.342  0.00  0.00    -0.261 NA
ATOM      6  C   LIG    1      -33.324  85.511  32.078  0.00  0.00    +0.122 A 
ENDROOT
BRANCH   3   7
ATOM      7  N   LIG    1      -34.623  82.897  29.106  0.00  0.00    -0.283 N 
ATOM      8  H   LIG    1      -33.984  82.148  28.854  0.00  0.00    +0.155 HD
ATOM      9  C   LIG    1      -35.845  82.922  28.449  0.00  0.00    +0.239 C 
ATOM     10  O   LIG    1      -36.757  83.714  28.674  0.00  0.00    -0.273 OA
BRANCH   9  11
ATOM     11  C   LIG    1      -35.976  81.888  27.356  0.00  0.00    +0.239 C 
BRANCH  11  12
ATOM     12  N   LIG    1      -35.284  80.668  27.706  0.00  0.00    -0.262 N 
ATOM     13  N   LIG    1      -34.031  80.452  27.248  0.00  0.00    -0.176 NA
ATOM     14  C   LIG    1      -33.720  79.254  27.758  0.00  0.00    +0.066 A 
ATOM     15  C   LIG    1      -34.774  78.696  28.508  0.00  0.00    +0.044 A 
ATOM     16  C   LIG    1      -35.778  79.634  28.447  0.00  0.00    +0.109 A 
BRANCH  14  17
ATOM     17  C   LIG    1      -32.379  78.558  27.583  0.00  0.00    +0.040 C 
ATOM     18  C   LIG    1      -32.215  77.585  26.433  0.00  0.00    +0.010 C 
ATOM     19  C   LIG    1      -32.274  77.068  27.828  0.00  0.00    +0.010 C 
ENDBRANCH  14  17
ENDBRANCH  11  12
ENDBRANCH   9  11
ENDBRANCH   3   7
BRANCH   1  20
ATOM     20  C   LIG    1      -31.415  86.295  30.721  0.00  0.00    +0.197 C 
ATOM     21  O   LIG    1      -30.587  85.958  29.872  0.00  0.00    -0.287 OA
BRANCH  20  29
ATOM     22  N   LIG    1      -30.611  88.934  33.146  0.00  0.00    -0.329 N 
ATOM     23  C   LIG    1      -31.242  89.683  32.183  0.00  0.00    +0.145 A 
ATOM     24  N   LIG    1      -31.457  91.009  32.228  0.00  0.00    -0.218 NA
ATOM     25  C   LIG    1      -32.085  91.453  31.123  0.00  0.00    +0.223 A 
ATOM     26  N   LIG    1      -32.484  90.741  30.053  0.00  0.00    -0.243 NA
ATOM     27  C   LIG    1      -32.240  89.411  30.057  0.00  0.00    +0.124 A 
ATOM     28  C   LIG    1      -31.605  88.826  31.152  0.00  0.00    +0.048 A 
ATOM     29  C   LIG    1      -31.220  87.499  31.524  0.00  0.00    +0.051 A 
ATOM     30  C   LIG    1      -30.592  87.610  32.756  0.00  0.00    +0.100 A 
BRANCH  22  32
ATOM     31  C   LIG    1      -30.885  89.118  35.601  0.00  0.00    +0.030 C 
ATOM     32  C   LIG    1      -30.030  89.465  34.380  0.00  0.00    +0.083 C 
ATOM     33  C   LIG    1      -28.587  88.995  34.571  0.00  0.00    +0.030 C 
ENDBRANCH  22  32
ENDBRANCH  20  29
ENDBRANCH   1  20
TORSDOF 7
ENDMDL
MODEL 7
REMARK VINA RESULT:      -5.2     10.848     15.255
REMARK  Name = pdb/CHEMBL3661485.pdb
REMARK                            x       y       z     vdW  Elec       q    Type
REMARK                         _______ _______ _______ _____ _____    ______ ____
ROOT
ATOM      1  C   LIG    1      -33.791  75.027  29.061  0.00  0.00    +0.042 A 
ATOM      2  C   LIG    1      -34.835  75.195  28.144  0.00  0.00    +0.038 A 
ATOM      3  C   LIG    1      -34.816  76.268  27.245  0.00  0.00    +0.052 A 
ATOM      4  C   LIG    1      -33.739  77.148  27.327  0.00  0.00    +0.134 A 
ATOM      5  N   LIG    1      -32.720  77.023  28.216  0.00  0.00    -0.261 NA
ATOM      6  C   LIG    1      -32.775  75.975  29.069  0.00  0.00    +0.122 A 
ENDROOT
BRANCH   3   7
ATOM      7  N   LIG    1      -35.883  76.375  26.325  0.00  0.00    -0.283 N 
ATOM      8  H   LIG    1      -35.707  76.051  25.378  0.00  0.00    +0.155 HD
ATOM      9  C   LIG    1      -37.166  76.822  26.602  0.00  0.00    +0.239 C 
ATOM     10  O   LIG    1      -37.570  77.187  27.704  0.00  0.00    -0.273 OA
BRANCH   9  11
ATOM     11  C   LIG    1      -38.074  76.873  25.395  0.00  0.00    +0.239 C 
BRANCH  11  12
ATOM     12  N   LIG    1      -38.577  75.559  25.065  0.00  0.00    -0.262 N 
ATOM     13  N   LIG    1      -37.905  74.461  25.473  0.00  0.00    -0.176 NA
ATOM     14  C   LIG    1      -38.644  73.452  24.994  0.00  0.00    +0.066 A 
ATOM     15  C   LIG    1      -39.760  73.902  24.261  0.00  0.00    +0.044 A 
ATOM     16  C   LIG    1      -39.683  75.273  24.317  0.00  0.00    +0.109 A 
BRANCH  14  17
ATOM     17  C   LIG    1      -38.349  71.977  25.219  0.00  0.00    +0.040 C 
ATOM     18  C   LIG    1      -37.257  71.325  24.396  0.00  0.00    +0.010 C 
ATOM     19  C   LIG    1      -38.681  70.976  24.133  0.00  0.00    +0.010 C 
ENDBRANCH  14  17
ENDBRANCH  11  12
ENDBRANCH   9  11
ENDBRANCH   3   7
BRANCH   1  20
ATOM     20  C   LIG    1      -33.767  73.950  30.077  0.00  0.00    +0.197 C 
ATOM     21  O   LIG    1      -34.292  74.172  31.171  0.00  0.00    -0.287 OA
BRANCH  20  29
ATOM     22  N   LIG    1      -32.843  70.542  29.066  0.00  0.00    -0.329 N 
ATOM     23  C   LIG    1      -31.651  70.959  29.606  0.00  0.00    +0.145 A 
ATOM     24  N   LIG    1      -30.526  70.229  29.694  0.00  0.00    -0.218 NA
ATOM     25  C   LIG    1      -29.520  70.924  30.258  0.00  0.00    +0.223 A 
ATOM     26  N   LIG    1      -29.539  72.193  30.706  0.00  0.00    -0.243 NA
ATOM     27  C   LIG    1      -30.695  72.884  30.590  0.00  0.00    +0.124 A 
ATOM     28  C   LIG    1      -31.816  72.271  30.032  0.00  0.00    +0.048 A 
ATOM     29  C   LIG    1      -33.173  72.649  29.782  0.00  0.00    +0.051 A 
ATOM     30  C   LIG    1      -33.771  71.558  29.167  0.00  0.00    +0.100 A 
BRANCH  22  32
ATOM     31  C   LIG    1      -33.966  68.351  29.343  0.00  0.00    +0.030 C 
ATOM     32  C   LIG    1      -33.080  69.231  28.458  0.00  0.00    +0.083 C 
ATOM     33  C   LIG    1      -33.669  69.361  27.052  0.00  0.00    +0.030 C 
ENDBRANCH  22  32
ENDBRANCH  20  29
ENDBRANCH   1  20
TORSDOF 7
ENDMDL
MODEL 8
REMARK VINA RESULT:      -5.2     14.135     18.091
REMARK  Name = pdb/CHEMBL3661485.pdb
REMARK                            x       y       z     vdW  Elec       q    Type
REMARK                         _______ _______ _______ _____ _____    ______ ____
ROOT
ATOM      1  C   LIG    1      -39.592  76.609  24.308  0.00  0.00    +0.042 A 
ATOM      2  C   LIG    1      -38.376  76.959  24.906  0.00  0.00    +0.038 A 
ATOM      3  C   LIG    1      -37.499  75.962  25.353  0.00  0.00    +0.052 A 
ATOM      4  C   LIG    1      -37.906  74.639  25.194  0.00  0.00    +0.134 A 
ATOM      5  N   LIG    1      -39.086  74.268  24.635  0.00  0.00    -0.261 NA
ATOM      6  C   LIG    1      -39.906  75.259  24.217  0.00  0.00    +0.122 A 
ENDROOT
BRANCH   3   7
ATOM      7  N   LIG    1      -36.274  76.372  25.926  0.00  0.00    -0.283 N 
ATOM      8  H   LIG    1      -35.657  76.929  25.341  0.00  0.00    +0.155 HD
ATOM      9  C   LIG    1      -35.858  76.141  27.229  0.00  0.00    +0.239 C 
ATOM     10  O   LIG    1      -36.504  75.546  28.088  0.00  0.00    -0.273 OA
BRANCH   9  11
ATOM     11  C   LIG    1      -34.470  76.658  27.531  0.00  0.00    +0.239 C 
BRANCH  11  12
ATOM     12  N   LIG    1      -34.474  78.094  27.697  0.00  0.00    -0.262 N 
ATOM     13  N   LIG    1      -35.644  78.750  27.849  0.00  0.00    -0.176 NA
ATOM     14  C   LIG    1      -35.267  80.028  27.969  0.00  0.00    +0.066 A 
ATOM     15  C   LIG    1      -33.872  80.192  27.864  0.00  0.00    +0.044 A 
ATOM     16  C   LIG    1      -33.386  78.919  27.678  0.00  0.00    +0.109 A 
BRANCH  14  17
ATOM     17  C   LIG    1      -36.214  81.193  28.215  0.00  0.00    +0.040 C 
ATOM     18  C   LIG    1      -37.392  81.376  27.279  0.00  0.00    +0.010 C 
ATOM     19  C   LIG    1      -36.258  82.340  27.226  0.00  0.00    +0.010 C 
ENDBRANCH  14  17
ENDBRANCH  11  12
ENDBRANCH   9  11
ENDBRANCH   3   7
BRANCH   1  20
ATOM     20  C   LIG    1      -40.593  77.604  23.859  0.00  0.00    +0.197 C 
ATOM     21  O   LIG    1      -41.542  77.205  23.180  0.00  0.00    -0.287 OA
BRANCH  20  29
ATOM     22  N   LIG    1      -40.110  81.227  24.215  0.00  0.00    -0.329 N 
ATOM     23  C   LIG    1      -40.616  80.934  25.457  0.00  0.00    +0.145 A 
ATOM     24  N   LIG    1      -40.825  81.812  26.453  0.00  0.00    -0.218 NA
ATOM     25  C   LIG    1      -41.348  81.220  27.543  0.00  0.00    +0.223 A 
ATOM     26  N   LIG    1      -41.662  79.922  27.711  0.00  0.00    -0.243 NA
ATOM     27  C   LIG    1      -41.436  79.081  26.677  0.00  0.00    +0.124 A 
ATOM     28  C   LIG    1      -40.884  79.571  25.493  0.00  0.00    +0.048 A 
ATOM     29  C   LIG    1      -40.482  79.009  24.240  0.00  0.00    +0.051 A 
ATOM     30  C   LIG    1      -40.025  80.068  23.470  0.00  0.00    +0.100 A 
BRANCH  22  32
ATOM     31  C   LIG    1      -38.271  82.878  24.040  0.00  0.00    +0.030 C 
ATOM     32  C   LIG    1      -39.741  82.565  23.750  0.00  0.00    +0.083 C 
ATOM     33  C   LIG    1      -40.058  82.753  22.265  0.00  0.00    +0.030 C 
ENDBRANCH  22  32
ENDBRANCH  20  29
ENDBRANCH   1  20
TORSDOF 7
ENDMDL
MODEL 9
REMARK VINA RESULT:      -5.1      3.011      8.664
REMARK  Name = pdb/CHEMBL3661485.pdb
REMARK                            x       y       z     vdW  Elec       q    Type
REMARK                         _______ _______ _______ _____ _____    ______ ____
ROOT
ATOM      1  C   LIG    1      -25.594  75.744  31.410  0.00  0.00    +0.042 A 
ATOM      2  C   LIG    1      -25.194  74.405  31.344  0.00  0.00    +0.038 A 
ATOM      3  C   LIG    1      -25.967  73.409  31.954  0.00  0.00    +0.052 A 
ATOM      4  C   LIG    1      -27.114  73.819  32.631  0.00  0.00    +0.134 A 
ATOM      5  N   LIG    1      -27.519  75.111  32.728  0.00  0.00    -0.261 NA
ATOM      6  C   LIG    1      -26.745  76.044  32.127  0.00  0.00    +0.122 A 
ENDROOT
BRANCH   3   7
ATOM      7  N   LIG    1      -25.530  72.071  31.835  0.00  0.00    -0.283 N 
ATOM      8  H   LIG    1      -26.028  71.482  31.173  0.00  0.00    +0.155 HD
ATOM      9  C   LIG    1      -24.447  71.498  32.487  0.00  0.00    +0.239 C 
ATOM     10  O   LIG    1      -23.697  72.080  33.267  0.00  0.00    -0.273 OA
BRANCH   9  11
ATOM     11  C   LIG    1      -24.262  70.027  32.195  0.00  0.00    +0.239 C 
BRANCH  11  12
ATOM     12  N   LIG    1      -24.671  69.708  30.846  0.00  0.00    -0.262 N 
ATOM     13  N   LIG    1      -23.873  70.037  29.807  0.00  0.00    -0.176 NA
ATOM     14  C   LIG    1      -24.558  69.601  28.743  0.00  0.00    +0.066 A 
ATOM     15  C   LIG    1      -25.795  69.027  29.096  0.00  0.00    +0.044 A 
ATOM     16  C   LIG    1      -25.843  69.120  30.467  0.00  0.00    +0.109 A 
BRANCH  14  17
ATOM     17  C   LIG    1      -24.071  69.682  27.304  0.00  0.00    +0.040 C 
ATOM     18  C   LIG    1      -24.000  71.043  26.642  0.00  0.00    +0.010 C 
ATOM     19  C   LIG    1      -25.042  70.070  26.209  0.00  0.00    +0.010 C 
ENDBRANCH  14  17
ENDBRANCH  11  12
ENDBRANCH   9  11
ENDBRANCH   3   7
BRANCH   1  20
ATOM     20  C   LIG    1      -24.803  76.858  30.837  0.00  0.00    +0.197 C 
ATOM     21  O   LIG    1      -25.253  77.438  29.845  0.00  0.00    -0.287 OA
BRANCH  20  29
ATOM     22  N   LIG    1      -22.012  78.089  32.882  0.00  0.00    -0.329 N 
ATOM     23  C   LIG    1      -21.321  77.654  31.777  0.00  0.00    +0.145 A 
ATOM     24  N   LIG    1      -19.990  77.721  31.600  0.00  0.00    -0.218 NA
ATOM     25  C   LIG    1      -19.614  77.196  30.419  0.00  0.00    +0.223 A 
ATOM     26  N   LIG    1      -20.394  76.646  29.470  0.00  0.00    -0.243 NA
ATOM     27  C   LIG    1      -21.725  76.600  29.699  0.00  0.00    +0.124 A 
ATOM     28  C   LIG    1      -22.243  77.124  30.883  0.00  0.00    +0.048 A 
ATOM     29  C   LIG    1      -23.548  77.284  31.449  0.00  0.00    +0.051 A 
ATOM     30  C   LIG    1      -23.361  77.868  32.693  0.00  0.00    +0.100 A 
BRANCH  22  32
ATOM     31  C   LIG    1      -22.316  79.720  34.720  0.00  0.00    +0.030 C 
ATOM     32  C   LIG    1      -21.405  78.672  34.079  0.00  0.00    +0.083 C 
ATOM     33  C   LIG    1      -21.011  77.595  35.092  0.00  0.00    +0.030 C 
ENDBRANCH  22  32
ENDBRANCH  20  29
ENDBRANCH   1  20
TORSDOF 7
ENDMDL
