MODEL 1
REMARK VINA RESULT:      -6.1      0.000      0.000
REMARK  Name = pdb/CHEMBL3659498.pdb
REMARK                            x       y       z     vdW  Elec       q    Type
REMARK                         _______ _______ _______ _____ _____    ______ ____
ROOT
ATOM      1  N   LIG    1      -34.614  83.862  29.565  0.00  0.00    -0.266 N 
ATOM      2  C   LIG    1      -34.858  82.537  29.250  0.00  0.00    +0.168 A 
ATOM      3  N   LIG    1      -34.038  81.457  29.345  0.00  0.00    -0.213 NA
ATOM      4  C   LIG    1      -34.602  80.299  28.929  0.00  0.00    +0.122 A 
ATOM      5  C   LIG    1      -35.910  80.212  28.435  0.00  0.00    +0.046 A 
ATOM      6  C   LIG    1      -36.709  81.342  28.322  0.00  0.00    +0.035 A 
ATOM      7  C   LIG    1      -36.169  82.540  28.769  0.00  0.00    +0.108 A 
ATOM      8  N   LIG    1      -36.735  83.779  28.823  0.00  0.00    -0.234 NA
ATOM      9  C   LIG    1      -35.792  84.543  29.322  0.00  0.00    +0.207 A 
ENDROOT
BRANCH   1  14
ATOM     10  C   LIG    1      -31.573  85.680  30.265  0.00  0.00    +0.213 A 
ATOM     11  N   LIG    1      -31.801  84.870  31.342  0.00  0.00    -0.245 N 
ATOM     12  H   LIG    1      -31.231  84.778  32.177  0.00  0.00    +0.192 HD
ATOM     13  N   LIG    1      -32.901  84.084  31.211  0.00  0.00    -0.153 NA
ATOM     14  C   LIG    1      -33.409  84.462  30.025  0.00  0.00    +0.165 A 
ATOM     15  C   LIG    1      -32.622  85.440  29.407  0.00  0.00    +0.115 A 
BRANCH  10  16
ATOM     16  O   LIG    1      -30.504  86.458  30.218  0.00  0.00    -0.477 OA
BRANCH  16  18
ATOM     17  C   LIG    1      -29.235  87.985  31.628  0.00  0.00    +0.048 C 
ATOM     18  C   LIG    1      -30.572  87.657  30.996  0.00  0.00    +0.227 C 
ENDBRANCH  16  18
ENDBRANCH  10  16
ENDBRANCH   1  14
BRANCH   4  19
ATOM     19  N   LIG    1      -33.815  79.157  29.049  0.00  0.00    -0.318 N 
ATOM     20  H   LIG    1      -33.015  79.360  29.645  0.00  0.00    +0.148 HD
BRANCH  19  21
ATOM     21  CA  LIG    1      -33.505  78.385  27.836  0.00  0.00    +0.146 C 
BRANCH  21  22
ATOM     22  C   LIG    1      -33.265  76.921  28.205  0.00  0.00    +0.064 A 
ATOM     23  N   LIG    1      -32.256  76.632  29.072  0.00  0.00    -0.255 NA
ATOM     24  C   LIG    1      -32.058  75.327  29.373  0.00  0.00    +0.149 A 
ATOM     25  C   LIG    1      -32.808  74.295  28.842  0.00  0.00    +0.141 A 
ATOM     26  F   LIG    1      -32.567  73.027  29.195  0.00  0.00    -0.204 F 
ATOM     27  C   LIG    1      -33.817  74.590  27.941  0.00  0.00    +0.042 A 
ATOM     28  C   LIG    1      -34.051  75.924  27.612  0.00  0.00    +0.028 A 
ENDBRANCH  21  22
BRANCH  21  29
ATOM     29  C   LIG    1      -32.322  79.014  27.061  0.00  0.00    +0.184 C 
BRANCH  29  30
ATOM     30  O   LIG    1      -32.356  78.677  25.673  0.00  0.00    -0.393 OA
ATOM     31  H   LIG    1      -32.741  79.461  25.230  0.00  0.00    +0.209 HD
ENDBRANCH  29  30
ENDBRANCH  21  29
ENDBRANCH  19  21
ENDBRANCH   4  19
TORSDOF 8
ENDMDL
MODEL 2
REMARK VINA RESULT:      -6.0     11.757     15.320
REMARK  Name = pdb/CHEMBL3659498.pdb
REMARK                            x       y       z     vdW  Elec       q    Type
REMARK                         _______ _______ _______ _____ _____    ______ ____
ROOT
ATOM      1  N   LIG    1      -21.550  77.471  31.026  0.00  0.00    -0.266 N 
ATOM      2  C   LIG    1      -20.930  78.020  32.135  0.00  0.00    +0.168 A 
ATOM      3  N   LIG    1      -21.475  78.538  33.267  0.00  0.00    -0.213 NA
ATOM      4  C   LIG    1      -20.565  79.011  34.150  0.00  0.00    +0.122 A 
ATOM      5  C   LIG    1      -19.183  78.983  33.922  0.00  0.00    +0.046 A 
ATOM      6  C   LIG    1      -18.663  78.475  32.739  0.00  0.00    +0.035 A 
ATOM      7  C   LIG    1      -19.569  77.954  31.827  0.00  0.00    +0.108 A 
ATOM      8  N   LIG    1      -19.341  77.357  30.623  0.00  0.00    -0.234 NA
ATOM      9  C   LIG    1      -20.539  77.060  30.178  0.00  0.00    +0.207 A 
ENDROOT
BRANCH   1  14
ATOM     10  C   LIG    1      -25.104  76.871  30.797  0.00  0.00    +0.213 A 
ATOM     11  N   LIG    1      -24.770  77.651  29.727  0.00  0.00    -0.245 N 
ATOM     12  H   LIG    1      -25.386  77.995  28.997  0.00  0.00    +0.192 HD
ATOM     13  N   LIG    1      -23.443  77.935  29.650  0.00  0.00    -0.153 NA
ATOM     14  C   LIG    1      -22.940  77.350  30.751  0.00  0.00    +0.165 A 
ATOM     15  C   LIG    1      -23.927  76.681  31.485  0.00  0.00    +0.115 A 
BRANCH  10  16
ATOM     16  O   LIG    1      -26.349  76.459  30.973  0.00  0.00    -0.477 OA
BRANCH  16  18
ATOM     17  C   LIG    1      -27.079  76.903  33.254  0.00  0.00    +0.048 C 
ATOM     18  C   LIG    1      -26.635  75.865  32.244  0.00  0.00    +0.227 C 
ENDBRANCH  16  18
ENDBRANCH  10  16
ENDBRANCH   1  14
BRANCH   4  19
ATOM     19  N   LIG    1      -21.074  79.510  35.346  0.00  0.00    -0.318 N 
ATOM     20  H   LIG    1      -21.910  78.987  35.600  0.00  0.00    +0.148 HD
BRANCH  19  21
ATOM     21  CA  LIG    1      -21.180  80.968  35.510  0.00  0.00    +0.146 C 
BRANCH  21  22
ATOM     22  C   LIG    1      -20.436  81.398  36.774  0.00  0.00    +0.064 A 
ATOM     23  N   LIG    1      -20.579  82.683  37.201  0.00  0.00    -0.255 NA
ATOM     24  C   LIG    1      -19.900  83.041  38.316  0.00  0.00    +0.149 A 
ATOM     25  C   LIG    1      -19.074  82.185  39.019  0.00  0.00    +0.141 A 
ATOM     26  F   LIG    1      -18.444  82.602  40.124  0.00  0.00    -0.204 F 
ATOM     27  C   LIG    1      -18.911  80.886  38.569  0.00  0.00    +0.042 A 
ATOM     28  C   LIG    1      -19.599  80.482  37.426  0.00  0.00    +0.028 A 
ENDBRANCH  21  22
BRANCH  21  29
ATOM     29  C   LIG    1      -22.659  81.425  35.496  0.00  0.00    +0.184 C 
BRANCH  29  30
ATOM     30  O   LIG    1      -22.775  82.850  35.463  0.00  0.00    -0.393 OA
ATOM     31  H   LIG    1      -23.602  83.026  34.970  0.00  0.00    +0.209 HD
ENDBRANCH  29  30
ENDBRANCH  21  29
ENDBRANCH  19  21
ENDBRANCH   4  19
TORSDOF 8
ENDMDL
MODEL 3
REMARK VINA RESULT:      -5.9      5.356      7.762
REMARK  Name = pdb/CHEMBL3659498.pdb
REMARK                            x       y       z     vdW  Elec       q    Type
REMARK                         _______ _______ _______ _____ _____    ______ ____
ROOT
ATOM      1  N   LIG    1      -40.121  78.721  24.102  0.00  0.00    -0.266 N 
ATOM      2  C   LIG    1      -39.421  77.581  24.456  0.00  0.00    +0.168 A 
ATOM      3  N   LIG    1      -38.159  77.454  24.945  0.00  0.00    -0.213 NA
ATOM      4  C   LIG    1      -37.781  76.174  25.168  0.00  0.00    +0.122 A 
ATOM      5  C   LIG    1      -38.606  75.071  24.912  0.00  0.00    +0.046 A 
ATOM      6  C   LIG    1      -39.878  75.237  24.381  0.00  0.00    +0.035 A 
ATOM      7  C   LIG    1      -40.306  76.539  24.171  0.00  0.00    +0.108 A 
ATOM      8  N   LIG    1      -41.506  76.994  23.712  0.00  0.00    -0.234 NA
ATOM      9  C   LIG    1      -41.374  78.300  23.702  0.00  0.00    +0.207 A 
ENDROOT
BRANCH   1  14
ATOM     10  C   LIG    1      -39.044  82.123  24.663  0.00  0.00    +0.213 A 
ATOM     11  N   LIG    1      -38.994  81.915  23.313  0.00  0.00    -0.245 N 
ATOM     12  H   LIG    1      -38.721  82.579  22.595  0.00  0.00    +0.192 HD
ATOM     13  N   LIG    1      -39.412  80.679  22.935  0.00  0.00    -0.153 NA
ATOM     14  C   LIG    1      -39.681  80.074  24.105  0.00  0.00    +0.165 A 
ATOM     15  C   LIG    1      -39.471  80.928  25.195  0.00  0.00    +0.115 A 
BRANCH  10  16
ATOM     16  O   LIG    1      -38.727  83.299  25.179  0.00  0.00    -0.477 OA
BRANCH  16  18
ATOM     17  C   LIG    1      -36.341  83.674  25.491  0.00  0.00    +0.048 C 
ATOM     18  C   LIG    1      -37.563  83.926  24.631  0.00  0.00    +0.227 C 
ENDBRANCH  16  18
ENDBRANCH  10  16
ENDBRANCH   1  14
BRANCH   4  19
ATOM     19  N   LIG    1      -36.512  75.996  25.712  0.00  0.00    -0.318 N 
ATOM     20  H   LIG    1      -36.122  75.118  25.375  0.00  0.00    +0.148 HD
BRANCH  19  21
ATOM     21  CA  LIG    1      -36.320  76.249  27.148  0.00  0.00    +0.146 C 
BRANCH  21  22
ATOM     22  C   LIG    1      -35.023  77.028  27.364  0.00  0.00    +0.064 A 
ATOM     23  N   LIG    1      -35.105  78.369  27.588  0.00  0.00    -0.255 NA
ATOM     24  C   LIG    1      -33.941  79.036  27.765  0.00  0.00    +0.149 A 
ATOM     25  C   LIG    1      -32.697  78.436  27.717  0.00  0.00    +0.141 A 
ATOM     26  F   LIG    1      -31.587  79.154  27.916  0.00  0.00    -0.204 F 
ATOM     27  C   LIG    1      -32.616  77.077  27.464  0.00  0.00    +0.042 A 
ATOM     28  C   LIG    1      -33.795  76.358  27.281  0.00  0.00    +0.028 A 
ENDBRANCH  21  22
BRANCH  21  29
ATOM     29  C   LIG    1      -36.376  74.933  27.960  0.00  0.00    +0.184 C 
BRANCH  29  30
ATOM     30  O   LIG    1      -36.139  73.789  27.137  0.00  0.00    -0.393 OA
ATOM     31  H   LIG    1      -35.670  73.153  27.715  0.00  0.00    +0.209 HD
ENDBRANCH  29  30
ENDBRANCH  21  29
ENDBRANCH  19  21
ENDBRANCH   4  19
TORSDOF 8
ENDMDL
MODEL 4
REMARK VINA RESULT:      -5.8     11.340     15.239
REMARK  Name = pdb/CHEMBL3659498.pdb
REMARK                            x       y       z     vdW  Elec       q    Type
REMARK                         _______ _______ _______ _____ _____    ______ ____
ROOT
ATOM      1  N   LIG    1      -24.877  70.267  29.592  0.00  0.00    -0.266 N 
ATOM      2  C   LIG    1      -25.128  71.401  30.344  0.00  0.00    +0.168 A 
ATOM      3  N   LIG    1      -24.326  72.469  30.598  0.00  0.00    -0.213 NA
ATOM      4  C   LIG    1      -24.890  73.405  31.396  0.00  0.00    +0.122 A 
ATOM      5  C   LIG    1      -26.182  73.288  31.927  0.00  0.00    +0.046 A 
ATOM      6  C   LIG    1      -26.961  72.167  31.672  0.00  0.00    +0.035 A 
ATOM      7  C   LIG    1      -26.422  71.204  30.831  0.00  0.00    +0.108 A 
ATOM      8  N   LIG    1      -26.973  70.043  30.377  0.00  0.00    -0.234 NA
ATOM      9  C   LIG    1      -26.037  69.516  29.623  0.00  0.00    +0.207 A 
ENDROOT
BRANCH   1  14
ATOM     10  C   LIG    1      -21.653  69.165  28.395  0.00  0.00    +0.213 A 
ATOM     11  N   LIG    1      -22.373  69.535  27.294  0.00  0.00    -0.245 N 
ATOM     12  H   LIG    1      -22.071  69.519  26.325  0.00  0.00    +0.192 HD
ATOM     13  N   LIG    1      -23.610  70.015  27.586  0.00  0.00    -0.153 NA
ATOM     14  C   LIG    1      -23.681  69.887  28.923  0.00  0.00    +0.165 A 
ATOM     15  C   LIG    1      -22.498  69.370  29.462  0.00  0.00    +0.115 A 
BRANCH  10  16
ATOM     16  O   LIG    1      -20.407  68.736  28.277  0.00  0.00    -0.477 OA
BRANCH  16  18
ATOM     17  C   LIG    1      -18.433  70.118  27.922  0.00  0.00    +0.048 C 
ATOM     18  C   LIG    1      -19.410  69.534  28.922  0.00  0.00    +0.227 C 
ENDBRANCH  16  18
ENDBRANCH  10  16
ENDBRANCH   1  14
BRANCH   4  19
ATOM     19  N   LIG    1      -24.123  74.539  31.648  0.00  0.00    -0.318 N 
ATOM     20  H   LIG    1      -24.398  74.939  32.543  0.00  0.00    +0.148 HD
BRANCH  19  21
ATOM     21  CA  LIG    1      -23.934  75.514  30.564  0.00  0.00    +0.146 C 
BRANCH  21  22
ATOM     22  C   LIG    1      -22.448  75.846  30.424  0.00  0.00    +0.064 A 
ATOM     23  N   LIG    1      -22.048  76.573  29.345  0.00  0.00    -0.255 NA
ATOM     24  C   LIG    1      -20.726  76.843  29.240  0.00  0.00    +0.149 A 
ATOM     25  C   LIG    1      -19.780  76.413  30.151  0.00  0.00    +0.141 A 
ATOM     26  F   LIG    1      -18.490  76.730  29.992  0.00  0.00    -0.204 F 
ATOM     27  C   LIG    1      -20.187  75.652  31.234  0.00  0.00    +0.042 A 
ATOM     28  C   LIG    1      -21.541  75.359  31.376  0.00  0.00    +0.028 A 
ENDBRANCH  21  22
BRANCH  21  29
ATOM     29  C   LIG    1      -24.814  76.769  30.781  0.00  0.00    +0.184 C 
BRANCH  29  30
ATOM     30  O   LIG    1      -25.078  77.453  29.554  0.00  0.00    -0.393 OA
ATOM     31  H   LIG    1      -24.355  77.183  28.952  0.00  0.00    +0.209 HD
ENDBRANCH  29  30
ENDBRANCH  21  29
ENDBRANCH  19  21
ENDBRANCH   4  19
TORSDOF 8
ENDMDL
MODEL 5
REMARK VINA RESULT:      -5.8     11.060     14.303
REMARK  Name = pdb/CHEMBL3659498.pdb
REMARK                            x       y       z     vdW  Elec       q    Type
REMARK                         _______ _______ _______ _____ _____    ______ ____
ROOT
ATOM      1  N   LIG    1      -21.787  77.263  30.597  0.00  0.00    -0.266 N 
ATOM      2  C   LIG    1      -20.931  77.799  31.544  0.00  0.00    +0.168 A 
ATOM      3  N   LIG    1      -21.217  78.427  32.715  0.00  0.00    -0.213 NA
ATOM      4  C   LIG    1      -20.125  78.845  33.396  0.00  0.00    +0.122 A 
ATOM      5  C   LIG    1      -18.814  78.661  32.939  0.00  0.00    +0.046 A 
ATOM      6  C   LIG    1      -18.561  78.044  31.721  0.00  0.00    +0.035 A 
ATOM      7  C   LIG    1      -19.659  77.576  31.014  0.00  0.00    +0.108 A 
ATOM      8  N   LIG    1      -19.704  76.899  29.832  0.00  0.00    -0.234 NA
ATOM      9  C   LIG    1      -20.985  76.707  29.619  0.00  0.00    +0.207 A 
ENDROOT
BRANCH   1  14
ATOM     10  C   LIG    1      -25.365  76.827  30.832  0.00  0.00    +0.213 A 
ATOM     11  N   LIG    1      -25.157  77.990  30.143  0.00  0.00    -0.245 N 
ATOM     12  H   LIG    1      -25.859  78.613  29.758  0.00  0.00    +0.192 HD
ATOM     13  N   LIG    1      -23.844  78.275  29.937  0.00  0.00    -0.153 NA
ATOM     14  C   LIG    1      -23.209  77.275  30.571  0.00  0.00    +0.165 A 
ATOM     15  C   LIG    1      -24.106  76.359  31.134  0.00  0.00    +0.115 A 
BRANCH  10  16
ATOM     16  O   LIG    1      -26.590  76.383  31.057  0.00  0.00    -0.477 OA
BRANCH  16  18
ATOM     17  C   LIG    1      -28.705  77.054  32.061  0.00  0.00    +0.048 C 
ATOM     18  C   LIG    1      -27.215  76.860  32.253  0.00  0.00    +0.227 C 
ENDBRANCH  16  18
ENDBRANCH  10  16
ENDBRANCH   1  14
BRANCH   4  19
ATOM     19  N   LIG    1      -20.366  79.454  34.625  0.00  0.00    -0.318 N 
ATOM     20  H   LIG    1      -19.490  79.536  35.137  0.00  0.00    +0.148 HD
BRANCH  19  21
ATOM     21  CA  LIG    1      -21.512  78.995  35.425  0.00  0.00    +0.146 C 
BRANCH  21  22
ATOM     22  C   LIG    1      -22.395  80.189  35.790  0.00  0.00    +0.064 A 
ATOM     23  N   LIG    1      -21.793  81.387  36.026  0.00  0.00    -0.255 NA
ATOM     24  C   LIG    1      -22.597  82.424  36.358  0.00  0.00    +0.149 A 
ATOM     25  C   LIG    1      -23.970  82.323  36.481  0.00  0.00    +0.141 A 
ATOM     26  F   LIG    1      -24.706  83.394  36.799  0.00  0.00    -0.204 F 
ATOM     27  C   LIG    1      -24.576  81.096  36.266  0.00  0.00    +0.042 A 
ATOM     28  C   LIG    1      -23.779  80.008  35.917  0.00  0.00    +0.028 A 
ENDBRANCH  21  22
BRANCH  21  29
ATOM     29  C   LIG    1      -21.044  78.190  36.661  0.00  0.00    +0.184 C 
BRANCH  29  30
ATOM     30  O   LIG    1      -20.936  79.015  37.824  0.00  0.00    -0.393 OA
ATOM     31  H   LIG    1      -20.318  79.731  37.572  0.00  0.00    +0.209 HD
ENDBRANCH  29  30
ENDBRANCH  21  29
ENDBRANCH  19  21
ENDBRANCH   4  19
TORSDOF 8
ENDMDL
MODEL 6
REMARK VINA RESULT:      -5.8     11.683     13.784
REMARK  Name = pdb/CHEMBL3659498.pdb
REMARK                            x       y       z     vdW  Elec       q    Type
REMARK                         _______ _______ _______ _____ _____    ______ ____
ROOT
ATOM      1  N   LIG    1      -18.931  78.465  33.163  0.00  0.00    -0.266 N 
ATOM      2  C   LIG    1      -19.845  77.828  32.342  0.00  0.00    +0.168 A 
ATOM      3  N   LIG    1      -21.185  77.659  32.501  0.00  0.00    -0.213 NA
ATOM      4  C   LIG    1      -21.774  76.962  31.502  0.00  0.00    +0.122 A 
ATOM      5  C   LIG    1      -21.074  76.449  30.402  0.00  0.00    +0.046 A 
ATOM      6  C   LIG    1      -19.700  76.614  30.289  0.00  0.00    +0.035 A 
ATOM      7  C   LIG    1      -19.071  77.351  31.282  0.00  0.00    +0.108 A 
ATOM      8  N   LIG    1      -17.761  77.706  31.400  0.00  0.00    -0.234 NA
ATOM      9  C   LIG    1      -17.711  78.388  32.520  0.00  0.00    +0.207 A 
ENDROOT
BRANCH   1  14
ATOM     10  C   LIG    1      -19.943  80.201  36.165  0.00  0.00    +0.213 A 
ATOM     11  N   LIG    1      -18.769  79.565  36.458  0.00  0.00    -0.245 N 
ATOM     12  H   LIG    1      -18.263  79.577  37.338  0.00  0.00    +0.192 HD
ATOM     13  N   LIG    1      -18.235  78.892  35.405  0.00  0.00    -0.153 NA
ATOM     14  C   LIG    1      -19.144  79.073  34.432  0.00  0.00    +0.165 A 
ATOM     15  C   LIG    1      -20.211  79.874  34.855  0.00  0.00    +0.115 A 
BRANCH  10  16
ATOM     16  O   LIG    1      -20.552  80.949  37.071  0.00  0.00    -0.477 OA
BRANCH  16  18
ATOM     17  C   LIG    1      -22.422  82.394  36.482  0.00  0.00    +0.048 C 
ATOM     18  C   LIG    1      -20.921  82.264  36.645  0.00  0.00    +0.227 C 
ENDBRANCH  16  18
ENDBRANCH  10  16
ENDBRANCH   1  14
BRANCH   4  19
ATOM     19  N   LIG    1      -23.154  76.802  31.598  0.00  0.00    -0.318 N 
ATOM     20  H   LIG    1      -23.450  76.056  30.972  0.00  0.00    +0.148 HD
BRANCH  19  21
ATOM     21  CA  LIG    1      -24.004  78.001  31.581  0.00  0.00    +0.146 C 
BRANCH  21  22
ATOM     22  C   LIG    1      -24.556  78.260  32.983  0.00  0.00    +0.064 A 
ATOM     23  N   LIG    1      -25.696  77.617  33.356  0.00  0.00    -0.255 NA
ATOM     24  C   LIG    1      -26.169  77.873  34.599  0.00  0.00    +0.149 A 
ATOM     25  C   LIG    1      -25.569  78.749  35.483  0.00  0.00    +0.141 A 
ATOM     26  F   LIG    1      -26.083  78.944  36.703  0.00  0.00    -0.204 F 
ATOM     27  C   LIG    1      -24.423  79.421  35.091  0.00  0.00    +0.042 A 
ATOM     28  C   LIG    1      -23.907  79.178  33.820  0.00  0.00    +0.028 A 
ENDBRANCH  21  22
BRANCH  21  29
ATOM     29  C   LIG    1      -25.114  77.884  30.509  0.00  0.00    +0.184 C 
BRANCH  29  30
ATOM     30  O   LIG    1      -25.786  76.624  30.572  0.00  0.00    -0.393 OA
ATOM     31  H   LIG    1      -25.339  76.134  31.292  0.00  0.00    +0.209 HD
ENDBRANCH  29  30
ENDBRANCH  21  29
ENDBRANCH  19  21
ENDBRANCH   4  19
TORSDOF 8
ENDMDL
MODEL 7
REMARK VINA RESULT:      -5.7      8.132     11.217
REMARK  Name = pdb/CHEMBL3659498.pdb
REMARK                            x       y       z     vdW  Elec       q    Type
REMARK                         _______ _______ _______ _____ _____    ______ ____
ROOT
ATOM      1  N   LIG    1      -40.141  75.043  24.185  0.00  0.00    -0.266 N 
ATOM      2  C   LIG    1      -40.256  73.683  23.953  0.00  0.00    +0.168 A 
ATOM      3  N   LIG    1      -39.404  72.673  24.270  0.00  0.00    -0.213 NA
ATOM      4  C   LIG    1      -39.827  71.451  23.873  0.00  0.00    +0.122 A 
ATOM      5  C   LIG    1      -41.030  71.236  23.187  0.00  0.00    +0.046 A 
ATOM      6  C   LIG    1      -41.861  72.296  22.852  0.00  0.00    +0.035 A 
ATOM      7  C   LIG    1      -41.470  73.559  23.272  0.00  0.00    +0.108 A 
ATOM      8  N   LIG    1      -42.105  74.756  23.128  0.00  0.00    -0.234 NA
ATOM      9  C   LIG    1      -41.299  75.620  23.701  0.00  0.00    +0.207 A 
ENDROOT
BRANCH   1  14
ATOM     10  C   LIG    1      -37.144  76.370  25.703  0.00  0.00    +0.213 A 
ATOM     11  N   LIG    1      -37.982  77.430  25.499  0.00  0.00    -0.245 N 
ATOM     12  H   LIG    1      -37.813  78.404  25.733  0.00  0.00    +0.192 HD
ATOM     13  N   LIG    1      -39.182  77.084  24.964  0.00  0.00    -0.153 NA
ATOM     14  C   LIG    1      -39.063  75.758  24.777  0.00  0.00    +0.165 A 
ATOM     15  C   LIG    1      -37.826  75.276  25.220  0.00  0.00    +0.115 A 
BRANCH  10  16
ATOM     16  O   LIG    1      -35.964  76.539  26.275  0.00  0.00    -0.477 OA
BRANCH  16  18
ATOM     17  C   LIG    1      -35.453  78.118  28.058  0.00  0.00    +0.048 C 
ATOM     18  C   LIG    1      -35.982  76.747  27.691  0.00  0.00    +0.227 C 
ENDBRANCH  16  18
ENDBRANCH  10  16
ENDBRANCH   1  14
BRANCH   4  19
ATOM     19  N   LIG    1      -39.008  70.378  24.215  0.00  0.00    -0.318 N 
ATOM     20  H   LIG    1      -39.247  70.057  25.151  0.00  0.00    +0.148 HD
BRANCH  19  21
ATOM     21  CA  LIG    1      -37.566  70.479  23.944  0.00  0.00    +0.146 C 
BRANCH  21  22
ATOM     22  C   LIG    1      -37.141  69.358  22.995  0.00  0.00    +0.064 A 
ATOM     23  N   LIG    1      -36.039  68.626  23.316  0.00  0.00    -0.255 NA
ATOM     24  C   LIG    1      -35.679  67.647  22.453  0.00  0.00    +0.149 A 
ATOM     25  C   LIG    1      -36.355  67.370  21.280  0.00  0.00    +0.141 A 
ATOM     26  F   LIG    1      -35.951  66.377  20.480  0.00  0.00    -0.204 F 
ATOM     27  C   LIG    1      -37.460  68.134  20.944  0.00  0.00    +0.042 A 
ATOM     28  C   LIG    1      -37.862  69.148  21.811  0.00  0.00    +0.028 A 
ENDBRANCH  21  22
BRANCH  21  29
ATOM     29  C   LIG    1      -36.750  70.499  25.258  0.00  0.00    +0.184 C 
BRANCH  29  30
ATOM     30  O   LIG    1      -35.463  71.095  25.078  0.00  0.00    -0.393 OA
ATOM     31  H   LIG    1      -35.625  71.888  24.528  0.00  0.00    +0.209 HD
ENDBRANCH  29  30
ENDBRANCH  21  29
ENDBRANCH  19  21
ENDBRANCH   4  19
TORSDOF 8
ENDMDL
MODEL 8
REMARK VINA RESULT:      -5.6     10.514     12.635
REMARK  Name = pdb/CHEMBL3659498.pdb
REMARK                            x       y       z     vdW  Elec       q    Type
REMARK                         _______ _______ _______ _____ _____    ______ ____
ROOT
ATOM      1  N   LIG    1      -19.893  78.698  33.479  0.00  0.00    -0.266 N 
ATOM      2  C   LIG    1      -20.682  77.924  32.646  0.00  0.00    +0.168 A 
ATOM      3  N   LIG    1      -21.980  77.544  32.786  0.00  0.00    -0.213 NA
ATOM      4  C   LIG    1      -22.437  76.763  31.780  0.00  0.00    +0.122 A 
ATOM      5  C   LIG    1      -21.648  76.368  30.691  0.00  0.00    +0.046 A 
ATOM      6  C   LIG    1      -20.316  76.749  30.597  0.00  0.00    +0.035 A 
ATOM      7  C   LIG    1      -19.827  77.576  31.598  0.00  0.00    +0.108 A 
ATOM      8  N   LIG    1      -18.591  78.134  31.734  0.00  0.00    -0.234 NA
ATOM      9  C   LIG    1      -18.667  78.816  32.854  0.00  0.00    +0.207 A 
ENDROOT
BRANCH   1  14
ATOM     10  C   LIG    1      -21.087  80.439  36.409  0.00  0.00    +0.213 A 
ATOM     11  N   LIG    1      -20.150  79.543  36.842  0.00  0.00    -0.245 N 
ATOM     12  H   LIG    1      -19.834  79.392  37.794  0.00  0.00    +0.192 HD
ATOM     13  N   LIG    1      -19.573  78.830  35.840  0.00  0.00    -0.153 NA
ATOM     14  C   LIG    1      -20.218  79.264  34.743  0.00  0.00    +0.165 A 
ATOM     15  C   LIG    1      -21.157  80.256  35.047  0.00  0.00    +0.115 A 
BRANCH  10  16
ATOM     16  O   LIG    1      -21.693  81.250  37.261  0.00  0.00    -0.477 OA
BRANCH  16  18
ATOM     17  C   LIG    1      -20.646  83.448  37.336  0.00  0.00    +0.048 C 
ATOM     18  C   LIG    1      -21.811  82.614  36.845  0.00  0.00    +0.227 C 
ENDBRANCH  16  18
ENDBRANCH  10  16
ENDBRANCH   1  14
BRANCH   4  19
ATOM     19  N   LIG    1      -23.775  76.386  31.856  0.00  0.00    -0.318 N 
ATOM     20  H   LIG    1      -23.943  75.612  31.217  0.00  0.00    +0.148 HD
BRANCH  19  21
ATOM     21  CA  LIG    1      -24.804  77.436  31.843  0.00  0.00    +0.146 C 
BRANCH  21  22
ATOM     22  C   LIG    1      -26.171  76.821  32.138  0.00  0.00    +0.064 A 
ATOM     23  N   LIG    1      -27.278  77.441  31.643  0.00  0.00    -0.255 NA
ATOM     24  C   LIG    1      -28.477  76.881  31.927  0.00  0.00    +0.149 A 
ATOM     25  C   LIG    1      -28.629  75.740  32.693  0.00  0.00    +0.141 A 
ATOM     26  F   LIG    1      -29.845  75.232  32.923  0.00  0.00    -0.204 F 
ATOM     27  C   LIG    1      -27.503  75.126  33.216  0.00  0.00    +0.042 A 
ATOM     28  C   LIG    1      -26.252  75.673  32.939  0.00  0.00    +0.028 A 
ENDBRANCH  21  22
BRANCH  21  29
ATOM     29  C   LIG    1      -24.774  78.231  30.516  0.00  0.00    +0.184 C 
BRANCH  29  30
ATOM     30  O   LIG    1      -25.174  77.427  29.404  0.00  0.00    -0.393 OA
ATOM     31  H   LIG    1      -25.301  76.529  29.772  0.00  0.00    +0.209 HD
ENDBRANCH  29  30
ENDBRANCH  21  29
ENDBRANCH  19  21
ENDBRANCH   4  19
TORSDOF 8
ENDMDL
MODEL 9
REMARK VINA RESULT:      -5.6     10.676     13.819
REMARK  Name = pdb/CHEMBL3659498.pdb
REMARK                            x       y       z     vdW  Elec       q    Type
REMARK                         _______ _______ _______ _____ _____    ______ ____
ROOT
ATOM      1  N   LIG    1      -25.659  77.421  33.270  0.00  0.00    -0.266 N 
ATOM      2  C   LIG    1      -25.369  78.227  34.357  0.00  0.00    +0.168 A 
ATOM      3  N   LIG    1      -24.553  79.311  34.441  0.00  0.00    -0.213 NA
ATOM      4  C   LIG    1      -24.487  79.856  35.678  0.00  0.00    +0.122 A 
ATOM      5  C   LIG    1      -25.186  79.350  36.782  0.00  0.00    +0.046 A 
ATOM      6  C   LIG    1      -25.985  78.221  36.666  0.00  0.00    +0.035 A 
ATOM      7  C   LIG    1      -26.098  77.657  35.403  0.00  0.00    +0.108 A 
ATOM      8  N   LIG    1      -26.840  76.590  34.994  0.00  0.00    -0.234 NA
ATOM      9  C   LIG    1      -26.575  76.486  33.712  0.00  0.00    +0.207 A 
ENDROOT
BRANCH   1  14
ATOM     10  C   LIG    1      -23.847  77.410  30.145  0.00  0.00    +0.213 A 
ATOM     11  N   LIG    1      -25.135  77.757  29.849  0.00  0.00    -0.245 N 
ATOM     12  H   LIG    1      -25.520  77.981  28.937  0.00  0.00    +0.192 HD
ATOM     13  N   LIG    1      -25.942  77.844  30.939  0.00  0.00    -0.153 NA
ATOM     14  C   LIG    1      -25.133  77.482  31.949  0.00  0.00    +0.165 A 
ATOM     15  C   LIG    1      -23.834  77.208  31.507  0.00  0.00    +0.115 A 
BRANCH  10  16
ATOM     16  O   LIG    1      -22.927  77.345  29.197  0.00  0.00    -0.477 OA
BRANCH  16  18
ATOM     17  C   LIG    1      -20.558  76.977  29.624  0.00  0.00    +0.048 C 
ATOM     18  C   LIG    1      -21.915  76.350  29.378  0.00  0.00    +0.227 C 
ENDBRANCH  16  18
ENDBRANCH  10  16
ENDBRANCH   1  14
BRANCH   4  19
ATOM     19  N   LIG    1      -23.698  80.997  35.803  0.00  0.00    -0.318 N 
ATOM     20  H   LIG    1      -23.468  81.350  34.876  0.00  0.00    +0.148 HD
BRANCH  19  21
ATOM     21  CA  LIG    1      -22.578  80.976  36.756  0.00  0.00    +0.146 C 
BRANCH  21  22
ATOM     22  C   LIG    1      -22.682  82.176  37.698  0.00  0.00    +0.064 A 
ATOM     23  N   LIG    1      -21.533  82.798  38.078  0.00  0.00    -0.255 NA
ATOM     24  C   LIG    1      -21.652  83.850  38.921  0.00  0.00    +0.149 A 
ATOM     25  C   LIG    1      -22.860  84.305  39.415  0.00  0.00    +0.141 A 
ATOM     26  F   LIG    1      -22.906  85.362  40.234  0.00  0.00    -0.204 F 
ATOM     27  C   LIG    1      -24.026  83.654  39.046  0.00  0.00    +0.042 A 
ATOM     28  C   LIG    1      -23.940  82.569  38.176  0.00  0.00    +0.028 A 
ENDBRANCH  21  22
BRANCH  21  29
ATOM     29  C   LIG    1      -21.219  80.904  36.019  0.00  0.00    +0.184 C 
BRANCH  29  30
ATOM     30  O   LIG    1      -20.946  82.101  35.287  0.00  0.00    -0.393 OA
ATOM     31  H   LIG    1      -20.579  81.798  34.431  0.00  0.00    +0.209 HD
ENDBRANCH  29  30
ENDBRANCH  21  29
ENDBRANCH  19  21
ENDBRANCH   4  19
TORSDOF 8
ENDMDL
