MODEL 1
REMARK VINA RESULT:      -7.3      0.000      0.000
REMARK  Name = pdb/CHEMBL3899159.pdb
REMARK                            x       y       z     vdW  Elec       q    Type
REMARK                         _______ _______ _______ _____ _____    ______ ____
ROOT
ATOM      1  C   LIG    1      -36.080  66.845  19.696  0.00  0.00    +0.221 A 
ATOM      2  N   LIG    1      -36.201  66.388  20.965  0.00  0.00    -0.219 NA
ATOM      3  C   LIG    1      -37.080  67.021  21.769  0.00  0.00    +0.142 A 
ATOM      4  C   LIG    1      -37.768  68.181  21.427  0.00  0.00    +0.087 A 
ATOM      5  C   LIG    1      -37.606  68.633  20.111  0.00  0.00    +0.034 A 
ATOM      6  C   LIG    1      -36.763  67.954  19.227  0.00  0.00    +0.070 A 
ENDROOT
BRANCH   4   7
ATOM      7  N   LIG    1      -38.680  68.825  22.258  0.00  0.00    -0.198 NA
ATOM      8  C   LIG    1      -38.391  69.728  23.155  0.00  0.00    +0.285 C 
BRANCH   8   9
ATOM      9  N   LIG    1      -39.267  70.343  23.977  0.00  0.00    -0.269 N 
ATOM     10  H   LIG    1      -39.478  69.837  24.832  0.00  0.00    +0.157 HD
BRANCH   9  11
ATOM     11  C   LIG    1      -39.911  71.590  23.806  0.00  0.00    +0.043 A 
ATOM     12  C   LIG    1      -41.171  71.718  23.144  0.00  0.00    +0.005 A 
ATOM     13  C   LIG    1      -41.699  73.032  23.034  0.00  0.00    +0.011 A 
ATOM     14  C   LIG    1      -41.052  74.163  23.543  0.00  0.00    +0.013 A 
ATOM     15  C   LIG    1      -39.845  74.031  24.217  0.00  0.00    +0.057 A 
ATOM     16  C   LIG    1      -39.301  72.746  24.347  0.00  0.00    +0.036 A 
BRANCH  12  17
ATOM     17  C   LIG    1      -41.960  70.585  22.556  0.00  0.00    +0.002 A 
ATOM     18  C   LIG    1      -41.842  70.228  21.203  0.00  0.00    +0.119 A 
ATOM     19  N   LIG    1      -42.524  69.235  20.574  0.00  0.00    -0.263 NA
ATOM     20  C   LIG    1      -43.375  68.516  21.326  0.00  0.00    +0.111 A 
ATOM     21  C   LIG    1      -43.584  68.763  22.668  0.00  0.00    +0.020 A 
ATOM     22  C   LIG    1      -42.898  69.823  23.270  0.00  0.00    +0.011 A 
ENDBRANCH  12  17
BRANCH  15  23
ATOM     23  C   LIG    1      -39.138  75.232  24.797  0.00  0.00    +0.417 C 
ATOM     24  F   LIG    1      -39.469  76.390  24.161  0.00  0.00    -0.166 F 
ATOM     25  F   LIG    1      -37.782  75.133  24.708  0.00  0.00    -0.166 F 
ATOM     26  F   LIG    1      -39.406  75.442  26.116  0.00  0.00    -0.166 F 
ENDBRANCH  15  23
ENDBRANCH   9  11
ENDBRANCH   8   9
BRANCH   8  27
ATOM     27  O   LIG    1      -37.153  70.209  23.349  0.00  0.00    -0.481 OA
ATOM     28  H   LIG    1      -36.627  70.231  22.538  0.00  0.00    +0.295 HD
ENDBRANCH   8  27
ENDBRANCH   4   7
BRANCH   1  29
ATOM     29  O   LIG    1      -35.234  66.190  18.803  0.00  0.00    -0.438 OA
BRANCH  29  33
ATOM     30  C   LIG    1      -31.252  67.640  18.554  0.00  0.00    -0.014 A 
ATOM     31  C   LIG    1      -31.674  66.780  19.588  0.00  0.00    +0.012 A 
ATOM     32  C   LIG    1      -32.963  66.247  19.654  0.00  0.00    +0.047 A 
ATOM     33  C   LIG    1      -33.932  66.626  18.736  0.00  0.00    +0.130 A 
ATOM     34  C   LIG    1      -33.558  67.437  17.675  0.00  0.00    +0.047 A 
ATOM     35  C   LIG    1      -32.239  67.920  17.586  0.00  0.00    +0.012 A 
BRANCH  30  37
ATOM     36  C   LIG    1      -29.430  69.504  18.529  0.00  0.00    +0.124 A 
ATOM     37  C   LIG    1      -29.831  68.149  18.509  0.00  0.00    +0.023 A 
ATOM     38  C   LIG    1      -28.756  67.230  18.393  0.00  0.00    +0.033 A 
ATOM     39  C   LIG    1      -27.435  67.643  18.271  0.00  0.00    +0.060 A 
ATOM     40 CL   LIG    1      -26.169  66.496  18.100  0.00  0.00    -0.082 Cl
ATOM     41  C   LIG    1      -27.181  68.992  18.281  0.00  0.00    +0.133 A 
ATOM     42  N   LIG    1      -28.146  69.924  18.414  0.00  0.00    -0.239 NA
BRANCH  36  43
ATOM     43  N   LIG    1      -30.298  70.578  18.695  0.00  0.00    -0.343 N 
ATOM     44  H   LIG    1      -30.399  71.076  17.817  0.00  0.00    +0.144 HD
ATOM     45  H   LIG    1      -31.192  70.176  18.970  0.00  0.00    +0.144 HD
ENDBRANCH  36  43
ENDBRANCH  30  37
ENDBRANCH  29  33
ENDBRANCH   1  29
TORSDOF 10
ENDMDL
MODEL 2
REMARK VINA RESULT:      -7.1      1.533      1.900
REMARK  Name = pdb/CHEMBL3899159.pdb
REMARK                            x       y       z     vdW  Elec       q    Type
REMARK                         _______ _______ _______ _____ _____    ______ ____
ROOT
ATOM      1  C   LIG    1      -36.431  67.049  20.410  0.00  0.00    +0.221 A 
ATOM      2  N   LIG    1      -36.445  66.767  21.734  0.00  0.00    -0.219 NA
ATOM      3  C   LIG    1      -37.212  67.545  22.524  0.00  0.00    +0.142 A 
ATOM      4  C   LIG    1      -37.881  68.688  22.096  0.00  0.00    +0.087 A 
ATOM      5  C   LIG    1      -37.832  68.956  20.722  0.00  0.00    +0.034 A 
ATOM      6  C   LIG    1      -37.110  68.124  19.863  0.00  0.00    +0.070 A 
ENDROOT
BRANCH   4   7
ATOM      7  N   LIG    1      -38.679  69.482  22.915  0.00  0.00    -0.198 NA
ATOM      8  C   LIG    1      -38.254  70.420  23.717  0.00  0.00    +0.285 C 
BRANCH   8   9
ATOM      9  N   LIG    1      -39.020  71.181  24.528  0.00  0.00    -0.269 N 
ATOM     10  H   LIG    1      -39.234  70.764  25.428  0.00  0.00    +0.157 HD
BRANCH   9  11
ATOM     11  C   LIG    1      -39.544  72.472  24.289  0.00  0.00    +0.043 A 
ATOM     12  C   LIG    1      -40.814  72.681  23.667  0.00  0.00    +0.005 A 
ATOM     13  C   LIG    1      -41.214  74.031  23.479  0.00  0.00    +0.011 A 
ATOM     14  C   LIG    1      -40.436  75.124  23.878  0.00  0.00    +0.013 A 
ATOM     15  C   LIG    1      -39.218  74.917  24.514  0.00  0.00    +0.057 A 
ATOM     16  C   LIG    1      -38.799  73.595  24.718  0.00  0.00    +0.036 A 
BRANCH  12  17
ATOM     17  C   LIG    1      -41.737  71.596  23.195  0.00  0.00    +0.002 A 
ATOM     18  C   LIG    1      -42.784  71.117  23.998  0.00  0.00    +0.119 A 
ATOM     19  N   LIG    1      -43.658  70.128  23.671  0.00  0.00    -0.263 NA
ATOM     20  C   LIG    1      -43.516  69.575  22.454  0.00  0.00    +0.111 A 
ATOM     21  C   LIG    1      -42.529  69.955  21.567  0.00  0.00    +0.020 A 
ATOM     22  C   LIG    1      -41.620  70.944  21.958  0.00  0.00    +0.011 A 
ENDBRANCH  12  17
BRANCH  15  23
ATOM     23  C   LIG    1      -38.370  76.077  24.974  0.00  0.00    +0.417 C 
ATOM     24  F   LIG    1      -38.949  76.775  25.990  0.00  0.00    -0.166 F 
ATOM     25  F   LIG    1      -38.140  76.982  23.983  0.00  0.00    -0.166 F 
ATOM     26  F   LIG    1      -37.139  75.709  25.430  0.00  0.00    -0.166 F 
ENDBRANCH  15  23
ENDBRANCH   9  11
ENDBRANCH   8   9
BRANCH   8  27
ATOM     27  O   LIG    1      -36.967  70.791  23.807  0.00  0.00    -0.481 OA
ATOM     28  H   LIG    1      -36.460  70.582  23.012  0.00  0.00    +0.295 HD
ENDBRANCH   8  27
ENDBRANCH   4   7
BRANCH   1  29
ATOM     29  O   LIG    1      -35.706  66.240  19.538  0.00  0.00    -0.438 OA
BRANCH  29  33
ATOM     30  C   LIG    1      -31.814  67.582  18.500  0.00  0.00    -0.014 A 
ATOM     31  C   LIG    1      -32.079  66.913  19.712  0.00  0.00    +0.012 A 
ATOM     32  C   LIG    1      -33.339  66.413  20.044  0.00  0.00    +0.047 A 
ATOM     33  C   LIG    1      -34.430  66.644  19.219  0.00  0.00    +0.130 A 
ATOM     34  C   LIG    1      -34.217  67.261  17.995  0.00  0.00    +0.047 A 
ATOM     35  C   LIG    1      -32.929  67.707  17.644  0.00  0.00    +0.012 A 
BRANCH  30  37
ATOM     36  C   LIG    1      -29.342  67.253  17.743  0.00  0.00    +0.124 A 
ATOM     37  C   LIG    1      -30.420  68.060  18.174  0.00  0.00    +0.023 A 
ATOM     38  C   LIG    1      -30.087  69.430  18.337  0.00  0.00    +0.033 A 
ATOM     39  C   LIG    1      -28.800  69.912  18.125  0.00  0.00    +0.060 A 
ATOM     40 CL   LIG    1      -28.435  71.572  18.366  0.00  0.00    -0.082 Cl
ATOM     41  C   LIG    1      -27.837  69.018  17.731  0.00  0.00    +0.133 A 
ATOM     42  N   LIG    1      -28.083  67.707  17.530  0.00  0.00    -0.239 NA
BRANCH  36  43
ATOM     43  N   LIG    1      -29.441  65.894  17.460  0.00  0.00    -0.343 N 
ATOM     44  H   LIG    1      -29.784  65.765  16.514  0.00  0.00    +0.144 HD
ATOM     45  H   LIG    1      -28.497  65.523  17.541  0.00  0.00    +0.144 HD
ENDBRANCH  36  43
ENDBRANCH  30  37
ENDBRANCH  29  33
ENDBRANCH   1  29
TORSDOF 10
ENDMDL
MODEL 3
REMARK VINA RESULT:      -6.9      2.118      2.580
REMARK  Name = pdb/CHEMBL3899159.pdb
REMARK                            x       y       z     vdW  Elec       q    Type
REMARK                         _______ _______ _______ _____ _____    ______ ____
ROOT
ATOM      1  C   LIG    1      -36.909  66.895  19.884  0.00  0.00    +0.221 A 
ATOM      2  N   LIG    1      -37.565  66.244  20.873  0.00  0.00    -0.219 NA
ATOM      3  C   LIG    1      -38.386  66.974  21.655  0.00  0.00    +0.142 A 
ATOM      4  C   LIG    1      -38.504  68.359  21.598  0.00  0.00    +0.087 A 
ATOM      5  C   LIG    1      -37.799  69.000  20.571  0.00  0.00    +0.034 A 
ATOM      6  C   LIG    1      -37.000  68.263  19.694  0.00  0.00    +0.070 A 
ENDROOT
BRANCH   4   7
ATOM      7  N   LIG    1      -39.360  69.106  22.402  0.00  0.00    -0.198 NA
ATOM      8  C   LIG    1      -40.438  69.726  22.002  0.00  0.00    +0.285 C 
BRANCH   8   9
ATOM      9  N   LIG    1      -41.262  70.468  22.771  0.00  0.00    -0.269 N 
ATOM     10  H   LIG    1      -42.055  69.964  23.156  0.00  0.00    +0.157 HD
BRANCH   9  11
ATOM     11  C   LIG    1      -41.155  71.835  23.114  0.00  0.00    +0.043 A 
ATOM     12  C   LIG    1      -42.165  72.790  22.781  0.00  0.00    +0.005 A 
ATOM     13  C   LIG    1      -41.924  74.133  23.178  0.00  0.00    +0.011 A 
ATOM     14  C   LIG    1      -40.775  74.534  23.868  0.00  0.00    +0.013 A 
ATOM     15  C   LIG    1      -39.812  73.597  24.222  0.00  0.00    +0.057 A 
ATOM     16  C   LIG    1      -40.024  72.263  23.848  0.00  0.00    +0.036 A 
BRANCH  12  17
ATOM     17  C   LIG    1      -43.436  72.486  22.044  0.00  0.00    +0.002 A 
ATOM     18  C   LIG    1      -44.629  72.188  22.722  0.00  0.00    +0.119 A 
ATOM     19  N   LIG    1      -45.823  71.881  22.148  0.00  0.00    -0.263 NA
ATOM     20  C   LIG    1      -45.865  71.886  20.805  0.00  0.00    +0.111 A 
ATOM     21  C   LIG    1      -44.765  72.164  20.019  0.00  0.00    +0.020 A 
ATOM     22  C   LIG    1      -43.543  72.430  20.646  0.00  0.00    +0.011 A 
ENDBRANCH  12  17
BRANCH  15  23
ATOM     23  C   LIG    1      -38.574  73.998  24.986  0.00  0.00    +0.417 C 
ATOM     24  F   LIG    1      -37.563  73.097  24.852  0.00  0.00    -0.166 F 
ATOM     25  F   LIG    1      -38.800  74.108  26.325  0.00  0.00    -0.166 F 
ATOM     26  F   LIG    1      -38.057  75.198  24.601  0.00  0.00    -0.166 F 
ENDBRANCH  15  23
ENDBRANCH   9  11
ENDBRANCH   8   9
BRANCH   8  27
ATOM     27  O   LIG    1      -40.903  69.664  20.744  0.00  0.00    -0.481 OA
ATOM     28  H   LIG    1      -40.999  70.535  20.337  0.00  0.00    +0.295 HD
ENDBRANCH   8  27
ENDBRANCH   4   7
BRANCH   1  29
ATOM     29  O   LIG    1      -36.096  66.180  19.006  0.00  0.00    -0.438 OA
BRANCH  29  33
ATOM     30  C   LIG    1      -32.027  67.351  18.696  0.00  0.00    -0.014 A 
ATOM     31  C   LIG    1      -32.946  67.544  17.644  0.00  0.00    +0.012 A 
ATOM     32  C   LIG    1      -34.300  67.218  17.749  0.00  0.00    +0.047 A 
ATOM     33  C   LIG    1      -34.789  66.589  18.885  0.00  0.00    +0.130 A 
ATOM     34  C   LIG    1      -33.937  66.415  19.965  0.00  0.00    +0.047 A 
ATOM     35  C   LIG    1      -32.586  66.802  19.869  0.00  0.00    +0.012 A 
BRANCH  30  37
ATOM     36  C   LIG    1      -29.481  66.898  18.382  0.00  0.00    +0.124 A 
ATOM     37  C   LIG    1      -30.584  67.766  18.541  0.00  0.00    +0.023 A 
ATOM     38  C   LIG    1      -30.235  69.140  18.595  0.00  0.00    +0.033 A 
ATOM     39  C   LIG    1      -28.916  69.575  18.535  0.00  0.00    +0.060 A 
ATOM     40 CL   LIG    1      -28.538  71.246  18.637  0.00  0.00    -0.082 Cl
ATOM     41  C   LIG    1      -27.933  68.626  18.403  0.00  0.00    +0.133 A 
ATOM     42  N   LIG    1      -28.189  67.305  18.319  0.00  0.00    -0.239 NA
BRANCH  36  43
ATOM     43  N   LIG    1      -29.579  65.517  18.244  0.00  0.00    -0.343 N 
ATOM     44  H   LIG    1      -28.659  65.098  18.319  0.00  0.00    +0.144 HD
ATOM     45  H   LIG    1      -30.168  65.201  19.012  0.00  0.00    +0.144 HD
ENDBRANCH  36  43
ENDBRANCH  30  37
ENDBRANCH  29  33
ENDBRANCH   1  29
TORSDOF 10
ENDMDL
MODEL 4
REMARK VINA RESULT:      -6.9      1.806      2.200
REMARK  Name = pdb/CHEMBL3899159.pdb
REMARK                            x       y       z     vdW  Elec       q    Type
REMARK                         _______ _______ _______ _____ _____    ______ ____
ROOT
ATOM      1  C   LIG    1      -36.221  67.058  21.439  0.00  0.00    +0.221 A 
ATOM      2  N   LIG    1      -35.918  67.120  22.756  0.00  0.00    -0.219 NA
ATOM      3  C   LIG    1      -36.590  68.019  23.504  0.00  0.00    +0.142 A 
ATOM      4  C   LIG    1      -37.472  68.966  22.995  0.00  0.00    +0.087 A 
ATOM      5  C   LIG    1      -37.750  68.881  21.624  0.00  0.00    +0.034 A 
ATOM      6  C   LIG    1      -37.129  67.911  20.834  0.00  0.00    +0.070 A 
ENDROOT
BRANCH   4   7
ATOM      7  N   LIG    1      -38.171  69.885  23.773  0.00  0.00    -0.198 NA
ATOM      8  C   LIG    1      -37.670  70.958  24.322  0.00  0.00    +0.285 C 
BRANCH   8   9
ATOM      9  N   LIG    1      -38.336  71.843  25.093  0.00  0.00    -0.269 N 
ATOM     10  H   LIG    1      -38.353  71.619  26.083  0.00  0.00    +0.157 HD
BRANCH   9  11
ATOM     11  C   LIG    1      -38.994  73.032  24.703  0.00  0.00    +0.043 A 
ATOM     12  C   LIG    1      -40.311  73.032  24.147  0.00  0.00    +0.005 A 
ATOM     13  C   LIG    1      -40.849  74.297  23.790  0.00  0.00    +0.011 A 
ATOM     14  C   LIG    1      -40.159  75.502  23.968  0.00  0.00    +0.013 A 
ATOM     15  C   LIG    1      -38.893  75.501  24.541  0.00  0.00    +0.057 A 
ATOM     16  C   LIG    1      -38.338  74.268  24.908  0.00  0.00    +0.036 A 
BRANCH  12  17
ATOM     17  C   LIG    1      -41.150  71.812  23.906  0.00  0.00    +0.002 A 
ATOM     18  C   LIG    1      -41.779  71.128  24.959  0.00  0.00    +0.119 A 
ATOM     19  N   LIG    1      -42.540  70.008  24.847  0.00  0.00    -0.263 NA
ATOM     20  C   LIG    1      -42.723  69.524  23.607  0.00  0.00    +0.111 A 
ATOM     21  C   LIG    1      -42.162  70.101  22.485  0.00  0.00    +0.020 A 
ATOM     22  C   LIG    1      -41.347  71.226  22.646  0.00  0.00    +0.011 A 
ENDBRANCH  12  17
BRANCH  15  23
ATOM     23  C   LIG    1      -38.136  76.788  24.765  0.00  0.00    +0.417 C 
ATOM     24  F   LIG    1      -38.819  77.664  25.552  0.00  0.00    -0.166 F 
ATOM     25  F   LIG    1      -37.879  77.451  23.603  0.00  0.00    -0.166 F 
ATOM     26  F   LIG    1      -36.926  76.613  25.365  0.00  0.00    -0.166 F 
ENDBRANCH  15  23
ENDBRANCH   9  11
ENDBRANCH   8   9
BRANCH   8  27
ATOM     27  O   LIG    1      -36.399  71.355  24.147  0.00  0.00    -0.481 OA
ATOM     28  H   LIG    1      -36.027  71.778  24.932  0.00  0.00    +0.295 HD
ENDBRANCH   8  27
ENDBRANCH   4   7
BRANCH   1  29
ATOM     29  O   LIG    1      -35.602  66.106  20.631  0.00  0.00    -0.438 OA
BRANCH  29  33
ATOM     30  C   LIG    1      -32.437  67.495  18.165  0.00  0.00    -0.014 A 
ATOM     31  C   LIG    1      -32.226  67.083  19.497  0.00  0.00    +0.012 A 
ATOM     32  C   LIG    1      -33.243  66.569  20.304  0.00  0.00    +0.047 A 
ATOM     33  C   LIG    1      -34.553  66.531  19.849  0.00  0.00    +0.130 A 
ATOM     34  C   LIG    1      -34.808  66.884  18.532  0.00  0.00    +0.047 A 
ATOM     35  C   LIG    1      -33.763  67.345  17.709  0.00  0.00    +0.012 A 
BRANCH  30  37
ATOM     36  C   LIG    1      -31.131  69.314  16.832  0.00  0.00    +0.124 A 
ATOM     37  C   LIG    1      -31.288  67.999  17.325  0.00  0.00    +0.023 A 
ATOM     38  C   LIG    1      -30.260  67.105  16.926  0.00  0.00    +0.033 A 
ATOM     39  C   LIG    1      -29.220  67.494  16.091  0.00  0.00    +0.060 A 
ATOM     40 CL   LIG    1      -28.016  66.371  15.607  0.00  0.00    -0.082 Cl
ATOM     41  C   LIG    1      -29.196  68.798  15.661  0.00  0.00    +0.133 A 
ATOM     42  N   LIG    1      -30.122  69.711  16.018  0.00  0.00    -0.239 NA
BRANCH  36  43
ATOM     43  N   LIG    1      -31.978  70.375  17.136  0.00  0.00    -0.343 N 
ATOM     44  H   LIG    1      -32.647  70.506  16.385  0.00  0.00    +0.144 HD
ATOM     45  H   LIG    1      -32.463  70.108  17.991  0.00  0.00    +0.144 HD
ENDBRANCH  36  43
ENDBRANCH  30  37
ENDBRANCH  29  33
ENDBRANCH   1  29
TORSDOF 10
ENDMDL
MODEL 5
REMARK VINA RESULT:      -6.6     16.115     19.920
REMARK  Name = pdb/CHEMBL3899159.pdb
REMARK                            x       y       z     vdW  Elec       q    Type
REMARK                         _______ _______ _______ _____ _____    ______ ____
ROOT
ATOM      1  C   LIG    1      -28.476  77.040  32.335  0.00  0.00    +0.221 A 
ATOM      2  N   LIG    1      -27.510  77.099  31.389  0.00  0.00    -0.219 NA
ATOM      3  C   LIG    1      -26.228  77.063  31.810  0.00  0.00    +0.142 A 
ATOM      4  C   LIG    1      -25.835  77.099  33.144  0.00  0.00    +0.087 A 
ATOM      5  C   LIG    1      -26.864  77.052  34.095  0.00  0.00    +0.034 A 
ATOM      6  C   LIG    1      -28.200  77.010  33.691  0.00  0.00    +0.070 A 
ENDROOT
BRANCH   4   7
ATOM      7  N   LIG    1      -24.512  77.051  33.573  0.00  0.00    -0.198 NA
ATOM      8  C   LIG    1      -23.796  78.073  33.957  0.00  0.00    +0.285 C 
BRANCH   8   9
ATOM      9  N   LIG    1      -22.507  78.038  34.355  0.00  0.00    -0.269 N 
ATOM     10  H   LIG    1      -22.372  77.871  35.347  0.00  0.00    +0.157 HD
BRANCH   9  11
ATOM     11  C   LIG    1      -21.339  78.191  33.575  0.00  0.00    +0.043 A 
ATOM     12  C   LIG    1      -20.301  79.112  33.919  0.00  0.00    +0.005 A 
ATOM     13  C   LIG    1      -19.186  79.169  33.041  0.00  0.00    +0.011 A 
ATOM     14  C   LIG    1      -19.071  78.375  31.895  0.00  0.00    +0.013 A 
ATOM     15  C   LIG    1      -20.065  77.455  31.582  0.00  0.00    +0.057 A 
ATOM     16  C   LIG    1      -21.175  77.371  32.433  0.00  0.00    +0.036 A 
BRANCH  12  17
ATOM     17  C   LIG    1      -20.308  80.017  35.116  0.00  0.00    +0.002 A 
ATOM     18  C   LIG    1      -19.520  79.751  36.247  0.00  0.00    +0.119 A 
ATOM     19  N   LIG    1      -19.471  80.495  37.384  0.00  0.00    -0.263 NA
ATOM     20  C   LIG    1      -20.235  81.600  37.415  0.00  0.00    +0.111 A 
ATOM     21  C   LIG    1      -21.054  81.977  36.369  0.00  0.00    +0.020 A 
ATOM     22  C   LIG    1      -21.112  81.161  35.235  0.00  0.00    +0.011 A 
ENDBRANCH  12  17
BRANCH  15  23
ATOM     23  C   LIG    1      -19.955  76.569  30.365  0.00  0.00    +0.417 C 
ATOM     24  F   LIG    1      -20.823  75.521  30.403  0.00  0.00    -0.166 F 
ATOM     25  F   LIG    1      -18.716  76.022  30.227  0.00  0.00    -0.166 F 
ATOM     26  F   LIG    1      -20.204  77.217  29.192  0.00  0.00    -0.166 F 
ENDBRANCH  15  23
ENDBRANCH   9  11
ENDBRANCH   8   9
BRANCH   8  27
ATOM     27  O   LIG    1      -24.280  79.322  34.051  0.00  0.00    -0.481 OA
ATOM     28  H   LIG    1      -23.860  79.935  33.433  0.00  0.00    +0.295 HD
ENDBRANCH   8  27
ENDBRANCH   4   7
BRANCH   1  29
ATOM     29  O   LIG    1      -29.816  77.011  31.954  0.00  0.00    -0.438 OA
BRANCH  29  33
ATOM     30  C   LIG    1      -31.312  73.362  30.383  0.00  0.00    -0.014 A 
ATOM     31  C   LIG    1      -31.402  74.577  29.675  0.00  0.00    +0.012 A 
ATOM     32  C   LIG    1      -30.865  75.775  30.149  0.00  0.00    +0.047 A 
ATOM     33  C   LIG    1      -30.290  75.840  31.410  0.00  0.00    +0.130 A 
ATOM     34  C   LIG    1      -30.138  74.665  32.131  0.00  0.00    +0.047 A 
ATOM     35  C   LIG    1      -30.630  73.451  31.615  0.00  0.00    +0.012 A 
BRANCH  30  37
ATOM     36  C   LIG    1      -31.141  70.910  29.516  0.00  0.00    +0.124 A 
ATOM     37  C   LIG    1      -31.871  72.087  29.798  0.00  0.00    +0.023 A 
ATOM     38  C   LIG    1      -33.242  72.018  29.438  0.00  0.00    +0.033 A 
ATOM     39  C   LIG    1      -33.793  70.899  28.826  0.00  0.00    +0.060 A 
ATOM     40 CL   LIG    1      -35.450  70.871  28.378  0.00  0.00    -0.082 Cl
ATOM     41  C   LIG    1      -32.970  69.828  28.585  0.00  0.00    +0.133 A 
ATOM     42  N   LIG    1      -31.664  69.809  28.922  0.00  0.00    -0.239 NA
BRANCH  36  43
ATOM     43  N   LIG    1      -29.800  70.721  29.832  0.00  0.00    -0.343 N 
ATOM     44  H   LIG    1      -29.543  71.320  30.609  0.00  0.00    +0.144 HD
ATOM     45  H   LIG    1      -29.712  69.744  30.103  0.00  0.00    +0.144 HD
ENDBRANCH  36  43
ENDBRANCH  30  37
ENDBRANCH  29  33
ENDBRANCH   1  29
TORSDOF 10
ENDMDL
MODEL 6
REMARK VINA RESULT:      -6.6     18.869     21.723
REMARK  Name = pdb/CHEMBL3899159.pdb
REMARK                            x       y       z     vdW  Elec       q    Type
REMARK                         _______ _______ _______ _____ _____    ______ ____
ROOT
ATOM      1  C   LIG    1      -26.471  82.206  37.314  0.00  0.00    +0.221 A 
ATOM      2  N   LIG    1      -27.758  81.791  37.345  0.00  0.00    -0.219 NA
ATOM      3  C   LIG    1      -28.695  82.647  36.887  0.00  0.00    +0.142 A 
ATOM      4  C   LIG    1      -28.445  83.962  36.510  0.00  0.00    +0.087 A 
ATOM      5  C   LIG    1      -27.102  84.361  36.505  0.00  0.00    +0.034 A 
ATOM      6  C   LIG    1      -26.098  83.473  36.899  0.00  0.00    +0.070 A 
ENDROOT
BRANCH   4   7
ATOM      7  N   LIG    1      -29.414  84.838  36.029  0.00  0.00    -0.198 NA
ATOM      8  C   LIG    1      -29.878  84.869  34.809  0.00  0.00    +0.285 C 
BRANCH   8   9
ATOM      9  N   LIG    1      -30.804  85.727  34.331  0.00  0.00    -0.269 N 
ATOM     10  H   LIG    1      -31.628  85.834  34.913  0.00  0.00    +0.157 HD
BRANCH   9  11
ATOM     11  C   LIG    1      -30.765  86.493  33.143  0.00  0.00    +0.043 A 
ATOM     12  C   LIG    1      -29.823  87.549  32.941  0.00  0.00    +0.005 A 
ATOM     13  C   LIG    1      -29.903  88.243  31.705  0.00  0.00    +0.011 A 
ATOM     14  C   LIG    1      -30.834  87.929  30.708  0.00  0.00    +0.013 A 
ATOM     15  C   LIG    1      -31.725  86.879  30.893  0.00  0.00    +0.057 A 
ATOM     16  C   LIG    1      -31.667  86.172  32.101  0.00  0.00    +0.036 A 
BRANCH  12  17
ATOM     17  C   LIG    1      -28.780  87.981  33.930  0.00  0.00    +0.002 A 
ATOM     18  C   LIG    1      -27.595  87.253  34.118  0.00  0.00    +0.119 A 
ATOM     19  N   LIG    1      -26.602  87.549  34.998  0.00  0.00    -0.263 NA
ATOM     20  C   LIG    1      -26.766  88.656  35.742  0.00  0.00    +0.111 A 
ATOM     21  C   LIG    1      -27.884  89.461  35.656  0.00  0.00    +0.020 A 
ATOM     22  C   LIG    1      -28.905  89.098  34.771  0.00  0.00    +0.011 A 
ENDBRANCH  12  17
BRANCH  15  23
ATOM     23  C   LIG    1      -32.724  86.505  29.825  0.00  0.00    +0.417 C 
ATOM     24  F   LIG    1      -33.917  86.103  30.345  0.00  0.00    -0.166 F 
ATOM     25  F   LIG    1      -32.293  85.477  29.043  0.00  0.00    -0.166 F 
ATOM     26  F   LIG    1      -33.016  87.523  28.968  0.00  0.00    -0.166 F 
ENDBRANCH  15  23
ENDBRANCH   9  11
ENDBRANCH   8   9
BRANCH   8  27
ATOM     27  O   LIG    1      -29.516  83.994  33.857  0.00  0.00    -0.481 OA
ATOM     28  H   LIG    1      -30.129  83.252  33.777  0.00  0.00    +0.295 HD
ENDBRANCH   8  27
ENDBRANCH   4   7
BRANCH   1  29
ATOM     29  O   LIG    1      -25.455  81.341  37.716  0.00  0.00    -0.438 OA
BRANCH  29  33
ATOM     30  C   LIG    1      -23.386  79.306  34.617  0.00  0.00    -0.014 A 
ATOM     31  C   LIG    1      -22.933  80.533  35.142  0.00  0.00    +0.012 A 
ATOM     32  C   LIG    1      -23.567  81.188  36.200  0.00  0.00    +0.047 A 
ATOM     33  C   LIG    1      -24.752  80.693  36.727  0.00  0.00    +0.130 A 
ATOM     34  C   LIG    1      -25.218  79.468  36.276  0.00  0.00    +0.047 A 
ATOM     35  C   LIG    1      -24.536  78.787  35.249  0.00  0.00    +0.012 A 
BRANCH  30  37
ATOM     36  C   LIG    1      -23.204  77.896  32.433  0.00  0.00    +0.124 A 
ATOM     37  C   LIG    1      -22.632  78.621  33.503  0.00  0.00    +0.023 A 
ATOM     38  C   LIG    1      -21.213  78.635  33.499  0.00  0.00    +0.033 A 
ATOM     39  C   LIG    1      -20.466  77.958  32.542  0.00  0.00    +0.060 A 
ATOM     40 CL   LIG    1      -18.751  77.975  32.595  0.00  0.00    -0.082 Cl
ATOM     41  C   LIG    1      -21.145  77.270  31.567  0.00  0.00    +0.133 A 
ATOM     42  N   LIG    1      -22.490  77.233  31.490  0.00  0.00    -0.239 NA
BRANCH  36  43
ATOM     43  N   LIG    1      -24.571  77.792  32.195  0.00  0.00    -0.343 N 
ATOM     44  H   LIG    1      -24.991  78.715  32.194  0.00  0.00    +0.144 HD
ATOM     45  H   LIG    1      -24.662  77.368  31.274  0.00  0.00    +0.144 HD
ENDBRANCH  36  43
ENDBRANCH  30  37
ENDBRANCH  29  33
ENDBRANCH   1  29
TORSDOF 10
ENDMDL
MODEL 7
REMARK VINA RESULT:      -6.6      2.809      4.764
REMARK  Name = pdb/CHEMBL3899159.pdb
REMARK                            x       y       z     vdW  Elec       q    Type
REMARK                         _______ _______ _______ _____ _____    ______ ____
ROOT
ATOM      1  C   LIG    1      -36.633  67.066  21.670  0.00  0.00    +0.221 A 
ATOM      2  N   LIG    1      -36.416  67.094  23.006  0.00  0.00    -0.219 NA
ATOM      3  C   LIG    1      -37.040  68.059  23.713  0.00  0.00    +0.142 A 
ATOM      4  C   LIG    1      -37.779  69.095  23.153  0.00  0.00    +0.087 A 
ATOM      5  C   LIG    1      -37.970  69.041  21.766  0.00  0.00    +0.034 A 
ATOM      6  C   LIG    1      -37.403  68.010  21.012  0.00  0.00    +0.070 A 
ENDROOT
BRANCH   4   7
ATOM      7  N   LIG    1      -38.428  70.082  23.889  0.00  0.00    -0.198 NA
ATOM      8  C   LIG    1      -37.870  71.148  24.395  0.00  0.00    +0.285 C 
BRANCH   8   9
ATOM      9  N   LIG    1      -38.488  72.100  25.126  0.00  0.00    -0.269 N 
ATOM     10  H   LIG    1      -38.284  72.074  26.120  0.00  0.00    +0.157 HD
BRANCH   9  11
ATOM     11  C   LIG    1      -39.362  73.120  24.686  0.00  0.00    +0.043 A 
ATOM     12  C   LIG    1      -39.144  74.500  24.987  0.00  0.00    +0.005 A 
ATOM     13  C   LIG    1      -40.107  75.418  24.490  0.00  0.00    +0.011 A 
ATOM     14  C   LIG    1      -41.218  75.029  23.733  0.00  0.00    +0.013 A 
ATOM     15  C   LIG    1      -41.408  73.691  23.412  0.00  0.00    +0.057 A 
ATOM     16  C   LIG    1      -40.471  72.762  23.884  0.00  0.00    +0.036 A 
BRANCH  12  17
ATOM     17  C   LIG    1      -37.996  75.041  25.788  0.00  0.00    +0.002 A 
ATOM     18  C   LIG    1      -37.374  76.256  25.459  0.00  0.00    +0.119 A 
ATOM     19  N   LIG    1      -36.319  76.818  26.107  0.00  0.00    -0.263 NA
ATOM     20  C   LIG    1      -35.845  76.156  27.176  0.00  0.00    +0.111 A 
ATOM     21  C   LIG    1      -36.366  74.953  27.607  0.00  0.00    +0.020 A 
ATOM     22  C   LIG    1      -37.421  74.383  26.886  0.00  0.00    +0.011 A 
ENDBRANCH  12  17
BRANCH  15  23
ATOM     23  C   LIG    1      -42.585  73.247  22.577  0.00  0.00    +0.417 C 
ATOM     24  F   LIG    1      -42.227  72.377  21.593  0.00  0.00    -0.166 F 
ATOM     25  F   LIG    1      -43.202  74.286  21.950  0.00  0.00    -0.166 F 
ATOM     26  F   LIG    1      -43.559  72.619  23.294  0.00  0.00    -0.166 F 
ENDBRANCH  15  23
ENDBRANCH   9  11
ENDBRANCH   8   9
BRANCH   8  27
ATOM     27  O   LIG    1      -36.579  71.468  24.209  0.00  0.00    -0.481 OA
ATOM     28  H   LIG    1      -36.205  71.965  24.948  0.00  0.00    +0.295 HD
ENDBRANCH   8  27
ENDBRANCH   4   7
BRANCH   1  29
ATOM     29  O   LIG    1      -36.065  66.054  20.898  0.00  0.00    -0.438 OA
BRANCH  29  33
ATOM     30  C   LIG    1      -32.540  66.960  18.713  0.00  0.00    -0.014 A 
ATOM     31  C   LIG    1      -33.818  66.986  18.119  0.00  0.00    +0.012 A 
ATOM     32  C   LIG    1      -34.993  66.748  18.835  0.00  0.00    +0.047 A 
ATOM     33  C   LIG    1      -34.943  66.373  20.170  0.00  0.00    +0.130 A 
ATOM     34  C   LIG    1      -33.714  66.374  20.813  0.00  0.00    +0.047 A 
ATOM     35  C   LIG    1      -32.541  66.674  20.094  0.00  0.00    +0.012 A 
BRANCH  30  37
ATOM     36  C   LIG    1      -30.363  66.333  17.424  0.00  0.00    +0.124 A 
ATOM     37  C   LIG    1      -31.308  67.271  17.898  0.00  0.00    +0.023 A 
ATOM     38  C   LIG    1      -30.993  68.619  17.582  0.00  0.00    +0.033 A 
ATOM     39  C   LIG    1      -29.833  68.971  16.902  0.00  0.00    +0.060 A 
ATOM     40 CL   LIG    1      -29.476  70.617  16.570  0.00  0.00    -0.082 Cl
ATOM     41  C   LIG    1      -28.984  67.963  16.516  0.00  0.00    +0.133 A 
ATOM     42  N   LIG    1      -29.229  66.659  16.757  0.00  0.00    -0.239 NA
BRANCH  36  43
ATOM     43  N   LIG    1      -30.487  64.954  17.560  0.00  0.00    -0.343 N 
ATOM     44  H   LIG    1      -30.051  64.491  16.771  0.00  0.00    +0.144 HD
ATOM     45  H   LIG    1      -29.997  64.714  18.419  0.00  0.00    +0.144 HD
ENDBRANCH  36  43
ENDBRANCH  30  37
ENDBRANCH  29  33
ENDBRANCH   1  29
TORSDOF 10
ENDMDL
MODEL 8
REMARK VINA RESULT:      -6.5     15.753     19.801
REMARK  Name = pdb/CHEMBL3899159.pdb
REMARK                            x       y       z     vdW  Elec       q    Type
REMARK                         _______ _______ _______ _____ _____    ______ ____
ROOT
ATOM      1  C   LIG    1      -28.455  75.132  33.034  0.00  0.00    +0.221 A 
ATOM      2  N   LIG    1      -28.408  75.999  34.072  0.00  0.00    -0.219 NA
ATOM      3  C   LIG    1      -27.347  76.830  34.136  0.00  0.00    +0.142 A 
ATOM      4  C   LIG    1      -26.244  76.769  33.290  0.00  0.00    +0.087 A 
ATOM      5  C   LIG    1      -26.322  75.848  32.236  0.00  0.00    +0.034 A 
ATOM      6  C   LIG    1      -27.443  75.026  32.095  0.00  0.00    +0.070 A 
ENDROOT
BRANCH   4   7
ATOM      7  N   LIG    1      -25.157  77.634  33.356  0.00  0.00    -0.198 NA
ATOM      8  C   LIG    1      -24.075  77.450  34.063  0.00  0.00    +0.285 C 
BRANCH   8   9
ATOM      9  N   LIG    1      -23.025  78.294  34.147  0.00  0.00    -0.269 N 
ATOM     10  H   LIG    1      -23.089  78.984  34.889  0.00  0.00    +0.157 HD
BRANCH   9  11
ATOM     11  C   LIG    1      -21.858  78.330  33.350  0.00  0.00    +0.043 A 
ATOM     12  C   LIG    1      -20.697  79.075  33.724  0.00  0.00    +0.005 A 
ATOM     13  C   LIG    1      -19.598  79.031  32.825  0.00  0.00    +0.011 A 
ATOM     14  C   LIG    1      -19.612  78.300  31.632  0.00  0.00    +0.013 A 
ATOM     15  C   LIG    1      -20.729  77.548  31.288  0.00  0.00    +0.057 A 
ATOM     16  C   LIG    1      -21.827  77.568  32.159  0.00  0.00    +0.036 A 
BRANCH  12  17
ATOM     17  C   LIG    1      -20.559  79.897  34.971  0.00  0.00    +0.002 A 
ATOM     18  C   LIG    1      -19.779  79.468  36.056  0.00  0.00    +0.119 A 
ATOM     19  N   LIG    1      -19.607  80.127  37.232  0.00  0.00    -0.263 NA
ATOM     20  C   LIG    1      -20.228  81.313  37.355  0.00  0.00    +0.111 A 
ATOM     21  C   LIG    1      -21.024  81.851  36.364  0.00  0.00    +0.020 A 
ATOM     22  C   LIG    1      -21.213  81.120  35.186  0.00  0.00    +0.011 A 
ENDBRANCH  12  17
BRANCH  15  23
ATOM     23  C   LIG    1      -20.762  76.732  30.019  0.00  0.00    +0.417 C 
ATOM     24  F   LIG    1      -19.802  77.110  29.131  0.00  0.00    -0.166 F 
ATOM     25  F   LIG    1      -21.947  76.845  29.357  0.00  0.00    -0.166 F 
ATOM     26  F   LIG    1      -20.578  75.397  30.221  0.00  0.00    -0.166 F 
ENDBRANCH  15  23
ENDBRANCH   9  11
ENDBRANCH   8   9
BRANCH   8  27
ATOM     27  O   LIG    1      -23.842  76.342  34.784  0.00  0.00    -0.481 OA
ATOM     28  H   LIG    1      -23.424  76.529  35.635  0.00  0.00    +0.295 HD
ENDBRANCH   8  27
ENDBRANCH   4   7
BRANCH   1  29
ATOM     29  O   LIG    1      -29.558  74.294  32.882  0.00  0.00    -0.438 OA
BRANCH  29  33
ATOM     30  C   LIG    1      -32.390  75.462  29.943  0.00  0.00    -0.014 A 
ATOM     31  C   LIG    1      -31.512  74.377  29.750  0.00  0.00    +0.012 A 
ATOM     32  C   LIG    1      -30.614  73.942  30.727  0.00  0.00    +0.047 A 
ATOM     33  C   LIG    1      -30.480  74.636  31.921  0.00  0.00    +0.130 A 
ATOM     34  C   LIG    1      -31.349  75.685  32.179  0.00  0.00    +0.047 A 
ATOM     35  C   LIG    1      -32.291  76.077  31.209  0.00  0.00    +0.012 A 
BRANCH  30  37
ATOM     36  C   LIG    1      -33.357  77.062  28.128  0.00  0.00    +0.124 A 
ATOM     37  C   LIG    1      -33.372  75.858  28.867  0.00  0.00    +0.023 A 
ATOM     38  C   LIG    1      -34.459  75.000  28.553  0.00  0.00    +0.033 A 
ATOM     39  C   LIG    1      -35.435  75.347  27.627  0.00  0.00    +0.060 A 
ATOM     40 CL   LIG    1      -36.750  74.292  27.302  0.00  0.00    -0.082 Cl
ATOM     41  C   LIG    1      -35.317  76.559  26.993  0.00  0.00    +0.133 A 
ATOM     42  N   LIG    1      -34.300  77.414  27.219  0.00  0.00    -0.239 NA
BRANCH  36  43
ATOM     43  N   LIG    1      -32.361  78.029  28.219  0.00  0.00    -0.343 N 
ATOM     44  H   LIG    1      -31.636  77.716  28.855  0.00  0.00    +0.144 HD
ATOM     45  H   LIG    1      -31.981  78.128  27.280  0.00  0.00    +0.144 HD
ENDBRANCH  36  43
ENDBRANCH  30  37
ENDBRANCH  29  33
ENDBRANCH   1  29
TORSDOF 10
ENDMDL
MODEL 9
REMARK VINA RESULT:      -6.4     18.290     21.336
REMARK  Name = pdb/CHEMBL3899159.pdb
REMARK                            x       y       z     vdW  Elec       q    Type
REMARK                         _______ _______ _______ _____ _____    ______ ____
ROOT
ATOM      1  C   LIG    1      -25.925  81.609  37.068  0.00  0.00    +0.221 A 
ATOM      2  N   LIG    1      -27.243  81.355  37.243  0.00  0.00    -0.219 NA
ATOM      3  C   LIG    1      -28.098  82.386  37.080  0.00  0.00    +0.142 A 
ATOM      4  C   LIG    1      -27.712  83.706  36.874  0.00  0.00    +0.087 A 
ATOM      5  C   LIG    1      -26.338  83.932  36.712  0.00  0.00    +0.034 A 
ATOM      6  C   LIG    1      -25.431  82.873  36.797  0.00  0.00    +0.070 A 
ENDROOT
BRANCH   4   7
ATOM      7  N   LIG    1      -28.599  84.764  36.697  0.00  0.00    -0.198 NA
ATOM      8  C   LIG    1      -29.130  85.133  35.563  0.00  0.00    +0.285 C 
BRANCH   8   9
ATOM      9  N   LIG    1      -29.976  86.169  35.381  0.00  0.00    -0.269 N 
ATOM     10  H   LIG    1      -30.856  86.096  35.882  0.00  0.00    +0.157 HD
BRANCH   9  11
ATOM     11  C   LIG    1      -29.790  87.332  34.599  0.00  0.00    +0.043 A 
ATOM     12  C   LIG    1      -30.422  87.513  33.330  0.00  0.00    +0.005 A 
ATOM     13  C   LIG    1      -30.140  88.726  32.647  0.00  0.00    +0.011 A 
ATOM     14  C   LIG    1      -29.299  89.719  33.163  0.00  0.00    +0.013 A 
ATOM     15  C   LIG    1      -28.714  89.555  34.413  0.00  0.00    +0.057 A 
ATOM     16  C   LIG    1      -28.979  88.371  35.113  0.00  0.00    +0.036 A 
BRANCH  12  17
ATOM     17  C   LIG    1      -31.340  86.526  32.671  0.00  0.00    +0.002 A 
ATOM     18  C   LIG    1      -32.544  86.123  33.270  0.00  0.00    +0.119 A 
ATOM     19  N   LIG    1      -33.430  85.224  32.765  0.00  0.00    -0.263 NA
ATOM     20  C   LIG    1      -33.131  84.689  31.568  0.00  0.00    +0.111 A 
ATOM     21  C   LIG    1      -31.980  85.001  30.872  0.00  0.00    +0.020 A 
ATOM     22  C   LIG    1      -31.071  85.895  31.446  0.00  0.00    +0.011 A 
ENDBRANCH  12  17
BRANCH  15  23
ATOM     23  C   LIG    1      -27.821  90.620  35.003  0.00  0.00    +0.417 C 
ATOM     24  F   LIG    1      -28.390  91.243  36.072  0.00  0.00    -0.166 F 
ATOM     25  F   LIG    1      -27.525  91.606  34.112  0.00  0.00    -0.166 F 
ATOM     26  F   LIG    1      -26.621  90.147  35.442  0.00  0.00    -0.166 F 
ENDBRANCH  15  23
ENDBRANCH   9  11
ENDBRANCH   8   9
BRANCH   8  27
ATOM     27  O   LIG    1      -28.934  84.482  34.406  0.00  0.00    -0.481 OA
ATOM     28  H   LIG    1      -29.307  83.590  34.410  0.00  0.00    +0.295 HD
ENDBRANCH   8  27
ENDBRANCH   4   7
BRANCH   1  29
ATOM     29  O   LIG    1      -25.002  80.568  37.162  0.00  0.00    -0.438 OA
BRANCH  29  33
ATOM     30  C   LIG    1      -24.152  78.491  33.558  0.00  0.00    -0.014 A 
ATOM     31  C   LIG    1      -23.315  79.513  34.051  0.00  0.00    +0.012 A 
ATOM     32  C   LIG    1      -23.547  80.167  35.263  0.00  0.00    +0.047 A 
ATOM     33  C   LIG    1      -24.690  79.898  36.003  0.00  0.00    +0.130 A 
ATOM     34  C   LIG    1      -25.524  78.872  35.584  0.00  0.00    +0.047 A 
ATOM     35  C   LIG    1      -25.247  78.179  34.391  0.00  0.00    +0.012 A 
BRANCH  30  37
ATOM     36  C   LIG    1      -24.757  77.346  31.297  0.00  0.00    +0.124 A 
ATOM     37  C   LIG    1      -23.825  77.787  32.264  0.00  0.00    +0.023 A 
ATOM     38  C   LIG    1      -22.476  77.474  31.952  0.00  0.00    +0.033 A 
ATOM     39  C   LIG    1      -22.124  76.760  30.813  0.00  0.00    +0.060 A 
ATOM     40 CL   LIG    1      -20.482  76.375  30.492  0.00  0.00    -0.082 Cl
ATOM     41  C   LIG    1      -23.129  76.368  29.964  0.00  0.00    +0.133 A 
ATOM     42  N   LIG    1      -24.429  76.651  30.180  0.00  0.00    -0.239 NA
BRANCH  36  43
ATOM     43  N   LIG    1      -26.125  77.588  31.356  0.00  0.00    -0.343 N 
ATOM     44  H   LIG    1      -26.569  77.254  30.507  0.00  0.00    +0.144 HD
ATOM     45  H   LIG    1      -26.468  77.062  32.157  0.00  0.00    +0.144 HD
ENDBRANCH  36  43
ENDBRANCH  30  37
ENDBRANCH  29  33
ENDBRANCH   1  29
TORSDOF 10
ENDMDL
