MODEL 1
REMARK VINA RESULT:      -6.7      0.000      0.000
REMARK  Name = pdb/CHEMBL3675912.pdb
REMARK                            x       y       z     vdW  Elec       q    Type
REMARK                         _______ _______ _______ _____ _____    ______ ____
ROOT
ATOM      1  C   LIG    1      -36.584  75.094  26.879  0.00  0.00    +0.126 A 
ATOM      2  N   LIG    1      -37.316  74.080  26.445  0.00  0.00    -0.212 NA
ATOM      3  C   LIG    1      -38.319  74.330  25.537  0.00  0.00    +0.170 A 
ATOM      4  C   LIG    1      -39.132  73.502  24.777  0.00  0.00    +0.100 A 
ATOM      5  C   LIG    1      -40.008  74.382  24.110  0.00  0.00    +0.150 A 
ATOM      6  N   LIG    1      -39.744  75.667  24.353  0.00  0.00    -0.173 NA
ATOM      7  N   LIG    1      -38.661  75.630  25.163  0.00  0.00    -0.221 N 
ATOM      8  C   LIG    1      -37.883  76.696  25.569  0.00  0.00    +0.118 A 
ATOM      9  C   LIG    1      -36.824  76.494  26.360  0.00  0.00    +0.063 A 
ENDROOT
BRANCH   1  11
ATOM     10  C   LIG    1      -34.256  75.486  27.875  0.00  0.00    +0.105 C 
ATOM     11  N   LIG    1      -35.602  74.854  27.846  0.00  0.00    -0.308 N 
ATOM     12  C   LIG    1      -35.582  73.594  28.603  0.00  0.00    +0.107 C 
ATOM     13  C   LIG    1      -34.109  73.263  28.780  0.00  0.00    +0.021 C 
ATOM     14  C   LIG    1      -33.455  74.628  28.873  0.00  0.00    +0.029 C 
BRANCH  10  16
ATOM     15  C   LIG    1      -33.434  77.939  27.630  0.00  0.00    -0.017 A 
ATOM     16  C   LIG    1      -34.242  76.962  28.280  0.00  0.00    -0.019 A 
ATOM     17  C   LIG    1      -35.075  77.396  29.334  0.00  0.00    +0.044 A 
ATOM     18  C   LIG    1      -35.155  78.741  29.685  0.00  0.00    +0.124 A 
ATOM     19  F   LIG    1      -36.002  79.122  30.649  0.00  0.00    -0.205 F 
ATOM     20  C   LIG    1      -34.387  79.694  29.040  0.00  0.00    +0.039 A 
ATOM     21  C   LIG    1      -33.521  79.294  28.026  0.00  0.00    +0.009 A 
BRANCH  15  22
ATOM     22  C   LIG    1      -32.465  77.622  26.511  0.00  0.00    +0.191 C 
BRANCH  22  23
ATOM     23  O   LIG    1      -32.333  78.722  25.627  0.00  0.00    -0.390 OA
ATOM     24  H   LIG    1      -31.723  78.453  24.919  0.00  0.00    +0.210 HD
ENDBRANCH  22  23
ENDBRANCH  15  22
ENDBRANCH  10  16
ENDBRANCH   1  11
BRANCH   4  25
ATOM     25  C   LIG    1      -39.120  72.058  24.650  0.00  0.00    +0.249 C 
ATOM     26  N   LIG    1      -37.864  71.493  24.624  0.00  0.00    -0.308 N 
ATOM     27  H   LIG    1      -37.074  72.134  24.621  0.00  0.00    +0.149 HD
ATOM     28  O   LIG    1      -40.149  71.408  24.548  0.00  0.00    -0.270 OA
BRANCH  26  29
ATOM     29  C   LIG    1      -37.657  70.069  24.453  0.00  0.00    +0.073 C 
ATOM     30  C   LIG    1      -37.473  69.708  22.973  0.00  0.00    +0.025 C 
ATOM     31  C   LIG    1      -37.208  68.212  22.794  0.00  0.00    +0.033 C 
ATOM     32  C   LIG    1      -36.038  67.714  23.645  0.00  0.00    +0.115 C 
ATOM     33  C   LIG    1      -36.166  68.128  25.111  0.00  0.00    +0.033 C 
ATOM     34  C   LIG    1      -36.453  69.618  25.285  0.00  0.00    +0.025 C 
BRANCH  32  35
ATOM     35  O   LIG    1      -34.805  68.193  23.112  0.00  0.00    -0.392 OA
ATOM     36  H   LIG    1      -34.984  68.946  22.528  0.00  0.00    +0.210 HD
ENDBRANCH  32  35
ENDBRANCH  26  29
ENDBRANCH   4  25
TORSDOF 7
ENDMDL
MODEL 2
REMARK VINA RESULT:      -6.4      5.279      9.251
REMARK  Name = pdb/CHEMBL3675912.pdb
REMARK                            x       y       z     vdW  Elec       q    Type
REMARK                         _______ _______ _______ _____ _____    ______ ____
ROOT
ATOM      1  C   LIG    1      -35.792  79.556  28.545  0.00  0.00    +0.126 A 
ATOM      2  N   LIG    1      -36.179  80.516  27.720  0.00  0.00    -0.212 NA
ATOM      3  C   LIG    1      -35.940  81.825  28.072  0.00  0.00    +0.170 A 
ATOM      4  C   LIG    1      -36.058  83.023  27.382  0.00  0.00    +0.100 A 
ATOM      5  C   LIG    1      -35.733  84.011  28.335  0.00  0.00    +0.150 A 
ATOM      6  N   LIG    1      -35.366  83.502  29.512  0.00  0.00    -0.173 NA
ATOM      7  N   LIG    1      -35.418  82.165  29.319  0.00  0.00    -0.221 N 
ATOM      8  C   LIG    1      -34.967  81.178  30.175  0.00  0.00    +0.118 A 
ATOM      9  C   LIG    1      -35.070  79.890  29.831  0.00  0.00    +0.063 A 
ENDROOT
BRANCH   1  11
ATOM     10  C   LIG    1      -35.273  77.365  27.322  0.00  0.00    +0.105 C 
ATOM     11  N   LIG    1      -36.086  78.228  28.220  0.00  0.00    -0.308 N 
ATOM     12  C   LIG    1      -37.464  77.722  28.289  0.00  0.00    +0.107 C 
ATOM     13  C   LIG    1      -37.590  76.757  27.121  0.00  0.00    +0.021 C 
ATOM     14  C   LIG    1      -36.195  76.174  27.001  0.00  0.00    +0.029 C 
BRANCH  10  16
ATOM     15  C   LIG    1      -32.729  77.625  27.785  0.00  0.00    -0.017 A 
ATOM     16  C   LIG    1      -33.942  76.889  27.911  0.00  0.00    -0.019 A 
ATOM     17  C   LIG    1      -33.902  75.675  28.630  0.00  0.00    +0.044 A 
ATOM     18  C   LIG    1      -32.732  75.241  29.250  0.00  0.00    +0.124 A 
ATOM     19  F   LIG    1      -32.748  74.115  29.974  0.00  0.00    -0.205 F 
ATOM     20  C   LIG    1      -31.559  75.966  29.147  0.00  0.00    +0.039 A 
ATOM     21  C   LIG    1      -31.553  77.145  28.408  0.00  0.00    +0.009 A 
BRANCH  15  22
ATOM     22  C   LIG    1      -32.606  78.922  27.015  0.00  0.00    +0.191 C 
BRANCH  22  23
ATOM     23  O   LIG    1      -32.334  78.676  25.646  0.00  0.00    -0.390 OA
ATOM     24  H   LIG    1      -32.629  79.457  25.147  0.00  0.00    +0.210 HD
ENDBRANCH  22  23
ENDBRANCH  15  22
ENDBRANCH  10  16
ENDBRANCH   1  11
BRANCH   4  25
ATOM     25  C   LIG    1      -36.417  83.264  25.999  0.00  0.00    +0.249 C 
ATOM     26  N   LIG    1      -37.680  82.840  25.651  0.00  0.00    -0.308 N 
ATOM     27  H   LIG    1      -38.207  82.339  26.363  0.00  0.00    +0.149 HD
ATOM     28  O   LIG    1      -35.641  83.778  25.209  0.00  0.00    -0.270 OA
BRANCH  26  29
ATOM     29  C   LIG    1      -38.192  82.953  24.300  0.00  0.00    +0.073 C 
ATOM     30  C   LIG    1      -39.314  81.939  24.044  0.00  0.00    +0.025 C 
ATOM     31  C   LIG    1      -39.888  82.088  22.633  0.00  0.00    +0.033 C 
ATOM     32  C   LIG    1      -40.339  83.517  22.328  0.00  0.00    +0.115 C 
ATOM     33  C   LIG    1      -39.258  84.550  22.646  0.00  0.00    +0.033 C 
ATOM     34  C   LIG    1      -38.673  84.384  24.048  0.00  0.00    +0.025 C 
BRANCH  32  35
ATOM     35  O   LIG    1      -41.529  83.821  23.052  0.00  0.00    -0.392 OA
ATOM     36  H   LIG    1      -41.569  84.778  23.208  0.00  0.00    +0.210 HD
ENDBRANCH  32  35
ENDBRANCH  26  29
ENDBRANCH   4  25
TORSDOF 7
ENDMDL
MODEL 3
REMARK VINA RESULT:      -6.4      3.526      8.399
REMARK  Name = pdb/CHEMBL3675912.pdb
REMARK                            x       y       z     vdW  Elec       q    Type
REMARK                         _______ _______ _______ _____ _____    ______ ____
ROOT
ATOM      1  C   LIG    1      -39.339  75.747  27.468  0.00  0.00    +0.126 A 
ATOM      2  N   LIG    1      -38.352  76.209  28.219  0.00  0.00    -0.212 NA
ATOM      3  C   LIG    1      -38.144  75.646  29.457  0.00  0.00    +0.170 A 
ATOM      4  C   LIG    1      -37.127  75.774  30.392  0.00  0.00    +0.100 A 
ATOM      5  C   LIG    1      -37.553  74.991  31.485  0.00  0.00    +0.150 A 
ATOM      6  N   LIG    1      -38.702  74.355  31.256  0.00  0.00    -0.173 NA
ATOM      7  N   LIG    1      -39.017  74.696  29.986  0.00  0.00    -0.221 N 
ATOM      8  C   LIG    1      -40.025  74.168  29.203  0.00  0.00    +0.118 A 
ATOM      9  C   LIG    1      -40.199  74.599  27.948  0.00  0.00    +0.063 A 
ENDROOT
BRANCH   1  11
ATOM     10  C   LIG    1      -39.065  75.886  24.924  0.00  0.00    +0.105 C 
ATOM     11  N   LIG    1      -39.592  76.354  26.234  0.00  0.00    -0.308 N 
ATOM     12  C   LIG    1      -39.942  77.779  26.154  0.00  0.00    +0.107 C 
ATOM     13  C   LIG    1      -39.266  78.281  24.887  0.00  0.00    +0.021 C 
ATOM     14  C   LIG    1      -39.304  77.072  23.972  0.00  0.00    +0.029 C 
BRANCH  10  16
ATOM     15  C   LIG    1      -39.154  73.311  24.584  0.00  0.00    -0.017 A 
ATOM     16  C   LIG    1      -39.712  74.607  24.386  0.00  0.00    -0.019 A 
ATOM     17  C   LIG    1      -40.927  74.696  23.673  0.00  0.00    +0.044 A 
ATOM     18  C   LIG    1      -41.592  73.555  23.233  0.00  0.00    +0.124 A 
ATOM     19  F   LIG    1      -42.773  73.677  22.614  0.00  0.00    -0.205 F 
ATOM     20  C   LIG    1      -41.063  72.294  23.443  0.00  0.00    +0.039 A 
ATOM     21  C   LIG    1      -39.844  72.173  24.104  0.00  0.00    +0.009 A 
BRANCH  15  22
ATOM     22  C   LIG    1      -37.842  73.057  25.294  0.00  0.00    +0.191 C 
BRANCH  22  23
ATOM     23  O   LIG    1      -37.024  72.171  24.549  0.00  0.00    -0.390 OA
ATOM     24  H   LIG    1      -36.110  72.289  24.862  0.00  0.00    +0.210 HD
ENDBRANCH  22  23
ENDBRANCH  15  22
ENDBRANCH  10  16
ENDBRANCH   1  11
BRANCH   4  25
ATOM     25  C   LIG    1      -35.884  76.516  30.313  0.00  0.00    +0.249 C 
ATOM     26  N   LIG    1      -35.622  77.067  29.078  0.00  0.00    -0.308 N 
ATOM     27  H   LIG    1      -36.273  76.844  28.329  0.00  0.00    +0.149 HD
ATOM     28  O   LIG    1      -35.128  76.616  31.266  0.00  0.00    -0.270 OA
BRANCH  26  29
ATOM     29  C   LIG    1      -34.404  77.801  28.799  0.00  0.00    +0.073 C 
ATOM     30  C   LIG    1      -33.349  76.901  28.144  0.00  0.00    +0.025 C 
ATOM     31  C   LIG    1      -32.080  77.685  27.807  0.00  0.00    +0.033 C 
ATOM     32  C   LIG    1      -32.362  78.928  26.962  0.00  0.00    +0.115 C 
ATOM     33  C   LIG    1      -33.463  79.802  27.561  0.00  0.00    +0.033 C 
ATOM     34  C   LIG    1      -34.721  79.012  27.917  0.00  0.00    +0.025 C 
BRANCH  32  35
ATOM     35  O   LIG    1      -32.711  78.549  25.633  0.00  0.00    -0.392 OA
ATOM     36  H   LIG    1      -32.694  77.581  25.565  0.00  0.00    +0.210 HD
ENDBRANCH  32  35
ENDBRANCH  26  29
ENDBRANCH   4  25
TORSDOF 7
ENDMDL
MODEL 4
REMARK VINA RESULT:      -6.3     13.870     16.515
REMARK  Name = pdb/CHEMBL3675912.pdb
REMARK                            x       y       z     vdW  Elec       q    Type
REMARK                         _______ _______ _______ _____ _____    ______ ____
ROOT
ATOM      1  C   LIG    1      -24.192  80.346  36.209  0.00  0.00    +0.126 A 
ATOM      2  N   LIG    1      -24.473  79.412  35.315  0.00  0.00    -0.212 NA
ATOM      3  C   LIG    1      -25.655  78.717  35.434  0.00  0.00    +0.170 A 
ATOM      4  C   LIG    1      -26.312  77.825  34.600  0.00  0.00    +0.100 A 
ATOM      5  C   LIG    1      -27.437  77.412  35.342  0.00  0.00    +0.150 A 
ATOM      6  N   LIG    1      -27.544  78.031  36.518  0.00  0.00    -0.173 NA
ATOM      7  N   LIG    1      -26.496  78.886  36.533  0.00  0.00    -0.221 N 
ATOM      8  C   LIG    1      -26.245  79.886  37.453  0.00  0.00    +0.118 A 
ATOM      9  C   LIG    1      -25.168  80.668  37.319  0.00  0.00    +0.063 A 
ENDROOT
BRANCH   1  11
ATOM     10  C   LIG    1      -21.654  80.453  36.547  0.00  0.00    +0.105 C 
ATOM     11  N   LIG    1      -22.966  81.014  36.128  0.00  0.00    -0.308 N 
ATOM     12  C   LIG    1      -22.907  82.483  36.130  0.00  0.00    +0.107 C 
ATOM     13  C   LIG    1      -21.657  82.827  36.924  0.00  0.00    +0.021 C 
ATOM     14  C   LIG    1      -20.720  81.676  36.612  0.00  0.00    +0.029 C 
BRANCH  10  16
ATOM     15  C   LIG    1      -21.166  77.981  35.910  0.00  0.00    -0.017 A 
ATOM     16  C   LIG    1      -21.086  79.374  35.621  0.00  0.00    -0.019 A 
ATOM     17  C   LIG    1      -20.467  79.759  34.412  0.00  0.00    +0.044 A 
ATOM     18  C   LIG    1      -20.006  78.810  33.502  0.00  0.00    +0.124 A 
ATOM     19  F   LIG    1      -19.480  79.213  32.339  0.00  0.00    -0.205 F 
ATOM     20  C   LIG    1      -20.103  77.457  33.771  0.00  0.00    +0.039 A 
ATOM     21  C   LIG    1      -20.668  77.044  34.974  0.00  0.00    +0.009 A 
BRANCH  15  22
ATOM     22  C   LIG    1      -21.767  77.417  37.179  0.00  0.00    +0.191 C 
BRANCH  22  23
ATOM     23  O   LIG    1      -23.125  77.064  36.984  0.00  0.00    -0.390 OA
ATOM     24  H   LIG    1      -23.502  77.699  36.351  0.00  0.00    +0.210 HD
ENDBRANCH  22  23
ENDBRANCH  15  22
ENDBRANCH  10  16
ENDBRANCH   1  11
BRANCH   4  25
ATOM     25  C   LIG    1      -25.972  77.389  33.260  0.00  0.00    +0.249 C 
ATOM     26  N   LIG    1      -24.633  77.143  33.057  0.00  0.00    -0.308 N 
ATOM     27  H   LIG    1      -24.006  77.357  33.830  0.00  0.00    +0.149 HD
ATOM     28  O   LIG    1      -26.814  77.278  32.382  0.00  0.00    -0.270 OA
BRANCH  26  29
ATOM     29  C   LIG    1      -24.102  76.746  31.768  0.00  0.00    +0.073 C 
ATOM     30  C   LIG    1      -24.036  77.937  30.804  0.00  0.00    +0.025 C 
ATOM     31  C   LIG    1      -23.434  77.531  29.458  0.00  0.00    +0.033 C 
ATOM     32  C   LIG    1      -22.074  76.848  29.603  0.00  0.00    +0.115 C 
ATOM     33  C   LIG    1      -22.101  75.703  30.616  0.00  0.00    +0.033 C 
ATOM     34  C   LIG    1      -22.723  76.107  31.951  0.00  0.00    +0.025 C 
BRANCH  32  35
ATOM     35  O   LIG    1      -21.082  77.803  29.976  0.00  0.00    -0.392 OA
ATOM     36  H   LIG    1      -20.253  77.338  30.171  0.00  0.00    +0.210 HD
ENDBRANCH  32  35
ENDBRANCH  26  29
ENDBRANCH   4  25
TORSDOF 7
ENDMDL
MODEL 5
REMARK VINA RESULT:      -6.2     19.511     22.409
REMARK  Name = pdb/CHEMBL3675912.pdb
REMARK                            x       y       z     vdW  Elec       q    Type
REMARK                         _______ _______ _______ _____ _____    ______ ____
ROOT
ATOM      1  C   LIG    1      -22.732  86.308  11.975  0.00  0.00    +0.126 A 
ATOM      2  N   LIG    1      -23.317  85.176  12.333  0.00  0.00    -0.212 NA
ATOM      3  C   LIG    1      -23.972  84.438  11.374  0.00  0.00    +0.170 A 
ATOM      4  C   LIG    1      -24.523  83.166  11.376  0.00  0.00    +0.100 A 
ATOM      5  C   LIG    1      -25.116  83.036  10.103  0.00  0.00    +0.150 A 
ATOM      6  N   LIG    1      -24.907  84.094   9.319  0.00  0.00    -0.173 NA
ATOM      7  N   LIG    1      -24.139  84.913  10.073  0.00  0.00    -0.221 N 
ATOM      8  C   LIG    1      -23.500  86.069   9.668  0.00  0.00    +0.118 A 
ATOM      9  C   LIG    1      -22.754  86.764  10.533  0.00  0.00    +0.063 A 
ENDROOT
BRANCH   1  11
ATOM     10  C   LIG    1      -21.157  86.587  13.978  0.00  0.00    +0.105 C 
ATOM     11  N   LIG    1      -22.116  87.090  12.957  0.00  0.00    -0.308 N 
ATOM     12  C   LIG    1      -22.734  88.341  13.422  0.00  0.00    +0.107 C 
ATOM     13  C   LIG    1      -22.429  88.402  14.910  0.00  0.00    +0.021 C 
ATOM     14  C   LIG    1      -21.077  87.722  15.016  0.00  0.00    +0.029 C 
BRANCH  10  16
ATOM     15  C   LIG    1      -19.311  84.890  13.299  0.00  0.00    -0.017 A 
ATOM     16  C   LIG    1      -19.768  86.231  13.441  0.00  0.00    -0.019 A 
ATOM     17  C   LIG    1      -18.894  87.268  13.050  0.00  0.00    +0.044 A 
ATOM     18  C   LIG    1      -17.652  86.990  12.484  0.00  0.00    +0.124 A 
ATOM     19  F   LIG    1      -16.876  87.999  12.068  0.00  0.00    -0.205 F 
ATOM     20  C   LIG    1      -17.215  85.688  12.324  0.00  0.00    +0.039 A 
ATOM     21  C   LIG    1      -18.035  84.643  12.741  0.00  0.00    +0.009 A 
BRANCH  15  22
ATOM     22  C   LIG    1      -20.117  83.676  13.708  0.00  0.00    +0.191 C 
BRANCH  22  23
ATOM     23  O   LIG    1      -20.889  83.190  12.623  0.00  0.00    -0.390 OA
ATOM     24  H   LIG    1      -21.805  83.486  12.764  0.00  0.00    +0.210 HD
ENDBRANCH  22  23
ENDBRANCH  15  22
ENDBRANCH  10  16
ENDBRANCH   1  11
BRANCH   4  25
ATOM     25  C   LIG    1      -24.513  82.154  12.415  0.00  0.00    +0.249 C 
ATOM     26  N   LIG    1      -23.493  82.282  13.332  0.00  0.00    -0.308 N 
ATOM     27  H   LIG    1      -22.810  83.016  13.157  0.00  0.00    +0.149 HD
ATOM     28  O   LIG    1      -25.334  81.251  12.447  0.00  0.00    -0.270 OA
BRANCH  26  29
ATOM     29  C   LIG    1      -23.296  81.335  14.411  0.00  0.00    +0.073 C 
ATOM     30  C   LIG    1      -22.312  80.230  14.007  0.00  0.00    +0.025 C 
ATOM     31  C   LIG    1      -22.067  79.255  15.160  0.00  0.00    +0.033 C 
ATOM     32  C   LIG    1      -21.628  79.959  16.445  0.00  0.00    +0.115 C 
ATOM     33  C   LIG    1      -22.556  81.113  16.824  0.00  0.00    +0.033 C 
ATOM     34  C   LIG    1      -22.816  82.072  15.663  0.00  0.00    +0.025 C 
BRANCH  32  35
ATOM     35  O   LIG    1      -20.291  80.436  16.310  0.00  0.00    -0.392 OA
ATOM     36  H   LIG    1      -19.747  80.057  17.018  0.00  0.00    +0.210 HD
ENDBRANCH  32  35
ENDBRANCH  26  29
ENDBRANCH   4  25
TORSDOF 7
ENDMDL
MODEL 6
REMARK VINA RESULT:      -6.2     12.133     16.307
REMARK  Name = pdb/CHEMBL3675912.pdb
REMARK                            x       y       z     vdW  Elec       q    Type
REMARK                         _______ _______ _______ _____ _____    ______ ____
ROOT
ATOM      1  C   LIG    1      -25.533  78.047  34.302  0.00  0.00    +0.126 A 
ATOM      2  N   LIG    1      -24.313  78.224  33.821  0.00  0.00    -0.212 NA
ATOM      3  C   LIG    1      -23.449  79.053  34.500  0.00  0.00    +0.170 A 
ATOM      4  C   LIG    1      -22.093  79.313  34.368  0.00  0.00    +0.100 A 
ATOM      5  C   LIG    1      -21.833  80.321  35.320  0.00  0.00    +0.150 A 
ATOM      6  N   LIG    1      -22.901  80.635  36.053  0.00  0.00    -0.173 NA
ATOM      7  N   LIG    1      -23.865  79.800  35.601  0.00  0.00    -0.221 N 
ATOM      8  C   LIG    1      -25.118  79.596  36.145  0.00  0.00    +0.118 A 
ATOM      9  C   LIG    1      -25.957  78.714  35.591  0.00  0.00    +0.063 A 
ENDROOT
BRANCH   1  11
ATOM     10  C   LIG    1      -26.416  77.054  32.111  0.00  0.00    +0.105 C 
ATOM     11  N   LIG    1      -26.433  77.253  33.585  0.00  0.00    -0.308 N 
ATOM     12  C   LIG    1      -27.776  76.972  34.114  0.00  0.00    +0.107 C 
ATOM     13  C   LIG    1      -28.687  76.967  32.896  0.00  0.00    +0.021 C 
ATOM     14  C   LIG    1      -27.790  76.435  31.795  0.00  0.00    +0.029 C 
BRANCH  10  16
ATOM     15  C   LIG    1      -24.288  76.636  30.679  0.00  0.00    -0.017 A 
ATOM     16  C   LIG    1      -25.279  76.170  31.590  0.00  0.00    -0.019 A 
ATOM     17  C   LIG    1      -25.185  74.835  32.036  0.00  0.00    +0.044 A 
ATOM     18  C   LIG    1      -24.124  74.018  31.651  0.00  0.00    +0.124 A 
ATOM     19  F   LIG    1      -24.036  72.776  32.143  0.00  0.00    -0.205 F 
ATOM     20  C   LIG    1      -23.149  74.476  30.784  0.00  0.00    +0.039 A 
ATOM     21  C   LIG    1      -23.236  75.774  30.290  0.00  0.00    +0.009 A 
BRANCH  15  22
ATOM     22  C   LIG    1      -24.276  78.029  30.086  0.00  0.00    +0.191 C 
BRANCH  22  23
ATOM     23  O   LIG    1      -23.340  78.121  29.026  0.00  0.00    -0.390 OA
ATOM     24  H   LIG    1      -22.534  78.530  29.386  0.00  0.00    +0.210 HD
ENDBRANCH  22  23
ENDBRANCH  15  22
ENDBRANCH  10  16
ENDBRANCH   1  11
BRANCH   4  25
ATOM     25  C   LIG    1      -21.116  78.711  33.482  0.00  0.00    +0.249 C 
ATOM     26  N   LIG    1      -21.471  77.473  32.992  0.00  0.00    -0.308 N 
ATOM     27  H   LIG    1      -22.334  77.070  33.349  0.00  0.00    +0.149 HD
ATOM     28  O   LIG    1      -20.057  79.256  33.219  0.00  0.00    -0.270 OA
BRANCH  26  29
ATOM     29  C   LIG    1      -20.598  76.700  32.132  0.00  0.00    +0.073 C 
ATOM     30  C   LIG    1      -20.207  77.493  30.879  0.00  0.00    +0.025 C 
ATOM     31  C   LIG    1      -19.249  76.696  29.992  0.00  0.00    +0.033 C 
ATOM     32  C   LIG    1      -18.018  76.199  30.751  0.00  0.00    +0.115 C 
ATOM     33  C   LIG    1      -18.385  75.469  32.043  0.00  0.00    +0.033 C 
ATOM     34  C   LIG    1      -19.359  76.258  32.915  0.00  0.00    +0.025 C 
BRANCH  32  35
ATOM     35  O   LIG    1      -17.147  77.290  31.042  0.00  0.00    -0.392 OA
ATOM     36  H   LIG    1      -17.504  78.097  30.637  0.00  0.00    +0.210 HD
ENDBRANCH  32  35
ENDBRANCH  26  29
ENDBRANCH   4  25
TORSDOF 7
ENDMDL
MODEL 7
REMARK VINA RESULT:      -6.0      5.536      8.241
REMARK  Name = pdb/CHEMBL3675912.pdb
REMARK                            x       y       z     vdW  Elec       q    Type
REMARK                         _______ _______ _______ _____ _____    ______ ____
ROOT
ATOM      1  C   LIG    1      -38.989  68.654  22.359  0.00  0.00    +0.126 A 
ATOM      2  N   LIG    1      -38.058  68.031  23.064  0.00  0.00    -0.212 NA
ATOM      3  C   LIG    1      -36.901  67.640  22.431  0.00  0.00    +0.170 A 
ATOM      4  C   LIG    1      -35.695  67.137  22.897  0.00  0.00    +0.100 A 
ATOM      5  C   LIG    1      -34.952  66.864  21.730  0.00  0.00    +0.150 A 
ATOM      6  N   LIG    1      -35.584  67.224  20.612  0.00  0.00    -0.173 NA
ATOM      7  N   LIG    1      -36.740  67.771  21.052  0.00  0.00    -0.221 N 
ATOM      8  C   LIG    1      -37.679  68.457  20.306  0.00  0.00    +0.118 A 
ATOM      9  C   LIG    1      -38.769  68.960  20.894  0.00  0.00    +0.063 A 
ENDROOT
BRANCH   1  11
ATOM     10  C   LIG    1      -40.309  69.651  24.316  0.00  0.00    +0.105 C 
ATOM     11  N   LIG    1      -40.191  69.001  22.983  0.00  0.00    -0.308 N 
ATOM     12  C   LIG    1      -41.441  68.300  22.655  0.00  0.00    +0.107 C 
ATOM     13  C   LIG    1      -42.197  68.204  23.971  0.00  0.00    +0.021 C 
ATOM     14  C   LIG    1      -41.790  69.471  24.698  0.00  0.00    +0.029 C 
BRANCH  10  16
ATOM     15  C   LIG    1      -38.644  71.576  24.843  0.00  0.00    -0.017 A 
ATOM     16  C   LIG    1      -39.905  71.128  24.355  0.00  0.00    -0.019 A 
ATOM     17  C   LIG    1      -40.806  72.101  23.872  0.00  0.00    +0.044 A 
ATOM     18  C   LIG    1      -40.451  73.447  23.814  0.00  0.00    +0.124 A 
ATOM     19  F   LIG    1      -41.309  74.333  23.293  0.00  0.00    -0.205 F 
ATOM     20  C   LIG    1      -39.219  73.881  24.267  0.00  0.00    +0.039 A 
ATOM     21  C   LIG    1      -38.324  72.953  24.791  0.00  0.00    +0.009 A 
BRANCH  15  22
ATOM     22  C   LIG    1      -37.591  70.658  25.424  0.00  0.00    +0.191 C 
BRANCH  22  23
ATOM     23  O   LIG    1      -36.520  70.473  24.515  0.00  0.00    -0.390 OA
ATOM     24  H   LIG    1      -36.866  70.641  23.621  0.00  0.00    +0.210 HD
ENDBRANCH  22  23
ENDBRANCH  15  22
ENDBRANCH  10  16
ENDBRANCH   1  11
BRANCH   4  25
ATOM     25  C   LIG    1      -35.243  66.928  24.259  0.00  0.00    +0.249 C 
ATOM     26  N   LIG    1      -35.076  68.082  24.992  0.00  0.00    -0.308 N 
ATOM     27  H   LIG    1      -35.211  68.962  24.498  0.00  0.00    +0.149 HD
ATOM     28  O   LIG    1      -35.008  65.815  24.700  0.00  0.00    -0.270 OA
BRANCH  26  29
ATOM     29  C   LIG    1      -34.584  68.072  26.355  0.00  0.00    +0.073 C 
ATOM     30  C   LIG    1      -33.671  69.274  26.626  0.00  0.00    +0.025 C 
ATOM     31  C   LIG    1      -33.188  69.291  28.077  0.00  0.00    +0.033 C 
ATOM     32  C   LIG    1      -34.338  69.218  29.083  0.00  0.00    +0.115 C 
ATOM     33  C   LIG    1      -35.301  68.069  28.786  0.00  0.00    +0.033 C 
ATOM     34  C   LIG    1      -35.764  68.043  27.330  0.00  0.00    +0.025 C 
BRANCH  32  35
ATOM     35  O   LIG    1      -35.049  70.454  29.104  0.00  0.00    -0.392 OA
ATOM     36  H   LIG    1      -36.002  70.271  29.088  0.00  0.00    +0.210 HD
ENDBRANCH  32  35
ENDBRANCH  26  29
ENDBRANCH   4  25
TORSDOF 7
ENDMDL
MODEL 8
REMARK VINA RESULT:      -6.0     19.676     22.402
REMARK  Name = pdb/CHEMBL3675912.pdb
REMARK                            x       y       z     vdW  Elec       q    Type
REMARK                         _______ _______ _______ _____ _____    ______ ____
ROOT
ATOM      1  C   LIG    1      -18.947  82.491  14.095  0.00  0.00    +0.126 A 
ATOM      2  N   LIG    1      -19.944  83.361  14.109  0.00  0.00    -0.212 NA
ATOM      3  C   LIG    1      -19.700  84.654  13.708  0.00  0.00    +0.170 A 
ATOM      4  C   LIG    1      -20.530  85.734  13.448  0.00  0.00    +0.100 A 
ATOM      5  C   LIG    1      -19.648  86.795  13.154  0.00  0.00    +0.150 A 
ATOM      6  N   LIG    1      -18.368  86.424  13.149  0.00  0.00    -0.173 NA
ATOM      7  N   LIG    1      -18.411  85.097  13.409  0.00  0.00    -0.221 N 
ATOM      8  C   LIG    1      -17.366  84.197  13.345  0.00  0.00    +0.118 A 
ATOM      9  C   LIG    1      -17.573  82.903  13.614  0.00  0.00    +0.063 A 
ENDROOT
BRANCH   1  11
ATOM     10  C   LIG    1      -20.230  80.802  15.533  0.00  0.00    +0.105 C 
ATOM     11  N   LIG    1      -19.176  81.192  14.557  0.00  0.00    -0.308 N 
ATOM     12  C   LIG    1      -18.100  80.190  14.554  0.00  0.00    +0.107 C 
ATOM     13  C   LIG    1      -18.318  79.372  15.817  0.00  0.00    +0.021 C 
ATOM     14  C   LIG    1      -19.825  79.385  15.983  0.00  0.00    +0.029 C 
BRANCH  10  16
ATOM     15  C   LIG    1      -22.688  81.646  15.520  0.00  0.00    -0.017 A 
ATOM     16  C   LIG    1      -21.659  80.819  14.983  0.00  0.00    -0.019 A 
ATOM     17  C   LIG    1      -21.984  79.996  13.884  0.00  0.00    +0.044 A 
ATOM     18  C   LIG    1      -23.249  80.037  13.301  0.00  0.00    +0.124 A 
ATOM     19  F   LIG    1      -23.502  79.287  12.221  0.00  0.00    -0.205 F 
ATOM     20  C   LIG    1      -24.243  80.855  13.807  0.00  0.00    +0.039 A 
ATOM     21  C   LIG    1      -23.968  81.646  14.919  0.00  0.00    +0.009 A 
BRANCH  15  22
ATOM     22  C   LIG    1      -22.501  82.552  16.718  0.00  0.00    +0.191 C 
BRANCH  22  23
ATOM     23  O   LIG    1      -22.131  83.859  16.313  0.00  0.00    -0.390 OA
ATOM     24  H   LIG    1      -21.426  83.767  15.649  0.00  0.00    +0.210 HD
ENDBRANCH  22  23
ENDBRANCH  15  22
ENDBRANCH  10  16
ENDBRANCH   1  11
BRANCH   4  25
ATOM     25  C   LIG    1      -21.978  85.811  13.452  0.00  0.00    +0.249 C 
ATOM     26  N   LIG    1      -22.573  85.499  12.250  0.00  0.00    -0.308 N 
ATOM     27  H   LIG    1      -21.952  85.319  11.465  0.00  0.00    +0.149 HD
ATOM     28  O   LIG    1      -22.606  86.151  14.442  0.00  0.00    -0.270 OA
BRANCH  26  29
ATOM     29  C   LIG    1      -24.007  85.568  12.053  0.00  0.00    +0.073 C 
ATOM     30  C   LIG    1      -24.369  86.576  10.955  0.00  0.00    +0.025 C 
ATOM     31  C   LIG    1      -25.879  86.617  10.713  0.00  0.00    +0.033 C 
ATOM     32  C   LIG    1      -26.468  85.235  10.426  0.00  0.00    +0.115 C 
ATOM     33  C   LIG    1      -26.058  84.198  11.470  0.00  0.00    +0.033 C 
ATOM     34  C   LIG    1      -24.552  84.175  11.725  0.00  0.00    +0.025 C 
BRANCH  32  35
ATOM     35  O   LIG    1      -26.078  84.796   9.126  0.00  0.00    -0.392 OA
ATOM     36  H   LIG    1      -26.714  84.135   8.811  0.00  0.00    +0.210 HD
ENDBRANCH  32  35
ENDBRANCH  26  29
ENDBRANCH   4  25
TORSDOF 7
ENDMDL
MODEL 9
REMARK VINA RESULT:      -5.9      3.551      7.384
REMARK  Name = pdb/CHEMBL3675912.pdb
REMARK                            x       y       z     vdW  Elec       q    Type
REMARK                         _______ _______ _______ _____ _____    ______ ____
ROOT
ATOM      1  C   LIG    1      -39.402  78.322  24.452  0.00  0.00    +0.126 A 
ATOM      2  N   LIG    1      -38.644  77.717  25.352  0.00  0.00    -0.212 NA
ATOM      3  C   LIG    1      -38.637  76.341  25.393  0.00  0.00    +0.170 A 
ATOM      4  C   LIG    1      -37.854  75.422  26.074  0.00  0.00    +0.100 A 
ATOM      5  C   LIG    1      -38.411  74.169  25.743  0.00  0.00    +0.150 A 
ATOM      6  N   LIG    1      -39.415  74.258  24.870  0.00  0.00    -0.173 NA
ATOM      7  N   LIG    1      -39.496  75.581  24.599  0.00  0.00    -0.221 N 
ATOM      8  C   LIG    1      -40.261  76.190  23.623  0.00  0.00    +0.118 A 
ATOM      9  C   LIG    1      -40.217  77.517  23.464  0.00  0.00    +0.063 A 
ENDROOT
BRANCH   1  11
ATOM     10  C   LIG    1      -40.097  80.557  25.495  0.00  0.00    +0.105 C 
ATOM     11  N   LIG    1      -39.458  79.719  24.445  0.00  0.00    -0.308 N 
ATOM     12  C   LIG    1      -39.378  80.470  23.183  0.00  0.00    +0.107 C 
ATOM     13  C   LIG    1      -40.323  81.648  23.364  0.00  0.00    +0.021 C 
ATOM     14  C   LIG    1      -40.222  81.949  24.847  0.00  0.00    +0.029 C 
BRANCH  10  16
ATOM     15  C   LIG    1      -39.746  79.943  27.995  0.00  0.00    -0.017 A 
ATOM     16  C   LIG    1      -39.332  80.631  26.819  0.00  0.00    -0.019 A 
ATOM     17  C   LIG    1      -38.150  81.400  26.890  0.00  0.00    +0.044 A 
ATOM     18  C   LIG    1      -37.379  81.433  28.049  0.00  0.00    +0.124 A 
ATOM     19  F   LIG    1      -36.232  82.124  28.058  0.00  0.00    -0.205 F 
ATOM     20  C   LIG    1      -37.767  80.747  29.185  0.00  0.00    +0.039 A 
ATOM     21  C   LIG    1      -38.951  80.016  29.163  0.00  0.00    +0.009 A 
BRANCH  15  22
ATOM     22  C   LIG    1      -41.007  79.111  28.085  0.00  0.00    +0.191 C 
BRANCH  22  23
ATOM     23  O   LIG    1      -40.768  77.779  27.663  0.00  0.00    -0.390 OA
ATOM     24  H   LIG    1      -40.117  77.816  26.941  0.00  0.00    +0.210 HD
ENDBRANCH  22  23
ENDBRANCH  15  22
ENDBRANCH  10  16
ENDBRANCH   1  11
BRANCH   4  25
ATOM     25  C   LIG    1      -36.707  75.640  26.934  0.00  0.00    +0.249 C 
ATOM     26  N   LIG    1      -36.142  76.892  26.832  0.00  0.00    -0.308 N 
ATOM     27  H   LIG    1      -36.528  77.511  26.123  0.00  0.00    +0.149 HD
ATOM     28  O   LIG    1      -36.270  74.766  27.665  0.00  0.00    -0.270 OA
BRANCH  26  29
ATOM     29  C   LIG    1      -34.960  77.273  27.578  0.00  0.00    +0.073 C 
ATOM     30  C   LIG    1      -33.685  76.742  26.909  0.00  0.00    +0.025 C 
ATOM     31  C   LIG    1      -32.433  77.183  27.669  0.00  0.00    +0.033 C 
ATOM     32  C   LIG    1      -32.372  78.697  27.878  0.00  0.00    +0.115 C 
ATOM     33  C   LIG    1      -33.662  79.256  28.476  0.00  0.00    +0.033 C 
ATOM     34  C   LIG    1      -34.912  78.796  27.727  0.00  0.00    +0.025 C 
BRANCH  32  35
ATOM     35  O   LIG    1      -32.086  79.350  26.643  0.00  0.00    -0.392 OA
ATOM     36  H   LIG    1      -32.827  79.933  26.414  0.00  0.00    +0.210 HD
ENDBRANCH  32  35
ENDBRANCH  26  29
ENDBRANCH   4  25
TORSDOF 7
ENDMDL
