MODEL 1
REMARK VINA RESULT:      -7.9      0.000      0.000
REMARK  Name = pdb/CHEMBL3904509.pdb
REMARK                            x       y       z     vdW  Elec       q    Type
REMARK                         _______ _______ _______ _____ _____    ______ ____
ROOT
ATOM      1  C   LIG    1      -27.876  83.636  37.113  0.00  0.00    +0.105 A 
ATOM      2  C   LIG    1      -27.980  82.476  37.838  0.00  0.00    +0.145 A 
ATOM      3  N   LIG    1      -26.968  81.617  38.056  0.00  0.00    -0.201 NA
ATOM      4  C   LIG    1      -25.803  81.894  37.433  0.00  0.00    +0.323 A 
ATOM      5  N   LIG    1      -25.545  83.032  36.772  0.00  0.00    -0.201 NA
ATOM      6  C   LIG    1      -26.593  83.878  36.628  0.00  0.00    +0.145 A 
ENDROOT
BRANCH   1   8
ATOM      7  C   LIG    1      -29.205  84.716  35.429  0.00  0.00    +0.285 C 
ATOM      8  N   LIG    1      -28.964  84.399  36.644  0.00  0.00    -0.196 NA
BRANCH   7   9
ATOM      9  O   LIG    1      -28.539  84.244  34.365  0.00  0.00    -0.481 OA
ATOM     10  H   LIG    1      -28.331  84.942  33.737  0.00  0.00    +0.295 HD
ENDBRANCH   7   9
BRANCH   7  11
ATOM     11  N   LIG    1      -30.192  85.557  34.990  0.00  0.00    -0.269 N 
ATOM     12  H   LIG    1      -31.028  85.603  35.562  0.00  0.00    +0.157 HD
BRANCH  11  13
ATOM     13  C   LIG    1      -30.296  86.174  33.721  0.00  0.00    +0.043 A 
ATOM     14  C   LIG    1      -29.532  87.325  33.387  0.00  0.00    +0.005 A 
ATOM     15  C   LIG    1      -29.726  87.868  32.093  0.00  0.00    +0.011 A 
ATOM     16  C   LIG    1      -30.615  87.308  31.166  0.00  0.00    +0.013 A 
ATOM     17  C   LIG    1      -31.342  86.163  31.490  0.00  0.00    +0.057 A 
ATOM     18  C   LIG    1      -31.170  85.610  32.764  0.00  0.00    +0.036 A 
BRANCH  14  19
ATOM     19  C   LIG    1      -28.531  87.955  34.306  0.00  0.00    +0.002 A 
ATOM     20  C   LIG    1      -27.277  87.392  34.574  0.00  0.00    +0.119 A 
ATOM     21  N   LIG    1      -26.335  87.899  35.413  0.00  0.00    -0.263 NA
ATOM     22  C   LIG    1      -26.615  89.080  35.990  0.00  0.00    +0.111 A 
ATOM     23  C   LIG    1      -27.795  89.763  35.776  0.00  0.00    +0.020 A 
ATOM     24  C   LIG    1      -28.761  89.186  34.945  0.00  0.00    +0.011 A 
ENDBRANCH  14  19
BRANCH  17  25
ATOM     25  C   LIG    1      -32.280  85.531  30.491  0.00  0.00    +0.417 C 
ATOM     26  F   LIG    1      -31.735  85.446  29.247  0.00  0.00    -0.166 F 
ATOM     27  F   LIG    1      -33.437  86.234  30.345  0.00  0.00    -0.166 F 
ATOM     28  F   LIG    1      -32.657  84.264  30.821  0.00  0.00    -0.166 F 
ENDBRANCH  17  25
ENDBRANCH  11  13
ENDBRANCH   7  11
ENDBRANCH   1   8
BRANCH   4  29
ATOM     29  O   LIG    1      -24.822  80.911  37.376  0.00  0.00    -0.424 OA
BRANCH  29  30
ATOM     30  C   LIG    1      -24.674  80.232  36.181  0.00  0.00    +0.132 A 
ATOM     31  C   LIG    1      -25.580  79.205  35.921  0.00  0.00    +0.047 A 
ATOM     32  C   LIG    1      -25.497  78.477  34.726  0.00  0.00    +0.012 A 
ATOM     33  C   LIG    1      -24.504  78.760  33.774  0.00  0.00    -0.013 A 
ATOM     34  C   LIG    1      -23.582  79.771  34.058  0.00  0.00    +0.012 A 
ATOM     35  C   LIG    1      -23.651  80.483  35.259  0.00  0.00    +0.047 A 
BRANCH  33  36
ATOM     36  C   LIG    1      -24.416  77.971  32.552  0.00  0.00    +0.046 A 
ATOM     37  C   LIG    1      -23.257  77.582  31.898  0.00  0.00    +0.165 A 
ATOM     38  N   LIG    1      -21.927  77.810  32.147  0.00  0.00    -0.213 NA
ATOM     39  C   LIG    1      -21.032  77.298  31.331  0.00  0.00    +0.125 A 
ATOM     40  C   LIG    1      -21.432  76.463  30.136  0.00  0.00    +0.063 A 
ATOM     41  C   LIG    1      -22.742  76.280  29.926  0.00  0.00    +0.118 A 
ATOM     42  N   LIG    1      -23.673  76.836  30.792  0.00  0.00    -0.221 N 
ATOM     43  N   LIG    1      -25.021  76.753  30.705  0.00  0.00    -0.173 NA
ATOM     44  C   LIG    1      -25.456  77.437  31.761  0.00  0.00    +0.145 A 
BRANCH  39  45
ATOM     45  N   LIG    1      -19.664  77.484  31.527  0.00  0.00    -0.315 N 
ATOM     46  C   LIG    1      -19.324  78.576  32.415  0.00  0.00    +0.108 C 
ATOM     47  C   LIG    1      -18.337  77.659  33.126  0.00  0.00    +0.038 C 
ATOM     48  C   LIG    1      -18.994  76.516  32.369  0.00  0.00    +0.108 C 
ENDBRANCH  39  45
ENDBRANCH  33  36
ENDBRANCH  29  30
ENDBRANCH   4  29
TORSDOF 10
ENDMDL
MODEL 2
REMARK VINA RESULT:      -7.6     17.902     21.505
REMARK  Name = pdb/CHEMBL3904509.pdb
REMARK                            x       y       z     vdW  Elec       q    Type
REMARK                         _______ _______ _______ _____ _____    ______ ____
ROOT
ATOM      1  C   LIG    1      -38.084  67.763  20.658  0.00  0.00    +0.105 A 
ATOM      2  C   LIG    1      -37.548  68.366  19.549  0.00  0.00    +0.145 A 
ATOM      3  N   LIG    1      -36.710  67.768  18.683  0.00  0.00    -0.201 NA
ATOM      4  C   LIG    1      -36.317  66.516  18.998  0.00  0.00    +0.323 A 
ATOM      5  N   LIG    1      -36.831  65.786  19.999  0.00  0.00    -0.201 NA
ATOM      6  C   LIG    1      -37.706  66.430  20.807  0.00  0.00    +0.145 A 
ENDROOT
BRANCH   1   8
ATOM      7  C   LIG    1      -38.180  69.178  22.596  0.00  0.00    +0.285 C 
ATOM      8  N   LIG    1      -38.732  68.436  21.714  0.00  0.00    -0.196 NA
BRANCH   7   9
ATOM      9  O   LIG    1      -36.898  69.570  22.577  0.00  0.00    -0.481 OA
ATOM     10  H   LIG    1      -36.805  70.496  22.820  0.00  0.00    +0.295 HD
ENDBRANCH   7   9
BRANCH   7  11
ATOM     11  N   LIG    1      -38.791  69.732  23.689  0.00  0.00    -0.269 N 
ATOM     12  H   LIG    1      -39.041  69.091  24.434  0.00  0.00    +0.157 HD
BRANCH  11  13
ATOM     13  C   LIG    1      -39.338  71.031  23.804  0.00  0.00    +0.043 A 
ATOM     14  C   LIG    1      -40.614  71.353  23.266  0.00  0.00    +0.005 A 
ATOM     15  C   LIG    1      -41.058  72.688  23.428  0.00  0.00    +0.011 A 
ATOM     16  C   LIG    1      -40.297  73.660  24.091  0.00  0.00    +0.013 A 
ATOM     17  C   LIG    1      -39.059  73.332  24.639  0.00  0.00    +0.057 A 
ATOM     18  C   LIG    1      -38.597  72.020  24.490  0.00  0.00    +0.036 A 
BRANCH  14  19
ATOM     19  C   LIG    1      -41.505  70.360  22.583  0.00  0.00    +0.002 A 
ATOM     20  C   LIG    1      -41.638  70.281  21.192  0.00  0.00    +0.119 A 
ATOM     21  N   LIG    1      -42.444  69.422  20.513  0.00  0.00    -0.263 NA
ATOM     22  C   LIG    1      -43.129  68.530  21.248  0.00  0.00    +0.111 A 
ATOM     23  C   LIG    1      -43.053  68.470  22.625  0.00  0.00    +0.020 A 
ATOM     24  C   LIG    1      -42.252  69.403  23.291  0.00  0.00    +0.011 A 
ENDBRANCH  14  19
BRANCH  17  25
ATOM     25  C   LIG    1      -38.243  74.360  25.384  0.00  0.00    +0.417 C 
ATOM     26  F   LIG    1      -39.014  75.199  26.127  0.00  0.00    -0.166 F 
ATOM     27  F   LIG    1      -37.521  75.158  24.548  0.00  0.00    -0.166 F 
ATOM     28  F   LIG    1      -37.338  73.819  26.248  0.00  0.00    -0.166 F 
ENDBRANCH  17  25
ENDBRANCH  11  13
ENDBRANCH   7  11
ENDBRANCH   1   8
BRANCH   4  29
ATOM     29  O   LIG    1      -35.242  65.958  18.316  0.00  0.00    -0.424 OA
BRANCH  29  30
ATOM     30  C   LIG    1      -34.026  66.609  18.410  0.00  0.00    +0.132 A 
ATOM     31  C   LIG    1      -33.667  67.434  17.345  0.00  0.00    +0.047 A 
ATOM     32  C   LIG    1      -32.452  68.133  17.373  0.00  0.00    +0.012 A 
ATOM     33  C   LIG    1      -31.573  68.013  18.462  0.00  0.00    -0.013 A 
ATOM     34  C   LIG    1      -31.929  67.160  19.510  0.00  0.00    +0.012 A 
ATOM     35  C   LIG    1      -33.130  66.446  19.473  0.00  0.00    +0.047 A 
BRANCH  33  36
ATOM     36  C   LIG    1      -30.302  68.724  18.457  0.00  0.00    +0.046 A 
ATOM     37  C   LIG    1      -29.046  68.175  18.238  0.00  0.00    +0.165 A 
ATOM     38  N   LIG    1      -28.620  66.894  17.998  0.00  0.00    -0.213 NA
ATOM     39  C   LIG    1      -27.335  66.675  17.824  0.00  0.00    +0.125 A 
ATOM     40  C   LIG    1      -26.324  67.798  17.874  0.00  0.00    +0.063 A 
ATOM     41  C   LIG    1      -26.787  69.029  18.124  0.00  0.00    +0.118 A 
ATOM     42  N   LIG    1      -28.144  69.241  18.315  0.00  0.00    -0.221 N 
ATOM     43  N   LIG    1      -28.758  70.416  18.589  0.00  0.00    -0.173 NA
ATOM     44  C   LIG    1      -30.048  70.095  18.674  0.00  0.00    +0.145 A 
BRANCH  39  45
ATOM     45  N   LIG    1      -26.833  65.399  17.571  0.00  0.00    -0.315 N 
ATOM     46  C   LIG    1      -25.703  65.021  18.393  0.00  0.00    +0.108 C 
ATOM     47  C   LIG    1      -26.368  63.675  18.647  0.00  0.00    +0.038 C 
ATOM     48  C   LIG    1      -27.624  64.286  18.049  0.00  0.00    +0.108 C 
ENDBRANCH  39  45
ENDBRANCH  33  36
ENDBRANCH  29  30
ENDBRANCH   4  29
TORSDOF 10
ENDMDL
MODEL 3
REMARK VINA RESULT:      -7.5     12.354     17.640
REMARK  Name = pdb/CHEMBL3904509.pdb
REMARK                            x       y       z     vdW  Elec       q    Type
REMARK                         _______ _______ _______ _____ _____    ______ ____
ROOT
ATOM      1  C   LIG    1      -36.806  76.784  28.826  0.00  0.00    +0.105 A 
ATOM      2  C   LIG    1      -35.576  77.186  29.282  0.00  0.00    +0.145 A 
ATOM      3  N   LIG    1      -35.322  78.385  29.837  0.00  0.00    -0.201 NA
ATOM      4  C   LIG    1      -36.344  79.267  29.853  0.00  0.00    +0.323 A 
ATOM      5  N   LIG    1      -37.609  78.971  29.521  0.00  0.00    -0.201 NA
ATOM      6  C   LIG    1      -37.809  77.732  29.014  0.00  0.00    +0.145 A 
ENDROOT
BRANCH   1   8
ATOM      7  C   LIG    1      -36.735  75.549  26.767  0.00  0.00    +0.285 C 
ATOM      8  N   LIG    1      -37.038  75.663  28.004  0.00  0.00    -0.196 NA
BRANCH   7   9
ATOM      9  O   LIG    1      -36.002  76.430  26.071  0.00  0.00    -0.481 OA
ATOM     10  H   LIG    1      -35.405  75.991  25.458  0.00  0.00    +0.295 HD
ENDBRANCH   7   9
BRANCH   7  11
ATOM     11  N   LIG    1      -37.070  74.509  25.941  0.00  0.00    -0.269 N 
ATOM     12  H   LIG    1      -36.319  73.872  25.699  0.00  0.00    +0.157 HD
BRANCH  11  13
ATOM     13  C   LIG    1      -38.258  74.354  25.190  0.00  0.00    +0.043 A 
ATOM     14  C   LIG    1      -38.745  73.069  24.824  0.00  0.00    +0.005 A 
ATOM     15  C   LIG    1      -39.938  73.032  24.061  0.00  0.00    +0.011 A 
ATOM     16  C   LIG    1      -40.627  74.192  23.681  0.00  0.00    +0.013 A 
ATOM     17  C   LIG    1      -40.159  75.447  24.067  0.00  0.00    +0.057 A 
ATOM     18  C   LIG    1      -38.981  75.510  24.819  0.00  0.00    +0.036 A 
BRANCH  14  19
ATOM     19  C   LIG    1      -38.090  71.784  25.227  0.00  0.00    +0.002 A 
ATOM     20  C   LIG    1      -37.057  71.188  24.494  0.00  0.00    +0.119 A 
ATOM     21  N   LIG    1      -36.439  70.014  24.792  0.00  0.00    -0.263 NA
ATOM     22  C   LIG    1      -36.818  69.405  25.928  0.00  0.00    +0.111 A 
ATOM     23  C   LIG    1      -37.793  69.909  26.766  0.00  0.00    +0.020 A 
ATOM     24  C   LIG    1      -38.441  71.092  26.400  0.00  0.00    +0.011 A 
ENDBRANCH  14  19
BRANCH  17  25
ATOM     25  C   LIG    1      -40.907  76.702  23.693  0.00  0.00    +0.417 C 
ATOM     26  F   LIG    1      -41.346  77.391  24.782  0.00  0.00    -0.166 F 
ATOM     27  F   LIG    1      -42.015  76.445  22.943  0.00  0.00    -0.166 F 
ATOM     28  F   LIG    1      -40.167  77.585  22.966  0.00  0.00    -0.166 F 
ENDBRANCH  17  25
ENDBRANCH  11  13
ENDBRANCH   7  11
ENDBRANCH   1   8
BRANCH   4  29
ATOM     29  O   LIG    1      -36.075  80.601  30.138  0.00  0.00    -0.424 OA
BRANCH  29  30
ATOM     30  C   LIG    1      -36.359  81.527  29.152  0.00  0.00    +0.132 A 
ATOM     31  C   LIG    1      -35.572  81.487  28.001  0.00  0.00    +0.047 A 
ATOM     32  C   LIG    1      -35.805  82.391  26.955  0.00  0.00    +0.012 A 
ATOM     33  C   LIG    1      -36.825  83.354  27.045  0.00  0.00    -0.013 A 
ATOM     34  C   LIG    1      -37.588  83.405  28.215  0.00  0.00    +0.012 A 
ATOM     35  C   LIG    1      -37.341  82.518  29.267  0.00  0.00    +0.047 A 
BRANCH  33  36
ATOM     36  C   LIG    1      -37.031  84.303  25.960  0.00  0.00    +0.046 A 
ATOM     37  C   LIG    1      -37.826  84.119  24.838  0.00  0.00    +0.165 A 
ATOM     38  N   LIG    1      -38.594  83.069  24.404  0.00  0.00    -0.213 NA
ATOM     39  C   LIG    1      -39.253  83.190  23.273  0.00  0.00    +0.125 A 
ATOM     40  C   LIG    1      -39.191  84.456  22.448  0.00  0.00    +0.063 A 
ATOM     41  C   LIG    1      -38.418  85.448  22.906  0.00  0.00    +0.118 A 
ATOM     42  N   LIG    1      -37.721  85.300  24.096  0.00  0.00    -0.221 N 
ATOM     43  N   LIG    1      -36.893  86.200  24.677  0.00  0.00    -0.173 NA
ATOM     44  C   LIG    1      -36.485  85.594  25.790  0.00  0.00    +0.145 A 
BRANCH  39  45
ATOM     45  N   LIG    1      -40.057  82.165  22.775  0.00  0.00    -0.315 N 
ATOM     46  C   LIG    1      -39.862  80.880  23.412  0.00  0.00    +0.108 C 
ATOM     47  C   LIG    1      -41.373  80.728  23.517  0.00  0.00    +0.038 C 
ATOM     48  C   LIG    1      -41.454  82.201  23.147  0.00  0.00    +0.108 C 
ENDBRANCH  39  45
ENDBRANCH  33  36
ENDBRANCH  29  30
ENDBRANCH   4  29
TORSDOF 10
ENDMDL
MODEL 4
REMARK VINA RESULT:      -7.5     17.120     20.759
REMARK  Name = pdb/CHEMBL3904509.pdb
REMARK                            x       y       z     vdW  Elec       q    Type
REMARK                         _______ _______ _______ _____ _____    ______ ____
ROOT
ATOM      1  C   LIG    1      -37.367  69.098  22.577  0.00  0.00    +0.105 A 
ATOM      2  C   LIG    1      -36.657  68.044  23.093  0.00  0.00    +0.145 A 
ATOM      3  N   LIG    1      -36.113  67.056  22.359  0.00  0.00    -0.201 NA
ATOM      4  C   LIG    1      -36.374  67.081  21.035  0.00  0.00    +0.323 A 
ATOM      5  N   LIG    1      -36.977  68.094  20.397  0.00  0.00    -0.201 NA
ATOM      6  C   LIG    1      -37.460  69.082  21.188  0.00  0.00    +0.145 A 
ENDROOT
BRANCH   1   8
ATOM      7  C   LIG    1      -37.758  70.924  24.087  0.00  0.00    +0.285 C 
ATOM      8  N   LIG    1      -38.169  69.980  23.329  0.00  0.00    -0.196 NA
BRANCH   7   9
ATOM      9  O   LIG    1      -36.485  71.337  24.179  0.00  0.00    -0.481 OA
ATOM     10  H   LIG    1      -36.167  71.700  23.347  0.00  0.00    +0.295 HD
ENDBRANCH   7   9
BRANCH   7  11
ATOM     11  N   LIG    1      -38.531  71.701  24.908  0.00  0.00    -0.269 N 
ATOM     12  H   LIG    1      -38.846  71.265  25.768  0.00  0.00    +0.157 HD
BRANCH  11  13
ATOM     13  C   LIG    1      -39.147  72.936  24.597  0.00  0.00    +0.043 A 
ATOM     14  C   LIG    1      -40.463  72.998  24.064  0.00  0.00    +0.005 A 
ATOM     15  C   LIG    1      -40.976  74.287  23.778  0.00  0.00    +0.011 A 
ATOM     16  C   LIG    1      -40.243  75.459  24.010  0.00  0.00    +0.013 A 
ATOM     17  C   LIG    1      -38.963  75.392  24.558  0.00  0.00    +0.057 A 
ATOM     18  C   LIG    1      -38.433  74.130  24.847  0.00  0.00    +0.036 A 
BRANCH  14  19
ATOM     19  C   LIG    1      -41.325  71.796  23.829  0.00  0.00    +0.002 A 
ATOM     20  C   LIG    1      -42.079  71.185  24.838  0.00  0.00    +0.119 A 
ATOM     21  N   LIG    1      -42.860  70.082  24.696  0.00  0.00    -0.263 NA
ATOM     22  C   LIG    1      -42.959  69.568  23.458  0.00  0.00    +0.111 A 
ATOM     23  C   LIG    1      -42.303  70.100  22.366  0.00  0.00    +0.020 A 
ATOM     24  C   LIG    1      -41.470  71.206  22.561  0.00  0.00    +0.011 A 
ENDBRANCH  14  19
BRANCH  17  25
ATOM     25  C   LIG    1      -38.175  76.646  24.843  0.00  0.00    +0.417 C 
ATOM     26  F   LIG    1      -38.627  77.307  25.944  0.00  0.00    -0.166 F 
ATOM     27  F   LIG    1      -38.233  77.543  23.819  0.00  0.00    -0.166 F 
ATOM     28  F   LIG    1      -36.848  76.422  25.061  0.00  0.00    -0.166 F 
ENDBRANCH  17  25
ENDBRANCH  11  13
ENDBRANCH   7  11
ENDBRANCH   1   8
BRANCH   4  29
ATOM     29  O   LIG    1      -36.096  65.951  20.275  0.00  0.00    -0.424 OA
BRANCH  29  30
ATOM     30  C   LIG    1      -34.892  65.924  19.598  0.00  0.00    +0.132 A 
ATOM     31  C   LIG    1      -33.769  65.523  20.320  0.00  0.00    +0.047 A 
ATOM     32  C   LIG    1      -32.514  65.464  19.699  0.00  0.00    +0.012 A 
ATOM     33  C   LIG    1      -32.359  65.810  18.346  0.00  0.00    -0.013 A 
ATOM     34  C   LIG    1      -33.486  66.239  17.639  0.00  0.00    +0.012 A 
ATOM     35  C   LIG    1      -34.734  66.319  18.264  0.00  0.00    +0.047 A 
BRANCH  33  36
ATOM     36  C   LIG    1      -31.041  65.771  17.727  0.00  0.00    +0.046 A 
ATOM     37  C   LIG    1      -30.278  66.860  17.332  0.00  0.00    +0.165 A 
ATOM     38  N   LIG    1      -30.501  68.214  17.367  0.00  0.00    -0.213 NA
ATOM     39  C   LIG    1      -29.569  69.021  16.911  0.00  0.00    +0.125 A 
ATOM     40  C   LIG    1      -28.263  68.496  16.359  0.00  0.00    +0.063 A 
ATOM     41  C   LIG    1      -28.098  67.168  16.334  0.00  0.00    +0.118 A 
ATOM     42  N   LIG    1      -29.095  66.330  16.809  0.00  0.00    -0.221 N 
ATOM     43  N   LIG    1      -29.083  64.976  16.836  0.00  0.00    -0.173 NA
ATOM     44  C   LIG    1      -30.252  64.652  17.385  0.00  0.00    +0.145 A 
BRANCH  39  45
ATOM     45  N   LIG    1      -29.725  70.406  16.921  0.00  0.00    -0.315 N 
ATOM     46  C   LIG    1      -30.283  70.943  18.145  0.00  0.00    +0.108 C 
ATOM     47  C   LIG    1      -29.203  72.016  18.139  0.00  0.00    +0.038 C 
ATOM     48  C   LIG    1      -28.518  71.192  17.061  0.00  0.00    +0.108 C 
ENDBRANCH  39  45
ENDBRANCH  33  36
ENDBRANCH  29  30
ENDBRANCH   4  29
TORSDOF 10
ENDMDL
MODEL 5
REMARK VINA RESULT:      -7.4     19.215     22.771
REMARK  Name = pdb/CHEMBL3904509.pdb
REMARK                            x       y       z     vdW  Elec       q    Type
REMARK                         _______ _______ _______ _____ _____    ______ ____
ROOT
ATOM      1  C   LIG    1      -26.301  78.260  13.446  0.00  0.00    +0.105 A 
ATOM      2  C   LIG    1      -25.406  77.322  13.894  0.00  0.00    +0.145 A 
ATOM      3  N   LIG    1      -24.510  77.527  14.877  0.00  0.00    -0.201 NA
ATOM      4  C   LIG    1      -24.449  78.779  15.379  0.00  0.00    +0.323 A 
ATOM      5  N   LIG    1      -25.320  79.757  15.092  0.00  0.00    -0.201 NA
ATOM      6  C   LIG    1      -26.228  79.472  14.129  0.00  0.00    +0.145 A 
ENDROOT
BRANCH   1   8
ATOM      7  C   LIG    1      -28.247  77.736  12.139  0.00  0.00    +0.285 C 
ATOM      8  N   LIG    1      -27.048  78.164  12.254  0.00  0.00    -0.196 NA
BRANCH   7   9
ATOM      9  O   LIG    1      -29.060  77.444  13.165  0.00  0.00    -0.481 OA
ATOM     10  H   LIG    1      -28.867  77.983  13.938  0.00  0.00    +0.295 HD
ENDBRANCH   7   9
BRANCH   7  11
ATOM     11  N   LIG    1      -28.927  77.530  10.969  0.00  0.00    -0.269 N 
ATOM     12  H   LIG    1      -28.360  77.415  10.137  0.00  0.00    +0.157 HD
BRANCH  11  13
ATOM     13  C   LIG    1      -30.311  77.705  10.735  0.00  0.00    +0.043 A 
ATOM     14  C   LIG    1      -31.189  76.595  10.597  0.00  0.00    +0.005 A 
ATOM     15  C   LIG    1      -32.554  76.886  10.353  0.00  0.00    +0.011 A 
ATOM     16  C   LIG    1      -33.039  78.197  10.257  0.00  0.00    +0.013 A 
ATOM     17  C   LIG    1      -32.178  79.281  10.419  0.00  0.00    +0.057 A 
ATOM     18  C   LIG    1      -30.825  79.019  10.660  0.00  0.00    +0.036 A 
BRANCH  14  19
ATOM     19  C   LIG    1      -30.755  75.168  10.730  0.00  0.00    +0.002 A 
ATOM     20  C   LIG    1      -30.977  74.404  11.882  0.00  0.00    +0.119 A 
ATOM     21  N   LIG    1      -30.588  73.116  12.075  0.00  0.00    -0.263 NA
ATOM     22  C   LIG    1      -29.988  72.506  11.039  0.00  0.00    +0.111 A 
ATOM     23  C   LIG    1      -29.750  73.130   9.831  0.00  0.00    +0.020 A 
ATOM     24  C   LIG    1      -30.119  74.471   9.688  0.00  0.00    +0.011 A 
ENDBRANCH  14  19
BRANCH  17  25
ATOM     25  C   LIG    1      -32.692  80.698  10.350  0.00  0.00    +0.417 C 
ATOM     26  F   LIG    1      -33.791  80.892  11.129  0.00  0.00    -0.166 F 
ATOM     27  F   LIG    1      -33.060  81.058   9.088  0.00  0.00    -0.166 F 
ATOM     28  F   LIG    1      -31.782  81.630  10.749  0.00  0.00    -0.166 F 
ENDBRANCH  17  25
ENDBRANCH  11  13
ENDBRANCH   7  11
ENDBRANCH   1   8
BRANCH   4  29
ATOM     29  O   LIG    1      -23.365  79.131  16.175  0.00  0.00    -0.424 OA
BRANCH  29  30
ATOM     30  C   LIG    1      -22.413  79.963  15.616  0.00  0.00    +0.132 A 
ATOM     31  C   LIG    1      -21.931  80.998  16.415  0.00  0.00    +0.047 A 
ATOM     32  C   LIG    1      -20.959  81.878  15.919  0.00  0.00    +0.012 A 
ATOM     33  C   LIG    1      -20.458  81.741  14.613  0.00  0.00    -0.013 A 
ATOM     34  C   LIG    1      -20.970  80.718  13.810  0.00  0.00    +0.012 A 
ATOM     35  C   LIG    1      -21.955  79.854  14.298  0.00  0.00    +0.047 A 
BRANCH  33  36
ATOM     36  C   LIG    1      -19.470  82.684  14.106  0.00  0.00    +0.046 A 
ATOM     37  C   LIG    1      -19.679  84.022  13.805  0.00  0.00    +0.165 A 
ATOM     38  N   LIG    1      -20.791  84.824  13.857  0.00  0.00    -0.213 NA
ATOM     39  C   LIG    1      -20.680  86.085  13.502  0.00  0.00    +0.125 A 
ATOM     40  C   LIG    1      -19.361  86.670  13.048  0.00  0.00    +0.063 A 
ATOM     41  C   LIG    1      -18.308  85.845  13.003  0.00  0.00    +0.118 A 
ATOM     42  N   LIG    1      -18.445  84.514  13.371  0.00  0.00    -0.221 N 
ATOM     43  N   LIG    1      -17.484  83.560  13.363  0.00  0.00    -0.173 NA
ATOM     44  C   LIG    1      -18.108  82.469  13.803  0.00  0.00    +0.145 A 
BRANCH  39  45
ATOM     45  N   LIG    1      -21.766  86.958  13.535  0.00  0.00    -0.315 N 
ATOM     46  C   LIG    1      -22.506  86.956  14.780  0.00  0.00    +0.108 C 
ATOM     47  C   LIG    1      -22.496  88.479  14.761  0.00  0.00    +0.038 C 
ATOM     48  C   LIG    1      -21.460  88.367  13.654  0.00  0.00    +0.108 C 
ENDBRANCH  39  45
ENDBRANCH  33  36
ENDBRANCH  29  30
ENDBRANCH   4  29
TORSDOF 10
ENDMDL
MODEL 6
REMARK VINA RESULT:      -7.4     19.391     22.847
REMARK  Name = pdb/CHEMBL3904509.pdb
REMARK                            x       y       z     vdW  Elec       q    Type
REMARK                         _______ _______ _______ _____ _____    ______ ____
ROOT
ATOM      1  C   LIG    1      -26.409  78.349  13.331  0.00  0.00    +0.105 A 
ATOM      2  C   LIG    1      -25.631  77.391  13.928  0.00  0.00    +0.145 A 
ATOM      3  N   LIG    1      -24.777  77.622  14.943  0.00  0.00    -0.201 NA
ATOM      4  C   LIG    1      -24.631  78.910  15.320  0.00  0.00    +0.323 A 
ATOM      5  N   LIG    1      -25.391  79.923  14.880  0.00  0.00    -0.201 NA
ATOM      6  C   LIG    1      -26.266  79.616  13.893  0.00  0.00    +0.145 A 
ENDROOT
BRANCH   1   8
ATOM      7  C   LIG    1      -28.348  78.003  11.956  0.00  0.00    +0.285 C 
ATOM      8  N   LIG    1      -27.093  78.192  12.108  0.00  0.00    -0.196 NA
BRANCH   7   9
ATOM      9  O   LIG    1      -29.260  78.072  12.937  0.00  0.00    -0.481 OA
ATOM     10  H   LIG    1      -29.083  78.802  13.537  0.00  0.00    +0.295 HD
ENDBRANCH   7   9
BRANCH   7  11
ATOM     11  N   LIG    1      -28.991  77.730  10.779  0.00  0.00    -0.269 N 
ATOM     12  H   LIG    1      -28.675  78.248   9.966  0.00  0.00    +0.157 HD
BRANCH  11  13
ATOM     13  C   LIG    1      -30.195  77.009  10.602  0.00  0.00    +0.043 A 
ATOM     14  C   LIG    1      -31.405  77.657  10.233  0.00  0.00    +0.005 A 
ATOM     15  C   LIG    1      -32.553  76.839  10.097  0.00  0.00    +0.011 A 
ATOM     16  C   LIG    1      -32.519  75.453  10.301  0.00  0.00    +0.013 A 
ATOM     17  C   LIG    1      -31.324  74.819  10.636  0.00  0.00    +0.057 A 
ATOM     18  C   LIG    1      -30.176  75.607  10.780  0.00  0.00    +0.036 A 
BRANCH  14  19
ATOM     19  C   LIG    1      -31.512  79.125   9.955  0.00  0.00    +0.002 A 
ATOM     20  C   LIG    1      -31.304  79.682   8.688  0.00  0.00    +0.119 A 
ATOM     21  N   LIG    1      -31.362  81.003   8.375  0.00  0.00    -0.263 NA
ATOM     22  C   LIG    1      -31.710  81.842   9.365  0.00  0.00    +0.111 A 
ATOM     23  C   LIG    1      -31.986  81.420  10.650  0.00  0.00    +0.020 A 
ATOM     24  C   LIG    1      -31.867  80.058  10.945  0.00  0.00    +0.011 A 
ENDBRANCH  14  19
BRANCH  17  25
ATOM     25  C   LIG    1      -31.266  73.324  10.828  0.00  0.00    +0.417 C 
ATOM     26  F   LIG    1      -30.513  72.705   9.878  0.00  0.00    -0.166 F 
ATOM     27  F   LIG    1      -32.496  72.742  10.767  0.00  0.00    -0.166 F 
ATOM     28  F   LIG    1      -30.738  72.946  12.027  0.00  0.00    -0.166 F 
ENDBRANCH  17  25
ENDBRANCH  11  13
ENDBRANCH   7  11
ENDBRANCH   1   8
BRANCH   4  29
ATOM     29  O   LIG    1      -23.567  79.250  16.147  0.00  0.00    -0.424 OA
BRANCH  29  30
ATOM     30  C   LIG    1      -22.571  80.041  15.604  0.00  0.00    +0.132 A 
ATOM     31  C   LIG    1      -22.057  81.055  16.411  0.00  0.00    +0.047 A 
ATOM     32  C   LIG    1      -21.041  81.892  15.931  0.00  0.00    +0.012 A 
ATOM     33  C   LIG    1      -20.525  81.733  14.634  0.00  0.00    -0.013 A 
ATOM     34  C   LIG    1      -21.068  80.733  13.822  0.00  0.00    +0.012 A 
ATOM     35  C   LIG    1      -22.097  79.912  14.293  0.00  0.00    +0.047 A 
BRANCH  33  36
ATOM     36  C   LIG    1      -19.490  82.633  14.143  0.00  0.00    +0.046 A 
ATOM     37  C   LIG    1      -19.643  83.972  13.816  0.00  0.00    +0.165 A 
ATOM     38  N   LIG    1      -20.726  84.814  13.822  0.00  0.00    -0.213 NA
ATOM     39  C   LIG    1      -20.560  86.064  13.452  0.00  0.00    +0.125 A 
ATOM     40  C   LIG    1      -19.209  86.595  13.030  0.00  0.00    +0.063 A 
ATOM     41  C   LIG    1      -18.185  85.733  13.028  0.00  0.00    +0.118 A 
ATOM     42  N   LIG    1      -18.380  84.415  13.412  0.00  0.00    -0.221 N 
ATOM     43  N   LIG    1      -17.453  83.428  13.448  0.00  0.00    -0.173 NA
ATOM     44  C   LIG    1      -18.128  82.366  13.885  0.00  0.00    +0.145 A 
BRANCH  39  45
ATOM     45  N   LIG    1      -21.616  86.975  13.439  0.00  0.00    -0.315 N 
ATOM     46  C   LIG    1      -22.531  86.856  14.554  0.00  0.00    +0.108 C 
ATOM     47  C   LIG    1      -22.477  88.368  14.729  0.00  0.00    +0.038 C 
ATOM     48  C   LIG    1      -21.292  88.344  13.778  0.00  0.00    +0.108 C 
ENDBRANCH  39  45
ENDBRANCH  33  36
ENDBRANCH  29  30
ENDBRANCH   4  29
TORSDOF 10
ENDMDL
MODEL 7
REMARK VINA RESULT:      -7.3     17.493     20.624
REMARK  Name = pdb/CHEMBL3904509.pdb
REMARK                            x       y       z     vdW  Elec       q    Type
REMARK                         _______ _______ _______ _____ _____    ______ ____
ROOT
ATOM      1  C   LIG    1      -38.765  69.904  23.399  0.00  0.00    +0.105 A 
ATOM      2  C   LIG    1      -37.401  69.902  23.252  0.00  0.00    +0.145 A 
ATOM      3  N   LIG    1      -36.678  68.846  22.838  0.00  0.00    -0.201 NA
ATOM      4  C   LIG    1      -37.356  67.695  22.646  0.00  0.00    +0.323 A 
ATOM      5  N   LIG    1      -38.692  67.585  22.671  0.00  0.00    -0.201 NA
ATOM      6  C   LIG    1      -39.366  68.698  23.048  0.00  0.00    +0.145 A 
ENDROOT
BRANCH   1   8
ATOM      7  C   LIG    1      -40.525  71.520  23.639  0.00  0.00    +0.285 C 
ATOM      8  N   LIG    1      -39.505  70.890  24.082  0.00  0.00    -0.196 NA
BRANCH   7   9
ATOM      9  O   LIG    1      -41.163  71.240  22.493  0.00  0.00    -0.481 OA
ATOM     10  H   LIG    1      -41.993  70.779  22.651  0.00  0.00    +0.295 HD
ENDBRANCH   7   9
BRANCH   7  11
ATOM     11  N   LIG    1      -41.168  72.560  24.255  0.00  0.00    -0.269 N 
ATOM     12  H   LIG    1      -41.975  72.317  24.818  0.00  0.00    +0.157 HD
BRANCH  11  13
ATOM     13  C   LIG    1      -41.002  73.943  24.007  0.00  0.00    +0.043 A 
ATOM     14  C   LIG    1      -42.036  74.725  23.424  0.00  0.00    +0.005 A 
ATOM     15  C   LIG    1      -41.756  76.097  23.209  0.00  0.00    +0.011 A 
ATOM     16  C   LIG    1      -40.529  76.679  23.555  0.00  0.00    +0.013 A 
ATOM     17  C   LIG    1      -39.529  75.913  24.151  0.00  0.00    +0.057 A 
ATOM     18  C   LIG    1      -39.781  74.555  24.371  0.00  0.00    +0.036 A 
BRANCH  14  19
ATOM     19  C   LIG    1      -43.387  74.186  23.067  0.00  0.00    +0.002 A 
ATOM     20  C   LIG    1      -43.692  73.653  21.809  0.00  0.00    +0.119 A 
ATOM     21  N   LIG    1      -44.900  73.172  21.416  0.00  0.00    -0.263 NA
ATOM     22  C   LIG    1      -45.873  73.154  22.342  0.00  0.00    +0.111 A 
ATOM     23  C   LIG    1      -45.693  73.607  23.634  0.00  0.00    +0.020 A 
ATOM     24  C   LIG    1      -44.450  74.142  23.987  0.00  0.00    +0.011 A 
ENDBRANCH  14  19
BRANCH  17  25
ATOM     25  C   LIG    1      -38.215  76.533  24.558  0.00  0.00    +0.417 C 
ATOM     26  F   LIG    1      -37.617  77.205  23.536  0.00  0.00    -0.166 F 
ATOM     27  F   LIG    1      -37.308  75.606  24.976  0.00  0.00    -0.166 F 
ATOM     28  F   LIG    1      -38.325  77.428  25.580  0.00  0.00    -0.166 F 
ENDBRANCH  17  25
ENDBRANCH  11  13
ENDBRANCH   7  11
ENDBRANCH   1   8
BRANCH   4  29
ATOM     29  O   LIG    1      -36.642  66.510  22.507  0.00  0.00    -0.424 OA
BRANCH  29  30
ATOM     30  C   LIG    1      -35.668  66.469  21.527  0.00  0.00    +0.132 A 
ATOM     31  C   LIG    1      -36.103  66.489  20.202  0.00  0.00    +0.047 A 
ATOM     32  C   LIG    1      -35.174  66.458  19.153  0.00  0.00    +0.012 A 
ATOM     33  C   LIG    1      -33.794  66.400  19.412  0.00  0.00    -0.013 A 
ATOM     34  C   LIG    1      -33.370  66.350  20.742  0.00  0.00    +0.012 A 
ATOM     35  C   LIG    1      -34.298  66.359  21.788  0.00  0.00    +0.047 A 
BRANCH  33  36
ATOM     36  C   LIG    1      -32.845  66.337  18.308  0.00  0.00    +0.046 A 
ATOM     37  C   LIG    1      -31.855  67.263  18.013  0.00  0.00    +0.165 A 
ATOM     38  N   LIG    1      -31.488  68.450  18.595  0.00  0.00    -0.213 NA
ATOM     39  C   LIG    1      -30.484  69.125  18.080  0.00  0.00    +0.125 A 
ATOM     40  C   LIG    1      -29.723  68.621  16.874  0.00  0.00    +0.063 A 
ATOM     41  C   LIG    1      -30.127  67.465  16.334  0.00  0.00    +0.118 A 
ATOM     42  N   LIG    1      -31.195  66.771  16.883  0.00  0.00    -0.221 N 
ATOM     43  N   LIG    1      -31.726  65.606  16.444  0.00  0.00    -0.173 NA
ATOM     44  C   LIG    1      -32.713  65.356  17.302  0.00  0.00    +0.145 A 
BRANCH  39  45
ATOM     45  N   LIG    1      -30.054  70.335  18.623  0.00  0.00    -0.315 N 
ATOM     46  C   LIG    1      -28.620  70.531  18.602  0.00  0.00    +0.108 C 
ATOM     47  C   LIG    1      -28.844  71.940  18.069  0.00  0.00    +0.038 C 
ATOM     48  C   LIG    1      -30.284  71.520  17.825  0.00  0.00    +0.108 C 
ENDBRANCH  39  45
ENDBRANCH  33  36
ENDBRANCH  29  30
ENDBRANCH   4  29
TORSDOF 10
ENDMDL
MODEL 8
REMARK VINA RESULT:      -7.3     14.769     18.415
REMARK  Name = pdb/CHEMBL3904509.pdb
REMARK                            x       y       z     vdW  Elec       q    Type
REMARK                         _______ _______ _______ _____ _____    ______ ____
ROOT
ATOM      1  C   LIG    1      -35.235  70.493  26.589  0.00  0.00    +0.105 A 
ATOM      2  C   LIG    1      -34.275  69.998  25.744  0.00  0.00    +0.145 A 
ATOM      3  N   LIG    1      -34.465  68.981  24.883  0.00  0.00    -0.201 NA
ATOM      4  C   LIG    1      -35.665  68.366  24.939  0.00  0.00    +0.323 A 
ATOM      5  N   LIG    1      -36.712  68.804  25.653  0.00  0.00    -0.201 NA
ATOM      6  C   LIG    1      -36.470  69.861  26.464  0.00  0.00    +0.145 A 
ENDROOT
BRANCH   1   8
ATOM      7  C   LIG    1      -35.315  72.590  27.757  0.00  0.00    +0.285 C 
ATOM      8  N   LIG    1      -34.990  71.357  27.676  0.00  0.00    -0.196 NA
BRANCH   7   9
ATOM      9  O   LIG    1      -36.085  73.242  26.873  0.00  0.00    -0.481 OA
ATOM     10  H   LIG    1      -35.569  73.844  26.327  0.00  0.00    +0.295 HD
ENDBRANCH   7   9
BRANCH   7  11
ATOM     11  N   LIG    1      -34.971  73.457  28.759  0.00  0.00    -0.269 N 
ATOM     12  H   LIG    1      -35.705  73.693  29.417  0.00  0.00    +0.157 HD
BRANCH  11  13
ATOM     13  C   LIG    1      -33.803  74.251  28.849  0.00  0.00    +0.043 A 
ATOM     14  C   LIG    1      -32.673  73.832  29.603  0.00  0.00    +0.005 A 
ATOM     15  C   LIG    1      -31.563  74.712  29.634  0.00  0.00    +0.011 A 
ATOM     16  C   LIG    1      -31.554  75.937  28.954  0.00  0.00    +0.013 A 
ATOM     17  C   LIG    1      -32.655  76.330  28.195  0.00  0.00    +0.057 A 
ATOM     18  C   LIG    1      -33.764  75.479  28.150  0.00  0.00    +0.036 A 
BRANCH  14  19
ATOM     19  C   LIG    1      -32.590  72.519  30.320  0.00  0.00    +0.002 A 
ATOM     20  C   LIG    1      -31.994  71.380  29.766  0.00  0.00    +0.119 A 
ATOM     21  N   LIG    1      -31.908  70.157  30.353  0.00  0.00    -0.263 NA
ATOM     22  C   LIG    1      -32.388  70.053  31.603  0.00  0.00    +0.111 A 
ATOM     23  C   LIG    1      -32.960  71.110  32.282  0.00  0.00    +0.020 A 
ATOM     24  C   LIG    1      -33.076  72.340  31.627  0.00  0.00    +0.011 A 
ENDBRANCH  14  19
BRANCH  17  25
ATOM     25  C   LIG    1      -32.647  77.632  27.431  0.00  0.00    +0.417 C 
ATOM     26  F   LIG    1      -31.880  78.583  28.032  0.00  0.00    -0.166 F 
ATOM     27  F   LIG    1      -33.891  78.174  27.313  0.00  0.00    -0.166 F 
ATOM     28  F   LIG    1      -32.172  77.517  26.159  0.00  0.00    -0.166 F 
ENDBRANCH  17  25
ENDBRANCH  11  13
ENDBRANCH   7  11
ENDBRANCH   1   8
BRANCH   4  29
ATOM     29  O   LIG    1      -35.823  67.143  24.298  0.00  0.00    -0.424 OA
BRANCH  29  30
ATOM     30  C   LIG    1      -35.918  67.158  22.919  0.00  0.00    +0.132 A 
ATOM     31  C   LIG    1      -35.053  66.321  22.216  0.00  0.00    +0.047 A 
ATOM     32  C   LIG    1      -35.096  66.277  20.816  0.00  0.00    +0.012 A 
ATOM     33  C   LIG    1      -36.001  67.075  20.095  0.00  0.00    -0.013 A 
ATOM     34  C   LIG    1      -36.843  67.932  20.807  0.00  0.00    +0.012 A 
ATOM     35  C   LIG    1      -36.785  67.992  22.203  0.00  0.00    +0.047 A 
BRANCH  33  36
ATOM     36  C   LIG    1      -36.009  67.037  18.638  0.00  0.00    +0.046 A 
ATOM     37  C   LIG    1      -34.919  67.216  17.799  0.00  0.00    +0.165 A 
ATOM     38  N   LIG    1      -33.596  67.488  18.037  0.00  0.00    -0.213 NA
ATOM     39  C   LIG    1      -32.778  67.604  17.014  0.00  0.00    +0.125 A 
ATOM     40  C   LIG    1      -33.259  67.438  15.590  0.00  0.00    +0.063 A 
ATOM     41  C   LIG    1      -34.561  67.187  15.407  0.00  0.00    +0.118 A 
ATOM     42  N   LIG    1      -35.412  67.077  16.498  0.00  0.00    -0.221 N 
ATOM     43  N   LIG    1      -36.745  66.843  16.474  0.00  0.00    -0.173 NA
ATOM     44  C   LIG    1      -37.092  66.823  17.759  0.00  0.00    +0.145 A 
BRANCH  39  45
ATOM     45  N   LIG    1      -31.421  67.874  17.182  0.00  0.00    -0.315 N 
ATOM     46  C   LIG    1      -30.899  68.912  16.319  0.00  0.00    +0.108 C 
ATOM     47  C   LIG    1      -30.200  69.529  17.523  0.00  0.00    +0.038 C 
ATOM     48  C   LIG    1      -31.050  68.601  18.376  0.00  0.00    +0.108 C 
ENDBRANCH  39  45
ENDBRANCH  33  36
ENDBRANCH  29  30
ENDBRANCH   4  29
TORSDOF 10
ENDMDL
MODEL 9
REMARK VINA RESULT:      -7.3      1.866      3.376
REMARK  Name = pdb/CHEMBL3904509.pdb
REMARK                            x       y       z     vdW  Elec       q    Type
REMARK                         _______ _______ _______ _____ _____    ______ ____
ROOT
ATOM      1  C   LIG    1      -28.946  84.591  35.507  0.00  0.00    +0.105 A 
ATOM      2  C   LIG    1      -27.662  85.064  35.426  0.00  0.00    +0.145 A 
ATOM      3  N   LIG    1      -26.595  84.484  36.006  0.00  0.00    -0.201 NA
ATOM      4  C   LIG    1      -26.847  83.414  36.788  0.00  0.00    +0.323 A 
ATOM      5  N   LIG    1      -28.037  82.803  36.881  0.00  0.00    -0.201 NA
ATOM      6  C   LIG    1      -29.062  83.409  36.235  0.00  0.00    +0.145 A 
ENDROOT
BRANCH   1   8
ATOM      7  C   LIG    1      -30.767  85.200  34.064  0.00  0.00    +0.285 C 
ATOM      8  N   LIG    1      -30.102  85.316  35.149  0.00  0.00    -0.196 NA
BRANCH   7   9
ATOM      9  O   LIG    1      -30.566  84.253  33.136  0.00  0.00    -0.481 OA
ATOM     10  H   LIG    1      -29.906  84.522  32.490  0.00  0.00    +0.295 HD
ENDBRANCH   7   9
BRANCH   7  11
ATOM     11  N   LIG    1      -31.815  85.987  33.666  0.00  0.00    -0.269 N 
ATOM     12  H   LIG    1      -32.710  85.792  34.100  0.00  0.00    +0.157 HD
BRANCH  11  13
ATOM     13  C   LIG    1      -31.861  86.862  32.555  0.00  0.00    +0.043 A 
ATOM     14  C   LIG    1      -31.159  88.098  32.550  0.00  0.00    +0.005 A 
ATOM     15  C   LIG    1      -31.287  88.901  31.391  0.00  0.00    +0.011 A 
ATOM     16  C   LIG    1      -32.056  88.512  30.286  0.00  0.00    +0.013 A 
ATOM     17  C   LIG    1      -32.721  87.287  30.286  0.00  0.00    +0.057 A 
ATOM     18  C   LIG    1      -32.612  86.477  31.421  0.00  0.00    +0.036 A 
BRANCH  14  19
ATOM     19  C   LIG    1      -30.283  88.562  33.673  0.00  0.00    +0.002 A 
ATOM     20  C   LIG    1      -30.774  89.226  34.804  0.00  0.00    +0.119 A 
ATOM     21  N   LIG    1      -30.032  89.693  35.842  0.00  0.00    -0.263 NA
ATOM     22  C   LIG    1      -28.713  89.439  35.803  0.00  0.00    +0.111 A 
ATOM     23  C   LIG    1      -28.107  88.754  34.769  0.00  0.00    +0.020 A 
ATOM     24  C   LIG    1      -28.896  88.333  33.694  0.00  0.00    +0.011 A 
ENDBRANCH  14  19
BRANCH  17  25
ATOM     25  C   LIG    1      -33.527  86.841  29.091  0.00  0.00    +0.417 C 
ATOM     26  F   LIG    1      -32.983  85.759  28.471  0.00  0.00    -0.166 F 
ATOM     27  F   LIG    1      -33.624  87.809  28.137  0.00  0.00    -0.166 F 
ATOM     28  F   LIG    1      -34.809  86.493  29.394  0.00  0.00    -0.166 F 
ENDBRANCH  17  25
ENDBRANCH  11  13
ENDBRANCH   7  11
ENDBRANCH   1   8
BRANCH   4  29
ATOM     29  O   LIG    1      -25.849  82.953  37.638  0.00  0.00    -0.424 OA
BRANCH  29  30
ATOM     30  C   LIG    1      -24.773  82.308  37.059  0.00  0.00    +0.132 A 
ATOM     31  C   LIG    1      -24.958  80.977  36.688  0.00  0.00    +0.047 A 
ATOM     32  C   LIG    1      -23.914  80.259  36.088  0.00  0.00    +0.012 A 
ATOM     33  C   LIG    1      -22.665  80.859  35.854  0.00  0.00    -0.013 A 
ATOM     34  C   LIG    1      -22.480  82.184  36.257  0.00  0.00    +0.012 A 
ATOM     35  C   LIG    1      -23.515  82.893  36.875  0.00  0.00    +0.047 A 
BRANCH  33  36
ATOM     36  C   LIG    1      -21.584  80.087  35.257  0.00  0.00    +0.046 A 
ATOM     37  C   LIG    1      -21.702  79.125  34.264  0.00  0.00    +0.165 A 
ATOM     38  N   LIG    1      -22.782  78.611  33.591  0.00  0.00    -0.213 NA
ATOM     39  C   LIG    1      -22.579  77.687  32.678  0.00  0.00    +0.125 A 
ATOM     40  C   LIG    1      -21.190  77.187  32.350  0.00  0.00    +0.063 A 
ATOM     41  C   LIG    1      -20.170  77.709  33.041  0.00  0.00    +0.118 A 
ATOM     42  N   LIG    1      -20.404  78.676  34.008  0.00  0.00    -0.221 N 
ATOM     43  N   LIG    1      -19.485  79.284  34.796  0.00  0.00    -0.173 NA
ATOM     44  C   LIG    1      -20.202  80.124  35.540  0.00  0.00    +0.145 A 
BRANCH  39  45
ATOM     45  N   LIG    1      -23.628  77.124  31.953  0.00  0.00    -0.315 N 
ATOM     46  C   LIG    1      -24.706  78.038  31.641  0.00  0.00    +0.108 C 
ATOM     47  C   LIG    1      -24.695  77.525  30.207  0.00  0.00    +0.038 C 
ATOM     48  C   LIG    1      -23.375  76.855  30.554  0.00  0.00    +0.108 C 
ENDBRANCH  39  45
ENDBRANCH  33  36
ENDBRANCH  29  30
ENDBRANCH   4  29
TORSDOF 10
ENDMDL
