MODEL 1
REMARK VINA RESULT:      -6.5      0.000      0.000
REMARK  Name = pdb/CHEMBL1967116.pdb
REMARK                            x       y       z     vdW  Elec       q    Type
REMARK                         _______ _______ _______ _____ _____    ______ ____
ROOT
ATOM      1  C   LIG    1      -36.780  76.183  26.349  0.00  0.00    +0.035 A 
ATOM      2  C   LIG    1      -36.995  75.027  27.104  0.00  0.00    +0.024 A 
ATOM      3  C   LIG    1      -37.742  73.958  26.580  0.00  0.00    +0.010 A 
ATOM      4  C   LIG    1      -38.337  74.049  25.319  0.00  0.00    -0.017 A 
ATOM      5  C   LIG    1      -38.166  75.245  24.606  0.00  0.00    +0.010 A 
ATOM      6  C   LIG    1      -37.395  76.289  25.108  0.00  0.00    +0.024 A 
ENDROOT
BRANCH   4   7
ATOM      7  C   LIG    1      -39.041  72.926  24.679  0.00  0.00    +0.000 A 
ATOM      8  C   LIG    1      -38.564  71.625  24.186  0.00  0.00    +0.037 A 
ATOM      9  C   LIG    1      -37.284  70.998  24.206  0.00  0.00    +0.125 A 
ATOM     10  N   LIG    1      -37.077  69.824  23.582  0.00  0.00    -0.239 NA
ATOM     11  C   LIG    1      -38.105  69.186  23.000  0.00  0.00    +0.122 A 
ATOM     12  C   LIG    1      -39.410  69.639  22.984  0.00  0.00    +0.018 A 
ATOM     13  C   LIG    1      -39.617  70.904  23.577  0.00  0.00    +0.032 A 
ATOM     14  S   LIG    1      -41.102  71.778  23.655  0.00  0.00    -0.095 S 
ATOM     15  C   LIG    1      -40.388  73.095  24.411  0.00  0.00    +0.055 A 
BRANCH  12  16
ATOM     16  C   LIG    1      -40.478  68.869  22.372  0.00  0.00    +0.022 A 
ATOM     17  C   LIG    1      -41.160  67.848  23.006  0.00  0.00    +0.116 A 
ATOM     18  N   LIG    1      -42.059  67.364  22.102  0.00  0.00    -0.274 N 
ATOM     19  C   LIG    1      -42.943  66.241  22.292  0.00  0.00    +0.172 C 
ATOM     20  N   LIG    1      -42.051  68.021  20.933  0.00  0.00    -0.179 NA
ATOM     21  C   LIG    1      -41.097  68.940  21.100  0.00  0.00    +0.143 A 
ENDBRANCH  12  16
BRANCH   9  22
ATOM     22  N   LIG    1      -36.147  71.457  24.868  0.00  0.00    -0.343 N 
ATOM     23  H   LIG    1      -36.089  72.469  24.808  0.00  0.00    +0.144 HD
ATOM     24  H   LIG    1      -36.240  71.140  25.831  0.00  0.00    +0.144 HD
ENDBRANCH   9  22
ENDBRANCH   4   7
BRANCH   1  28
ATOM     25  N   LIG    1      -35.185  79.064  27.911  0.00  0.00    -0.269 N 
ATOM     26  H   LIG    1      -34.294  78.591  27.872  0.00  0.00    +0.156 HD
ATOM     27  C   LIG    1      -36.286  78.321  27.539  0.00  0.00    +0.308 C 
ATOM     28  N   LIG    1      -35.913  77.175  26.855  0.00  0.00    -0.269 N 
ATOM     29  H   LIG    1      -34.950  77.108  26.562  0.00  0.00    +0.156 HD
ATOM     30  O   LIG    1      -37.449  78.637  27.815  0.00  0.00    -0.252 OA
BRANCH  25  34
ATOM     31  C   LIG    1      -35.959  83.922  27.833  0.00  0.00    +0.044 C 
ATOM     32  C   LIG    1      -35.588  82.678  28.578  0.00  0.00    -0.049 A 
ATOM     33  C   LIG    1      -35.537  81.440  27.923  0.00  0.00    +0.026 A 
ATOM     34  C   LIG    1      -35.226  80.278  28.630  0.00  0.00    +0.035 A 
ATOM     35  C   LIG    1      -34.984  80.363  30.005  0.00  0.00    +0.023 A 
ATOM     36  C   LIG    1      -34.964  81.599  30.649  0.00  0.00    +0.002 A 
ATOM     37  C   LIG    1      -35.260  82.755  29.936  0.00  0.00    +0.003 A 
ENDBRANCH  25  34
ENDBRANCH   1  28
TORSDOF 5
ENDMDL
MODEL 2
REMARK VINA RESULT:      -6.1      6.240      8.043
REMARK  Name = pdb/CHEMBL1967116.pdb
REMARK                            x       y       z     vdW  Elec       q    Type
REMARK                         _______ _______ _______ _____ _____    ______ ____
ROOT
ATOM      1  C   LIG    1      -33.803  79.701  28.008  0.00  0.00    +0.035 A 
ATOM      2  C   LIG    1      -32.860  79.031  27.223  0.00  0.00    +0.024 A 
ATOM      3  C   LIG    1      -32.487  77.710  27.525  0.00  0.00    +0.010 A 
ATOM      4  C   LIG    1      -33.002  77.057  28.648  0.00  0.00    -0.017 A 
ATOM      5  C   LIG    1      -33.894  77.772  29.461  0.00  0.00    +0.010 A 
ATOM      6  C   LIG    1      -34.293  79.066  29.142  0.00  0.00    +0.024 A 
ENDROOT
BRANCH   4   7
ATOM      7  C   LIG    1      -32.727  75.644  28.954  0.00  0.00    +0.000 A 
ATOM      8  C   LIG    1      -33.506  74.421  28.709  0.00  0.00    +0.037 A 
ATOM      9  C   LIG    1      -34.751  74.186  28.058  0.00  0.00    +0.125 A 
ATOM     10  N   LIG    1      -35.315  72.963  28.059  0.00  0.00    -0.239 NA
ATOM     11  C   LIG    1      -34.663  71.927  28.608  0.00  0.00    +0.122 A 
ATOM     12  C   LIG    1      -33.413  71.998  29.193  0.00  0.00    +0.018 A 
ATOM     13  C   LIG    1      -32.850  73.292  29.255  0.00  0.00    +0.032 A 
ATOM     14  S   LIG    1      -31.348  73.732  29.983  0.00  0.00    -0.095 S 
ATOM     15  C   LIG    1      -31.567  75.363  29.652  0.00  0.00    +0.055 A 
BRANCH  12  16
ATOM     16  C   LIG    1      -32.750  70.822  29.725  0.00  0.00    +0.022 A 
ATOM     17  C   LIG    1      -33.029  70.266  30.958  0.00  0.00    +0.116 A 
ATOM     18  N   LIG    1      -32.191  69.200  31.101  0.00  0.00    -0.274 N 
ATOM     19  C   LIG    1      -32.068  68.357  32.264  0.00  0.00    +0.172 C 
ATOM     20  N   LIG    1      -31.409  68.985  30.032  0.00  0.00    -0.179 NA
ATOM     21  C   LIG    1      -31.756  69.965  29.193  0.00  0.00    +0.143 A 
ENDBRANCH  12  16
BRANCH   9  22
ATOM     22  N   LIG    1      -35.497  75.115  27.335  0.00  0.00    -0.343 N 
ATOM     23  H   LIG    1      -35.084  76.039  27.419  0.00  0.00    +0.144 HD
ATOM     24  H   LIG    1      -35.492  74.785  26.373  0.00  0.00    +0.144 HD
ENDBRANCH   9  22
ENDBRANCH   4   7
BRANCH   1  28
ATOM     25  N   LIG    1      -35.643  82.645  26.899  0.00  0.00    -0.269 N 
ATOM     26  H   LIG    1      -34.877  83.233  27.191  0.00  0.00    +0.156 HD
ATOM     27  C   LIG    1      -35.545  81.309  27.228  0.00  0.00    +0.308 C 
ATOM     28  N   LIG    1      -34.251  80.973  27.595  0.00  0.00    -0.269 N 
ATOM     29  H   LIG    1      -33.532  81.656  27.414  0.00  0.00    +0.156 HD
ATOM     30  O   LIG    1      -36.506  80.531  27.221  0.00  0.00    -0.252 OA
BRANCH  25  34
ATOM     31  C   LIG    1      -38.413  84.326  23.197  0.00  0.00    +0.044 C 
ATOM     32  C   LIG    1      -38.176  84.147  24.665  0.00  0.00    -0.049 A 
ATOM     33  C   LIG    1      -37.025  83.497  25.128  0.00  0.00    +0.026 A 
ATOM     34  C   LIG    1      -36.826  83.300  26.496  0.00  0.00    +0.035 A 
ATOM     35  C   LIG    1      -37.800  83.745  27.394  0.00  0.00    +0.023 A 
ATOM     36  C   LIG    1      -38.913  84.454  26.945  0.00  0.00    +0.002 A 
ATOM     37  C   LIG    1      -39.098  84.659  25.583  0.00  0.00    +0.003 A 
ENDBRANCH  25  34
ENDBRANCH   1  28
TORSDOF 5
ENDMDL
MODEL 3
REMARK VINA RESULT:      -6.1      9.877     10.823
REMARK  Name = pdb/CHEMBL1967116.pdb
REMARK                            x       y       z     vdW  Elec       q    Type
REMARK                         _______ _______ _______ _____ _____    ______ ____
ROOT
ATOM      1  C   LIG    1      -36.368  84.861  25.242  0.00  0.00    +0.035 A 
ATOM      2  C   LIG    1      -37.230  85.764  24.613  0.00  0.00    +0.024 A 
ATOM      3  C   LIG    1      -38.460  85.332  24.089  0.00  0.00    +0.010 A 
ATOM      4  C   LIG    1      -38.825  83.984  24.131  0.00  0.00    -0.017 A 
ATOM      5  C   LIG    1      -37.915  83.084  24.705  0.00  0.00    +0.010 A 
ATOM      6  C   LIG    1      -36.713  83.516  25.257  0.00  0.00    +0.024 A 
ENDROOT
BRANCH   4   7
ATOM      7  C   LIG    1      -40.141  83.493  23.693  0.00  0.00    +0.000 A 
ATOM      8  C   LIG    1      -40.749  83.380  22.358  0.00  0.00    +0.037 A 
ATOM      9  C   LIG    1      -40.258  83.658  21.050  0.00  0.00    +0.125 A 
ATOM     10  N   LIG    1      -41.063  83.573  19.974  0.00  0.00    -0.239 NA
ATOM     11  C   LIG    1      -42.325  83.140  20.117  0.00  0.00    +0.122 A 
ATOM     12  C   LIG    1      -42.899  82.754  21.313  0.00  0.00    +0.018 A 
ATOM     13  C   LIG    1      -42.080  82.910  22.453  0.00  0.00    +0.032 A 
ATOM     14  S   LIG    1      -42.517  82.594  24.091  0.00  0.00    -0.095 S 
ATOM     15  C   LIG    1      -41.034  83.112  24.679  0.00  0.00    +0.055 A 
BRANCH  12  16
ATOM     16  C   LIG    1      -44.260  82.253  21.380  0.00  0.00    +0.022 A 
ATOM     17  C   LIG    1      -44.601  80.918  21.275  0.00  0.00    +0.116 A 
ATOM     18  N   LIG    1      -45.960  80.858  21.363  0.00  0.00    -0.274 N 
ATOM     19  C   LIG    1      -46.775  79.676  21.230  0.00  0.00    +0.172 C 
ATOM     20  N   LIG    1      -46.538  82.052  21.563  0.00  0.00    -0.179 NA
ATOM     21  C   LIG    1      -45.505  82.897  21.583  0.00  0.00    +0.143 A 
ENDBRANCH  12  16
BRANCH   9  22
ATOM     22  N   LIG    1      -38.949  83.995  20.710  0.00  0.00    -0.343 N 
ATOM     23  H   LIG    1      -38.293  83.525  21.326  0.00  0.00    +0.144 HD
ATOM     24  H   LIG    1      -38.831  83.704  19.742  0.00  0.00    +0.144 HD
ENDBRANCH   9  22
ENDBRANCH   4   7
BRANCH   1  28
ATOM     25  N   LIG    1      -33.800  86.116  27.504  0.00  0.00    -0.269 N 
ATOM     26  H   LIG    1      -33.093  85.913  26.812  0.00  0.00    +0.156 HD
ATOM     27  C   LIG    1      -35.077  85.682  27.214  0.00  0.00    +0.308 C 
ATOM     28  N   LIG    1      -35.207  85.355  25.873  0.00  0.00    -0.269 N 
ATOM     29  H   LIG    1      -34.455  85.629  25.260  0.00  0.00    +0.156 HD
ATOM     30  O   LIG    1      -35.971  85.574  28.062  0.00  0.00    -0.252 OA
BRANCH  25  34
ATOM     31  C   LIG    1      -31.475  84.875  31.658  0.00  0.00    +0.044 C 
ATOM     32  C   LIG    1      -32.214  85.884  30.835  0.00  0.00    -0.049 A 
ATOM     33  C   LIG    1      -32.687  85.556  29.557  0.00  0.00    +0.026 A 
ATOM     34  C   LIG    1      -33.343  86.511  28.779  0.00  0.00    +0.035 A 
ATOM     35  C   LIG    1      -33.506  87.804  29.285  0.00  0.00    +0.023 A 
ATOM     36  C   LIG    1      -33.101  88.117  30.582  0.00  0.00    +0.002 A 
ATOM     37  C   LIG    1      -32.462  87.157  31.357  0.00  0.00    +0.003 A 
ENDBRANCH  25  34
ENDBRANCH   1  28
TORSDOF 5
ENDMDL
MODEL 4
REMARK VINA RESULT:      -6.1     18.187     19.426
REMARK  Name = pdb/CHEMBL1967116.pdb
REMARK                            x       y       z     vdW  Elec       q    Type
REMARK                         _______ _______ _______ _____ _____    ______ ____
ROOT
ATOM      1  C   LIG    1      -23.231  82.009  15.345  0.00  0.00    +0.035 A 
ATOM      2  C   LIG    1      -22.606  81.072  16.172  0.00  0.00    +0.024 A 
ATOM      3  C   LIG    1      -22.735  79.696  15.918  0.00  0.00    +0.010 A 
ATOM      4  C   LIG    1      -23.536  79.231  14.873  0.00  0.00    -0.017 A 
ATOM      5  C   LIG    1      -24.209  80.187  14.097  0.00  0.00    +0.010 A 
ATOM      6  C   LIG    1      -24.052  81.551  14.324  0.00  0.00    +0.024 A 
ENDROOT
BRANCH   4   7
ATOM      7  C   LIG    1      -23.625  77.810  14.497  0.00  0.00    +0.000 A 
ATOM      8  C   LIG    1      -24.781  76.933  14.254  0.00  0.00    +0.037 A 
ATOM      9  C   LIG    1      -26.186  77.170  14.249  0.00  0.00    +0.125 A 
ATOM     10  N   LIG    1      -27.060  76.157  14.100  0.00  0.00    -0.239 NA
ATOM     11  C   LIG    1      -26.609  74.915  13.869  0.00  0.00    +0.122 A 
ATOM     12  C   LIG    1      -25.277  74.563  13.761  0.00  0.00    +0.018 A 
ATOM     13  C   LIG    1      -24.357  75.610  13.987  0.00  0.00    +0.032 A 
ATOM     14  S   LIG    1      -22.636  75.489  14.000  0.00  0.00    -0.095 S 
ATOM     15  C   LIG    1      -22.439  77.106  14.403  0.00  0.00    +0.055 A 
BRANCH  12  16
ATOM     16  C   LIG    1      -24.868  73.202  13.463  0.00  0.00    +0.022 A 
ATOM     17  C   LIG    1      -24.695  72.218  14.417  0.00  0.00    +0.116 A 
ATOM     18  N   LIG    1      -24.291  71.100  13.750  0.00  0.00    -0.274 N 
ATOM     19  C   LIG    1      -23.917  69.839  14.341  0.00  0.00    +0.172 C 
ATOM     20  N   LIG    1      -24.227  71.262  12.420  0.00  0.00    -0.179 NA
ATOM     21  C   LIG    1      -24.587  72.536  12.246  0.00  0.00    +0.143 A 
ENDBRANCH  12  16
BRANCH   9  22
ATOM     22  N   LIG    1      -26.818  78.408  14.349  0.00  0.00    -0.343 N 
ATOM     23  H   LIG    1      -26.923  78.672  15.323  0.00  0.00    +0.144 HD
ATOM     24  H   LIG    1      -26.225  79.063  13.843  0.00  0.00    +0.144 HD
ENDBRANCH   9  22
ENDBRANCH   4   7
BRANCH   1  28
ATOM     25  N   LIG    1      -22.327  85.535  15.146  0.00  0.00    -0.269 N 
ATOM     26  H   LIG    1      -22.850  85.716  15.990  0.00  0.00    +0.156 HD
ATOM     27  C   LIG    1      -22.435  84.263  14.623  0.00  0.00    +0.308 C 
ATOM     28  N   LIG    1      -22.967  83.380  15.551  0.00  0.00    -0.269 N 
ATOM     29  H   LIG    1      -23.039  83.705  16.503  0.00  0.00    +0.156 HD
ATOM     30  O   LIG    1      -22.121  83.971  13.464  0.00  0.00    -0.252 OA
BRANCH  25  34
ATOM     31  C   LIG    1      -23.281  89.324  12.154  0.00  0.00    +0.044 C 
ATOM     32  C   LIG    1      -22.309  88.515  12.959  0.00  0.00    -0.049 A 
ATOM     33  C   LIG    1      -22.737  87.390  13.675  0.00  0.00    +0.026 A 
ATOM     34  C   LIG    1      -21.835  86.662  14.453  0.00  0.00    +0.035 A 
ATOM     35  C   LIG    1      -20.503  87.081  14.520  0.00  0.00    +0.023 A 
ATOM     36  C   LIG    1      -20.056  88.157  13.754  0.00  0.00    +0.002 A 
ATOM     37  C   LIG    1      -20.956  88.869  12.971  0.00  0.00    +0.003 A 
ENDBRANCH  25  34
ENDBRANCH   1  28
TORSDOF 5
ENDMDL
MODEL 5
REMARK VINA RESULT:      -6.1     20.182     21.843
REMARK  Name = pdb/CHEMBL1967116.pdb
REMARK                            x       y       z     vdW  Elec       q    Type
REMARK                         _______ _______ _______ _____ _____    ______ ____
ROOT
ATOM      1  C   LIG    1      -22.801  82.085  14.835  0.00  0.00    +0.035 A 
ATOM      2  C   LIG    1      -22.587  81.591  16.125  0.00  0.00    +0.024 A 
ATOM      3  C   LIG    1      -22.070  80.299  16.320  0.00  0.00    +0.010 A 
ATOM      4  C   LIG    1      -21.814  79.457  15.234  0.00  0.00    -0.017 A 
ATOM      5  C   LIG    1      -22.101  79.948  13.952  0.00  0.00    +0.010 A 
ATOM      6  C   LIG    1      -22.578  81.241  13.755  0.00  0.00    +0.024 A 
ENDROOT
BRANCH   4   7
ATOM      7  C   LIG    1      -21.178  78.137  15.372  0.00  0.00    +0.000 A 
ATOM      8  C   LIG    1      -19.821  77.744  15.782  0.00  0.00    +0.037 A 
ATOM      9  C   LIG    1      -18.693  78.493  16.226  0.00  0.00    +0.125 A 
ATOM     10  N   LIG    1      -17.506  77.897  16.443  0.00  0.00    -0.239 NA
ATOM     11  C   LIG    1      -17.395  76.565  16.323  0.00  0.00    +0.122 A 
ATOM     12  C   LIG    1      -18.429  75.712  15.986  0.00  0.00    +0.018 A 
ATOM     13  C   LIG    1      -19.658  76.341  15.689  0.00  0.00    +0.032 A 
ATOM     14  S   LIG    1      -21.112  75.575  15.166  0.00  0.00    -0.095 S 
ATOM     15  C   LIG    1      -21.925  77.034  15.004  0.00  0.00    +0.055 A 
BRANCH  12  16
ATOM     16  C   LIG    1      -18.241  74.274  15.919  0.00  0.00    +0.022 A 
ATOM     17  C   LIG    1      -18.431  73.417  16.986  0.00  0.00    +0.116 A 
ATOM     18  N   LIG    1      -18.136  72.165  16.533  0.00  0.00    -0.274 N 
ATOM     19  C   LIG    1      -18.120  70.954  17.316  0.00  0.00    +0.172 C 
ATOM     20  N   LIG    1      -17.807  72.128  15.234  0.00  0.00    -0.179 NA
ATOM     21  C   LIG    1      -17.880  73.407  14.859  0.00  0.00    +0.143 A 
ENDBRANCH  12  16
BRANCH   9  22
ATOM     22  N   LIG    1      -18.667  79.855  16.522  0.00  0.00    -0.343 N 
ATOM     23  H   LIG    1      -18.511  80.395  15.678  0.00  0.00    +0.144 HD
ATOM     24  H   LIG    1      -19.570  80.064  16.942  0.00  0.00    +0.144 HD
ENDBRANCH   9  22
ENDBRANCH   4   7
BRANCH   1  28
ATOM     25  N   LIG    1      -23.123  85.642  14.106  0.00  0.00    -0.269 N 
ATOM     26  H   LIG    1      -24.121  85.579  14.246  0.00  0.00    +0.156 HD
ATOM     27  C   LIG    1      -22.429  84.449  14.126  0.00  0.00    +0.308 C 
ATOM     28  N   LIG    1      -23.192  83.432  14.678  0.00  0.00    -0.269 N 
ATOM     29  H   LIG    1      -24.046  83.700  15.143  0.00  0.00    +0.156 HD
ATOM     30  O   LIG    1      -21.285  84.316  13.677  0.00  0.00    -0.252 OA
BRANCH  25  34
ATOM     31  C   LIG    1      -23.263  89.019  10.530  0.00  0.00    +0.044 C 
ATOM     32  C   LIG    1      -22.690  88.513  11.818  0.00  0.00    -0.049 A 
ATOM     33  C   LIG    1      -23.142  87.311  12.379  0.00  0.00    +0.026 A 
ATOM     34  C   LIG    1      -22.630  86.863  13.597  0.00  0.00    +0.035 A 
ATOM     35  C   LIG    1      -21.673  87.638  14.259  0.00  0.00    +0.023 A 
ATOM     36  C   LIG    1      -21.167  88.798  13.673  0.00  0.00    +0.002 A 
ATOM     37  C   LIG    1      -21.671  89.231  12.452  0.00  0.00    +0.003 A 
ENDBRANCH  25  34
ENDBRANCH   1  28
TORSDOF 5
ENDMDL
MODEL 6
REMARK VINA RESULT:      -6.0      6.213     13.861
REMARK  Name = pdb/CHEMBL1967116.pdb
REMARK                            x       y       z     vdW  Elec       q    Type
REMARK                         _______ _______ _______ _____ _____    ______ ____
ROOT
ATOM      1  C   LIG    1      -39.750  79.605  24.444  0.00  0.00    +0.035 A 
ATOM      2  C   LIG    1      -39.557  80.492  25.507  0.00  0.00    +0.024 A 
ATOM      3  C   LIG    1      -39.301  81.852  25.267  0.00  0.00    +0.010 A 
ATOM      4  C   LIG    1      -39.174  82.340  23.963  0.00  0.00    -0.017 A 
ATOM      5  C   LIG    1      -39.304  81.420  22.912  0.00  0.00    +0.010 A 
ATOM      6  C   LIG    1      -39.595  80.079  23.148  0.00  0.00    +0.024 A 
ENDROOT
BRANCH   4   7
ATOM      7  C   LIG    1      -39.010  83.769  23.651  0.00  0.00    +0.000 A 
ATOM      8  C   LIG    1      -38.032  84.765  24.114  0.00  0.00    +0.037 A 
ATOM      9  C   LIG    1      -36.897  84.675  24.971  0.00  0.00    +0.125 A 
ATOM     10  N   LIG    1      -36.212  85.776  25.332  0.00  0.00    -0.239 NA
ATOM     11  C   LIG    1      -36.544  86.969  24.816  0.00  0.00    +0.122 A 
ATOM     12  C   LIG    1      -37.564  87.183  23.909  0.00  0.00    +0.018 A 
ATOM     13  C   LIG    1      -38.329  86.042  23.582  0.00  0.00    +0.032 A 
ATOM     14  S   LIG    1      -39.708  85.983  22.546  0.00  0.00    -0.095 S 
ATOM     15  C   LIG    1      -39.956  84.348  22.825  0.00  0.00    +0.055 A 
BRANCH  12  16
ATOM     16  C   LIG    1      -37.834  88.499  23.360  0.00  0.00    +0.022 A 
ATOM     17  C   LIG    1      -37.151  89.049  22.292  0.00  0.00    +0.116 A 
ATOM     18  N   LIG    1      -37.676  90.292  22.096  0.00  0.00    -0.274 N 
ATOM     19  C   LIG    1      -37.228  91.270  21.136  0.00  0.00    +0.172 C 
ATOM     20  N   LIG    1      -38.686  90.585  22.928  0.00  0.00    -0.179 NA
ATOM     21  C   LIG    1      -38.788  89.493  23.689  0.00  0.00    +0.143 A 
ENDBRANCH  12  16
BRANCH   9  22
ATOM     22  N   LIG    1      -36.342  83.507  25.492  0.00  0.00    -0.343 N 
ATOM     23  H   LIG    1      -37.001  82.739  25.414  0.00  0.00    +0.144 HD
ATOM     24  H   LIG    1      -35.498  83.337  24.949  0.00  0.00    +0.144 HD
ENDBRANCH   9  22
ENDBRANCH   4   7
BRANCH   1  28
ATOM     25  N   LIG    1      -40.087  75.999  24.851  0.00  0.00    -0.269 N 
ATOM     26  H   LIG    1      -40.820  76.145  25.528  0.00  0.00    +0.156 HD
ATOM     27  C   LIG    1      -39.431  77.130  24.410  0.00  0.00    +0.308 C 
ATOM     28  N   LIG    1      -40.139  78.279  24.726  0.00  0.00    -0.269 N 
ATOM     29  H   LIG    1      -41.084  78.158  25.059  0.00  0.00    +0.156 HD
ATOM     30  O   LIG    1      -38.337  77.105  23.835  0.00  0.00    -0.252 OA
BRANCH  25  34
ATOM     31  C   LIG    1      -40.959  71.454  23.180  0.00  0.00    +0.044 C 
ATOM     32  C   LIG    1      -40.070  72.430  23.888  0.00  0.00    -0.049 A 
ATOM     33  C   LIG    1      -40.470  73.760  24.067  0.00  0.00    +0.026 A 
ATOM     34  C   LIG    1      -39.623  74.675  24.695  0.00  0.00    +0.035 A 
ATOM     35  C   LIG    1      -38.363  74.249  25.126  0.00  0.00    +0.023 A 
ATOM     36  C   LIG    1      -37.987  72.911  25.014  0.00  0.00    +0.002 A 
ATOM     37  C   LIG    1      -38.841  72.002  24.401  0.00  0.00    +0.003 A 
ENDBRANCH  25  34
ENDBRANCH   1  28
TORSDOF 5
ENDMDL
MODEL 7
REMARK VINA RESULT:      -6.0     21.187     23.686
REMARK  Name = pdb/CHEMBL1967116.pdb
REMARK                            x       y       z     vdW  Elec       q    Type
REMARK                         _______ _______ _______ _____ _____    ______ ____
ROOT
ATOM      1  C   LIG    1      -21.929  87.964  12.241  0.00  0.00    +0.035 A 
ATOM      2  C   LIG    1      -23.231  87.579  12.574  0.00  0.00    +0.024 A 
ATOM      3  C   LIG    1      -23.522  86.241  12.890  0.00  0.00    +0.010 A 
ATOM      4  C   LIG    1      -22.533  85.256  12.823  0.00  0.00    -0.017 A 
ATOM      5  C   LIG    1      -21.249  85.653  12.421  0.00  0.00    +0.010 A 
ATOM      6  C   LIG    1      -20.951  86.983  12.143  0.00  0.00    +0.024 A 
ENDROOT
BRANCH   4   7
ATOM      7  C   LIG    1      -22.756  83.862  13.242  0.00  0.00    +0.000 A 
ATOM      8  C   LIG    1      -22.724  83.222  14.565  0.00  0.00    +0.037 A 
ATOM      9  C   LIG    1      -22.520  83.735  15.879  0.00  0.00    +0.125 A 
ATOM     10  N   LIG    1      -22.430  82.910  16.939  0.00  0.00    -0.239 NA
ATOM     11  C   LIG    1      -22.617  81.592  16.778  0.00  0.00    +0.122 A 
ATOM     12  C   LIG    1      -22.908  80.974  15.576  0.00  0.00    +0.018 A 
ATOM     13  C   LIG    1      -22.934  81.828  14.451  0.00  0.00    +0.032 A 
ATOM     14  S   LIG    1      -23.192  81.365  12.809  0.00  0.00    -0.095 S 
ATOM     15  C   LIG    1      -22.978  82.931  12.244  0.00  0.00    +0.055 A 
BRANCH  12  16
ATOM     16  C   LIG    1      -23.142  79.544  15.489  0.00  0.00    +0.022 A 
ATOM     17  C   LIG    1      -22.158  78.612  15.223  0.00  0.00    +0.116 A 
ATOM     18  N   LIG    1      -22.773  77.395  15.202  0.00  0.00    -0.274 N 
ATOM     19  C   LIG    1      -22.157  76.130  14.889  0.00  0.00    +0.172 C 
ATOM     20  N   LIG    1      -24.084  77.452  15.478  0.00  0.00    -0.179 NA
ATOM     21  C   LIG    1      -24.306  78.756  15.662  0.00  0.00    +0.143 A 
ENDBRANCH  12  16
BRANCH   9  22
ATOM     22  N   LIG    1      -22.433  85.078  16.240  0.00  0.00    -0.343 N 
ATOM     23  H   LIG    1      -23.318  85.398  16.622  0.00  0.00    +0.144 HD
ATOM     24  H   LIG    1      -21.684  85.132  16.927  0.00  0.00    +0.144 HD
ENDBRANCH   9  22
ENDBRANCH   4   7
BRANCH   1  28
ATOM     25  N   LIG    1      -21.663  91.438  11.172  0.00  0.00    -0.269 N 
ATOM     26  H   LIG    1      -21.303  91.690  12.081  0.00  0.00    +0.156 HD
ATOM     27  C   LIG    1      -22.105  90.139  11.030  0.00  0.00    +0.308 C 
ATOM     28  N   LIG    1      -21.650  89.336  12.064  0.00  0.00    -0.269 N 
ATOM     29  H   LIG    1      -20.940  89.723  12.667  0.00  0.00    +0.156 HD
ATOM     30  O   LIG    1      -22.838  89.764  10.108  0.00  0.00    -0.252 OA
BRANCH  25  34
ATOM     31  C   LIG    1      -20.217  94.251   7.402  0.00  0.00    +0.044 C 
ATOM     32  C   LIG    1      -21.231  93.899   8.447  0.00  0.00    -0.049 A 
ATOM     33  C   LIG    1      -20.998  92.849   9.345  0.00  0.00    +0.026 A 
ATOM     34  C   LIG    1      -21.961  92.502  10.293  0.00  0.00    +0.035 A 
ATOM     35  C   LIG    1      -23.169  93.205  10.322  0.00  0.00    +0.023 A 
ATOM     36  C   LIG    1      -23.379  94.296   9.480  0.00  0.00    +0.002 A 
ATOM     37  C   LIG    1      -22.409  94.645   8.548  0.00  0.00    +0.003 A 
ENDBRANCH  25  34
ENDBRANCH   1  28
TORSDOF 5
ENDMDL
MODEL 8
REMARK VINA RESULT:      -6.0      4.257      5.413
REMARK  Name = pdb/CHEMBL1967116.pdb
REMARK                            x       y       z     vdW  Elec       q    Type
REMARK                         _______ _______ _______ _____ _____    ______ ____
ROOT
ATOM      1  C   LIG    1      -38.234  74.191  26.041  0.00  0.00    +0.035 A 
ATOM      2  C   LIG    1      -38.124  73.338  24.939  0.00  0.00    +0.024 A 
ATOM      3  C   LIG    1      -39.254  73.014  24.169  0.00  0.00    +0.010 A 
ATOM      4  C   LIG    1      -40.521  73.488  24.519  0.00  0.00    -0.017 A 
ATOM      5  C   LIG    1      -40.619  74.287  25.668  0.00  0.00    +0.010 A 
ATOM      6  C   LIG    1      -39.496  74.639  26.410  0.00  0.00    +0.024 A 
ENDROOT
BRANCH   4   7
ATOM      7  C   LIG    1      -41.719  73.266  23.694  0.00  0.00    +0.000 A 
ATOM      8  C   LIG    1      -42.608  74.203  22.989  0.00  0.00    +0.037 A 
ATOM      9  C   LIG    1      -42.582  75.618  22.826  0.00  0.00    +0.125 A 
ATOM     10  N   LIG    1      -43.591  76.264  22.211  0.00  0.00    -0.239 NA
ATOM     11  C   LIG    1      -44.598  75.566  21.668  0.00  0.00    +0.122 A 
ATOM     12  C   LIG    1      -44.702  74.188  21.676  0.00  0.00    +0.018 A 
ATOM     13  C   LIG    1      -43.682  73.511  22.381  0.00  0.00    +0.032 A 
ATOM     14  S   LIG    1      -43.560  71.810  22.642  0.00  0.00    -0.095 S 
ATOM     15  C   LIG    1      -42.174  71.966  23.576  0.00  0.00    +0.055 A 
BRANCH  12  16
ATOM     16  C   LIG    1      -45.803  73.500  21.025  0.00  0.00    +0.022 A 
ATOM     17  C   LIG    1      -45.789  73.090  19.706  0.00  0.00    +0.116 A 
ATOM     18  N   LIG    1      -47.001  72.511  19.469  0.00  0.00    -0.274 N 
ATOM     19  C   LIG    1      -47.473  72.000  18.206  0.00  0.00    +0.172 C 
ATOM     20  N   LIG    1      -47.797  72.470  20.548  0.00  0.00    -0.179 NA
ATOM     21  C   LIG    1      -47.065  73.063  21.495  0.00  0.00    +0.143 A 
ENDBRANCH  12  16
BRANCH   9  22
ATOM     22  N   LIG    1      -41.557  76.479  23.215  0.00  0.00    -0.343 N 
ATOM     23  H   LIG    1      -40.823  76.491  22.514  0.00  0.00    +0.144 HD
ATOM     24  H   LIG    1      -41.991  77.393  23.324  0.00  0.00    +0.144 HD
ENDBRANCH   9  22
ENDBRANCH   4   7
BRANCH   1  28
ATOM     25  N   LIG    1      -35.273  75.878  27.333  0.00  0.00    -0.269 N 
ATOM     26  H   LIG    1      -35.250  75.239  28.114  0.00  0.00    +0.156 HD
ATOM     27  C   LIG    1      -36.369  75.785  26.501  0.00  0.00    +0.308 C 
ATOM     28  N   LIG    1      -37.058  74.600  26.705  0.00  0.00    -0.269 N 
ATOM     29  H   LIG    1      -36.606  73.898  27.271  0.00  0.00    +0.156 HD
ATOM     30  O   LIG    1      -36.699  76.671  25.703  0.00  0.00    -0.252 OA
BRANCH  25  34
ATOM     31  C   LIG    1      -34.331  80.431  28.941  0.00  0.00    +0.044 C 
ATOM     32  C   LIG    1      -33.927  79.220  28.158  0.00  0.00    -0.049 A 
ATOM     33  C   LIG    1      -34.771  78.105  28.079  0.00  0.00    +0.026 A 
ATOM     34  C   LIG    1      -34.374  76.965  27.379  0.00  0.00    +0.035 A 
ATOM     35  C   LIG    1      -33.115  76.945  26.772  0.00  0.00    +0.023 A 
ATOM     36  C   LIG    1      -32.300  78.076  26.785  0.00  0.00    +0.002 A 
ATOM     37  C   LIG    1      -32.708  79.213  27.473  0.00  0.00    +0.003 A 
ENDBRANCH  25  34
ENDBRANCH   1  28
TORSDOF 5
ENDMDL
MODEL 9
REMARK VINA RESULT:      -5.9      3.132     11.958
REMARK  Name = pdb/CHEMBL1967116.pdb
REMARK                            x       y       z     vdW  Elec       q    Type
REMARK                         _______ _______ _______ _____ _____    ______ ____
ROOT
ATOM      1  C   LIG    1      -38.432  72.960  25.512  0.00  0.00    +0.035 A 
ATOM      2  C   LIG    1      -38.591  74.119  24.746  0.00  0.00    +0.024 A 
ATOM      3  C   LIG    1      -38.243  75.375  25.270  0.00  0.00    +0.010 A 
ATOM      4  C   LIG    1      -37.788  75.504  26.585  0.00  0.00    -0.017 A 
ATOM      5  C   LIG    1      -37.701  74.336  27.358  0.00  0.00    +0.010 A 
ATOM      6  C   LIG    1      -38.009  73.087  26.828  0.00  0.00    +0.024 A 
ENDROOT
BRANCH   4   7
ATOM      7  C   LIG    1      -37.314  76.777  27.152  0.00  0.00    +0.000 A 
ATOM      8  C   LIG    1      -36.000  77.187  27.669  0.00  0.00    +0.037 A 
ATOM      9  C   LIG    1      -34.744  76.518  27.750  0.00  0.00    +0.125 A 
ATOM     10  N   LIG    1      -33.696  77.084  28.377  0.00  0.00    -0.239 NA
ATOM     11  C   LIG    1      -33.801  78.330  28.863  0.00  0.00    +0.122 A 
ATOM     12  C   LIG    1      -34.930  79.122  28.774  0.00  0.00    +0.018 A 
ATOM     13  C   LIG    1      -36.053  78.506  28.179  0.00  0.00    +0.032 A 
ATOM     14  S   LIG    1      -37.625  79.189  27.985  0.00  0.00    -0.095 S 
ATOM     15  C   LIG    1      -38.246  77.786  27.306  0.00  0.00    +0.055 A 
BRANCH  12  16
ATOM     16  C   LIG    1      -34.952  80.480  29.286  0.00  0.00    +0.022 A 
ATOM     17  C   LIG    1      -34.978  80.803  30.628  0.00  0.00    +0.116 A 
ATOM     18  N   LIG    1      -35.017  82.165  30.698  0.00  0.00    -0.274 N 
ATOM     19  C   LIG    1      -35.128  82.958  31.897  0.00  0.00    +0.172 C 
ATOM     20  N   LIG    1      -34.973  82.765  29.499  0.00  0.00    -0.179 NA
ATOM     21  C   LIG    1      -34.924  81.742  28.642  0.00  0.00    +0.143 A 
ENDBRANCH  12  16
BRANCH   9  22
ATOM     22  N   LIG    1      -34.426  75.281  27.192  0.00  0.00    -0.343 N 
ATOM     23  H   LIG    1      -33.693  75.386  26.498  0.00  0.00    +0.144 HD
ATOM     24  H   LIG    1      -34.128  74.696  27.969  0.00  0.00    +0.144 HD
ENDBRANCH   9  22
ENDBRANCH   4   7
BRANCH   1  28
ATOM     25  N   LIG    1      -38.296  69.782  23.731  0.00  0.00    -0.269 N 
ATOM     26  H   LIG    1      -39.145  69.488  24.193  0.00  0.00    +0.156 HD
ATOM     27  C   LIG    1      -37.751  70.974  24.161  0.00  0.00    +0.308 C 
ATOM     28  N   LIG    1      -38.662  71.707  24.905  0.00  0.00    -0.269 N 
ATOM     29  H   LIG    1      -39.621  71.392  24.895  0.00  0.00    +0.156 HD
ATOM     30  O   LIG    1      -36.586  71.316  23.928  0.00  0.00    -0.252 OA
BRANCH  25  34
ATOM     31  C   LIG    1      -37.280  67.974  19.270  0.00  0.00    +0.044 C 
ATOM     32  C   LIG    1      -37.145  67.909  20.760  0.00  0.00    -0.049 A 
ATOM     33  C   LIG    1      -37.782  68.851  21.577  0.00  0.00    +0.026 A 
ATOM     34  C   LIG    1      -37.623  68.808  22.963  0.00  0.00    +0.035 A 
ATOM     35  C   LIG    1      -36.806  67.821  23.523  0.00  0.00    +0.023 A 
ATOM     36  C   LIG    1      -36.227  66.838  22.722  0.00  0.00    +0.002 A 
ATOM     37  C   LIG    1      -36.401  66.878  21.343  0.00  0.00    +0.003 A 
ENDBRANCH  25  34
ENDBRANCH   1  28
TORSDOF 5
ENDMDL
