MODEL 1
REMARK VINA RESULT:      -5.7      0.000      0.000
REMARK  Name = pdb/CHEMBL3671403.pdb
REMARK                            x       y       z     vdW  Elec       q    Type
REMARK                         _______ _______ _______ _____ _____    ______ ____
ROOT
ATOM      1  C   LIG    1      -20.801  76.825  30.675  0.00  0.00    +0.042 A 
ATOM      2  C   LIG    1      -20.984  77.739  31.732  0.00  0.00    +0.038 A 
ATOM      3  C   LIG    1      -19.871  78.285  32.397  0.00  0.00    +0.052 A 
ATOM      4  C   LIG    1      -18.613  77.913  31.923  0.00  0.00    +0.134 A 
ATOM      5  N   LIG    1      -18.403  77.029  30.917  0.00  0.00    -0.261 NA
ATOM      6  C   LIG    1      -19.497  76.504  30.324  0.00  0.00    +0.122 A 
ENDROOT
BRANCH   3   7
ATOM      7  N   LIG    1      -20.073  79.154  33.502  0.00  0.00    -0.283 N 
ATOM      8  H   LIG    1      -20.611  79.996  33.323  0.00  0.00    +0.155 HD
ATOM      9  C   LIG    1      -19.752  78.879  34.829  0.00  0.00    +0.239 C 
ATOM     10  O   LIG    1      -19.200  77.858  35.236  0.00  0.00    -0.273 OA
BRANCH   9  11
ATOM     11  C   LIG    1      -20.112  79.977  35.807  0.00  0.00    +0.239 C 
BRANCH  11  12
ATOM     12  N   LIG    1      -21.535  80.252  35.792  0.00  0.00    -0.262 N 
ATOM     13  N   LIG    1      -22.409  79.252  35.557  0.00  0.00    -0.167 NA
ATOM     14  C   LIG    1      -23.622  79.848  35.614  0.00  0.00    +0.165 A 
ATOM     15  C   LIG    1      -23.482  81.248  35.821  0.00  0.00    +0.053 A 
ATOM     16  C   LIG    1      -22.131  81.473  35.914  0.00  0.00    +0.109 A 
BRANCH  14  17
ATOM     17  C   LIG    1      -24.921  79.099  35.460  0.00  0.00    +0.436 C 
ATOM     18  F   LIG    1      -25.981  79.787  35.959  0.00  0.00    -0.164 F 
ATOM     19  F   LIG    1      -24.901  77.891  36.086  0.00  0.00    -0.164 F 
ATOM     20  F   LIG    1      -25.207  78.847  34.152  0.00  0.00    -0.164 F 
ENDBRANCH  14  17
ENDBRANCH  11  12
ENDBRANCH   9  11
ENDBRANCH   3   7
BRANCH   1  21
ATOM     21  C   LIG    1      -21.945  76.286  29.886  0.00  0.00    +0.197 C 
ATOM     22  O   LIG    1      -21.865  76.318  28.648  0.00  0.00    -0.287 OA
BRANCH  21  30
ATOM     23  N   LIG    1      -24.437  74.223  31.640  0.00  0.00    -0.323 N 
ATOM     24  C   LIG    1      -25.169  75.388  31.529  0.00  0.00    +0.145 A 
ATOM     25  N   LIG    1      -26.429  75.606  31.964  0.00  0.00    -0.218 NA
ATOM     26  C   LIG    1      -26.862  76.844  31.682  0.00  0.00    +0.223 A 
ATOM     27  N   LIG    1      -26.174  77.849  31.117  0.00  0.00    -0.243 NA
ATOM     28  C   LIG    1      -24.897  77.607  30.738  0.00  0.00    +0.124 A 
ATOM     29  C   LIG    1      -24.352  76.332  30.898  0.00  0.00    +0.048 A 
ATOM     30  C   LIG    1      -23.111  75.701  30.554  0.00  0.00    +0.051 A 
ATOM     31  C   LIG    1      -23.216  74.399  31.020  0.00  0.00    +0.100 A 
BRANCH  23  32
ATOM     32  C   LIG    1      -24.796  72.980  32.375  0.00  0.00    +0.070 C 
ATOM     33  C   LIG    1      -23.696  72.118  33.017  0.00  0.00    +0.033 C 
ATOM     34  C   LIG    1      -24.525  72.987  33.893  0.00  0.00    +0.033 C 
BRANCH  32  35
ATOM     35  C   LIG    1      -26.066  72.232  31.993  0.00  0.00    +0.184 C 
BRANCH  35  36
ATOM     36  O   LIG    1      -26.045  71.759  30.656  0.00  0.00    -0.393 OA
ATOM     37  H   LIG    1      -26.715  71.047  30.629  0.00  0.00    +0.209 HD
ENDBRANCH  35  36
ENDBRANCH  32  35
ENDBRANCH  23  32
ENDBRANCH  21  30
ENDBRANCH   1  21
TORSDOF 9
ENDMDL
MODEL 2
REMARK VINA RESULT:      -5.7     12.703     16.187
REMARK  Name = pdb/CHEMBL3671403.pdb
REMARK                            x       y       z     vdW  Elec       q    Type
REMARK                         _______ _______ _______ _____ _____    ______ ____
ROOT
ATOM      1  C   LIG    1      -35.731  82.123  29.493  0.00  0.00    +0.042 A 
ATOM      2  C   LIG    1      -36.381  82.696  28.381  0.00  0.00    +0.038 A 
ATOM      3  C   LIG    1      -36.096  84.021  28.000  0.00  0.00    +0.052 A 
ATOM      4  C   LIG    1      -35.123  84.691  28.740  0.00  0.00    +0.134 A 
ATOM      5  N   LIG    1      -34.489  84.172  29.820  0.00  0.00    -0.261 NA
ATOM      6  C   LIG    1      -34.811  82.910  30.172  0.00  0.00    +0.122 A 
ENDROOT
BRANCH   3   7
ATOM      7  N   LIG    1      -36.807  84.604  26.917  0.00  0.00    -0.283 N 
ATOM      8  H   LIG    1      -37.660  85.101  27.151  0.00  0.00    +0.155 HD
ATOM      9  C   LIG    1      -36.358  84.702  25.602  0.00  0.00    +0.239 C 
ATOM     10  O   LIG    1      -35.297  84.254  25.172  0.00  0.00    -0.273 OA
BRANCH   9  11
ATOM     11  C   LIG    1      -37.311  85.406  24.660  0.00  0.00    +0.239 C 
BRANCH  11  12
ATOM     12  N   LIG    1      -38.163  84.460  23.966  0.00  0.00    -0.262 N 
ATOM     13  N   LIG    1      -38.305  83.208  24.446  0.00  0.00    -0.167 NA
ATOM     14  C   LIG    1      -39.148  82.610  23.572  0.00  0.00    +0.165 A 
ATOM     15  C   LIG    1      -39.472  83.492  22.505  0.00  0.00    +0.053 A 
ATOM     16  C   LIG    1      -38.810  84.663  22.782  0.00  0.00    +0.109 A 
BRANCH  14  17
ATOM     17  C   LIG    1      -39.642  81.196  23.736  0.00  0.00    +0.436 C 
ATOM     18  F   LIG    1      -39.026  80.327  22.891  0.00  0.00    -0.164 F 
ATOM     19  F   LIG    1      -40.980  81.085  23.512  0.00  0.00    -0.164 F 
ATOM     20  F   LIG    1      -39.424  80.726  24.997  0.00  0.00    -0.164 F 
ENDBRANCH  14  17
ENDBRANCH  11  12
ENDBRANCH   9  11
ENDBRANCH   3   7
BRANCH   1  21
ATOM     21  C   LIG    1      -35.936  80.700  29.883  0.00  0.00    +0.197 C 
ATOM     22  O   LIG    1      -36.537  80.467  30.944  0.00  0.00    -0.287 OA
BRANCH  21  30
ATOM     23  N   LIG    1      -34.109  78.121  27.997  0.00  0.00    -0.323 N 
ATOM     24  C   LIG    1      -35.389  77.822  27.576  0.00  0.00    +0.145 A 
ATOM     25  N   LIG    1      -35.760  76.850  26.715  0.00  0.00    -0.218 NA
ATOM     26  C   LIG    1      -37.084  76.836  26.497  0.00  0.00    +0.223 A 
ATOM     27  N   LIG    1      -38.024  77.596  27.083  0.00  0.00    -0.243 NA
ATOM     28  C   LIG    1      -37.618  78.526  27.978  0.00  0.00    +0.124 A 
ATOM     29  C   LIG    1      -36.257  78.703  28.231  0.00  0.00    +0.048 A 
ATOM     30  C   LIG    1      -35.474  79.608  29.022  0.00  0.00    +0.051 A 
ATOM     31  C   LIG    1      -34.156  79.218  28.834  0.00  0.00    +0.100 A 
BRANCH  23  32
ATOM     32  C   LIG    1      -32.853  77.374  27.718  0.00  0.00    +0.070 C 
ATOM     33  C   LIG    1      -31.907  76.998  28.870  0.00  0.00    +0.033 C 
ATOM     34  C   LIG    1      -32.775  75.943  28.287  0.00  0.00    +0.033 C 
BRANCH  32  35
ATOM     35  C   LIG    1      -32.191  77.518  26.354  0.00  0.00    +0.184 C 
BRANCH  35  36
ATOM     36  O   LIG    1      -32.374  78.805  25.787  0.00  0.00    -0.393 OA
ATOM     37  H   LIG    1      -32.358  78.659  24.821  0.00  0.00    +0.209 HD
ENDBRANCH  35  36
ENDBRANCH  32  35
ENDBRANCH  23  32
ENDBRANCH  21  30
ENDBRANCH   1  21
TORSDOF 9
ENDMDL
MODEL 3
REMARK VINA RESULT:      -5.6     11.042     15.674
REMARK  Name = pdb/CHEMBL3671403.pdb
REMARK                            x       y       z     vdW  Elec       q    Type
REMARK                         _______ _______ _______ _____ _____    ______ ____
ROOT
ATOM      1  C   LIG    1      -34.431  71.668  28.080  0.00  0.00    +0.042 A 
ATOM      2  C   LIG    1      -35.501  71.978  27.216  0.00  0.00    +0.038 A 
ATOM      3  C   LIG    1      -35.830  71.110  26.158  0.00  0.00    +0.052 A 
ATOM      4  C   LIG    1      -35.085  69.936  26.055  0.00  0.00    +0.134 A 
ATOM      5  N   LIG    1      -34.044  69.615  26.862  0.00  0.00    -0.261 NA
ATOM      6  C   LIG    1      -33.740  70.487  27.847  0.00  0.00    +0.122 A 
ENDROOT
BRANCH   3   7
ATOM      7  N   LIG    1      -36.869  71.468  25.258  0.00  0.00    -0.283 N 
ATOM      8  H   LIG    1      -36.582  71.759  24.329  0.00  0.00    +0.155 HD
ATOM      9  C   LIG    1      -38.234  71.298  25.474  0.00  0.00    +0.239 C 
ATOM     10  O   LIG    1      -38.747  70.854  26.500  0.00  0.00    -0.273 OA
BRANCH   9  11
ATOM     11  C   LIG    1      -39.115  71.739  24.325  0.00  0.00    +0.239 C 
BRANCH  11  12
ATOM     12  N   LIG    1      -39.286  73.178  24.313  0.00  0.00    -0.262 N 
ATOM     13  N   LIG    1      -38.303  73.975  24.780  0.00  0.00    -0.167 NA
ATOM     14  C   LIG    1      -38.787  75.228  24.624  0.00  0.00    +0.165 A 
ATOM     15  C   LIG    1      -40.114  75.194  24.115  0.00  0.00    +0.053 A 
ATOM     16  C   LIG    1      -40.407  73.863  23.943  0.00  0.00    +0.109 A 
BRANCH  14  17
ATOM     17  C   LIG    1      -38.000  76.468  24.967  0.00  0.00    +0.436 C 
ATOM     18  F   LIG    1      -36.747  76.184  25.410  0.00  0.00    -0.164 F 
ATOM     19  F   LIG    1      -38.603  77.214  25.931  0.00  0.00    -0.164 F 
ATOM     20  F   LIG    1      -37.850  77.286  23.887  0.00  0.00    -0.164 F 
ENDBRANCH  14  17
ENDBRANCH  11  12
ENDBRANCH   9  11
ENDBRANCH   3   7
BRANCH   1  21
ATOM     21  C   LIG    1      -34.098  72.511  29.263  0.00  0.00    +0.197 C 
ATOM     22  O   LIG    1      -34.395  72.080  30.388  0.00  0.00    -0.287 OA
BRANCH  21  30
ATOM     23  N   LIG    1      -32.905  75.879  28.381  0.00  0.00    -0.323 N 
ATOM     24  C   LIG    1      -31.966  75.569  29.343  0.00  0.00    +0.145 A 
ATOM     25  N   LIG    1      -30.941  76.342  29.765  0.00  0.00    -0.218 NA
ATOM     26  C   LIG    1      -30.194  75.737  30.702  0.00  0.00    +0.223 A 
ATOM     27  N   LIG    1      -30.406  74.545  31.282  0.00  0.00    -0.243 NA
ATOM     28  C   LIG    1      -31.472  73.821  30.868  0.00  0.00    +0.124 A 
ATOM     29  C   LIG    1      -32.282  74.298  29.837  0.00  0.00    +0.048 A 
ATOM     30  C   LIG    1      -33.407  73.793  29.103  0.00  0.00    +0.051 A 
ATOM     31  C   LIG    1      -33.746  74.798  28.209  0.00  0.00    +0.100 A 
BRANCH  23  32
ATOM     32  C   LIG    1      -33.102  77.174  27.674  0.00  0.00    +0.070 C 
ATOM     33  C   LIG    1      -34.513  77.771  27.537  0.00  0.00    +0.033 C 
ATOM     34  C   LIG    1      -33.586  78.353  28.543  0.00  0.00    +0.033 C 
BRANCH  32  35
ATOM     35  C   LIG    1      -32.114  77.587  26.592  0.00  0.00    +0.184 C 
BRANCH  35  36
ATOM     36  O   LIG    1      -32.672  78.495  25.655  0.00  0.00    -0.393 OA
ATOM     37  H   LIG    1      -31.903  78.911  25.219  0.00  0.00    +0.209 HD
ENDBRANCH  35  36
ENDBRANCH  32  35
ENDBRANCH  23  32
ENDBRANCH  21  30
ENDBRANCH   1  21
TORSDOF 9
ENDMDL
MODEL 4
REMARK VINA RESULT:      -5.5     11.910     15.714
REMARK  Name = pdb/CHEMBL3671403.pdb
REMARK                            x       y       z     vdW  Elec       q    Type
REMARK                         _______ _______ _______ _____ _____    ______ ____
ROOT
ATOM      1  C   LIG    1      -33.932  72.973  28.590  0.00  0.00    +0.042 A 
ATOM      2  C   LIG    1      -35.081  72.986  27.773  0.00  0.00    +0.038 A 
ATOM      3  C   LIG    1      -35.888  71.838  27.668  0.00  0.00    +0.052 A 
ATOM      4  C   LIG    1      -35.516  70.737  28.439  0.00  0.00    +0.134 A 
ATOM      5  N   LIG    1      -34.412  70.689  29.225  0.00  0.00    -0.261 NA
ATOM      6  C   LIG    1      -33.647  71.801  29.276  0.00  0.00    +0.122 A 
ENDROOT
BRANCH   3   7
ATOM      7  N   LIG    1      -37.005  71.846  26.791  0.00  0.00    -0.283 N 
ATOM      8  H   LIG    1      -37.845  72.302  27.133  0.00  0.00    +0.155 HD
ATOM      9  C   LIG    1      -37.003  71.443  25.458  0.00  0.00    +0.239 C 
ATOM     10  O   LIG    1      -36.040  70.973  24.854  0.00  0.00    -0.273 OA
BRANCH   9  11
ATOM     11  C   LIG    1      -38.332  71.593  24.750  0.00  0.00    +0.239 C 
BRANCH  11  12
ATOM     12  N   LIG    1      -38.704  72.987  24.616  0.00  0.00    -0.262 N 
ATOM     13  N   LIG    1      -37.837  73.952  24.986  0.00  0.00    -0.167 NA
ATOM     14  C   LIG    1      -38.494  75.107  24.733  0.00  0.00    +0.165 A 
ATOM     15  C   LIG    1      -39.810  74.842  24.263  0.00  0.00    +0.053 A 
ATOM     16  C   LIG    1      -39.915  73.473  24.216  0.00  0.00    +0.109 A 
BRANCH  14  17
ATOM     17  C   LIG    1      -37.886  76.469  24.946  0.00  0.00    +0.436 C 
ATOM     18  F   LIG    1      -37.614  77.107  23.777  0.00  0.00    -0.164 F 
ATOM     19  F   LIG    1      -36.723  76.414  25.649  0.00  0.00    -0.164 F 
ATOM     20  F   LIG    1      -38.718  77.290  25.647  0.00  0.00    -0.164 F 
ENDBRANCH  14  17
ENDBRANCH  11  12
ENDBRANCH   9  11
ENDBRANCH   3   7
BRANCH   1  21
ATOM     21  C   LIG    1      -33.096  74.188  28.799  0.00  0.00    +0.197 C 
ATOM     22  O   LIG    1      -31.907  74.029  29.116  0.00  0.00    -0.287 OA
BRANCH  21  30
ATOM     23  N   LIG    1      -34.965  77.358  28.830  0.00  0.00    -0.323 N 
ATOM     24  C   LIG    1      -34.005  77.689  27.894  0.00  0.00    +0.145 A 
ATOM     25  N   LIG    1      -33.877  78.860  27.234  0.00  0.00    -0.218 NA
ATOM     26  C   LIG    1      -32.848  78.854  26.373  0.00  0.00    +0.223 A 
ATOM     27  N   LIG    1      -31.940  77.883  26.180  0.00  0.00    -0.243 NA
ATOM     28  C   LIG    1      -32.073  76.742  26.897  0.00  0.00    +0.124 A 
ATOM     29  C   LIG    1      -33.153  76.586  27.766  0.00  0.00    +0.048 A 
ATOM     30  C   LIG    1      -33.651  75.529  28.599  0.00  0.00    +0.051 A 
ATOM     31  C   LIG    1      -34.776  76.048  29.223  0.00  0.00    +0.100 A 
BRANCH  23  32
ATOM     32  C   LIG    1      -36.000  78.239  29.434  0.00  0.00    +0.070 C 
ATOM     33  C   LIG    1      -36.227  78.232  30.955  0.00  0.00    +0.033 C 
ATOM     34  C   LIG    1      -35.480  79.366  30.350  0.00  0.00    +0.033 C 
BRANCH  32  35
ATOM     35  C   LIG    1      -37.206  78.649  28.599  0.00  0.00    +0.184 C 
BRANCH  35  36
ATOM     36  O   LIG    1      -36.850  79.106  27.305  0.00  0.00    -0.393 OA
ATOM     37  H   LIG    1      -36.420  79.971  27.452  0.00  0.00    +0.209 HD
ENDBRANCH  35  36
ENDBRANCH  32  35
ENDBRANCH  23  32
ENDBRANCH  21  30
ENDBRANCH   1  21
TORSDOF 9
ENDMDL
MODEL 5
REMARK VINA RESULT:      -5.3     16.610     19.886
REMARK  Name = pdb/CHEMBL3671403.pdb
REMARK                            x       y       z     vdW  Elec       q    Type
REMARK                         _______ _______ _______ _____ _____    ______ ____
ROOT
ATOM      1  C   LIG    1      -22.942  80.659  15.680  0.00  0.00    +0.042 A 
ATOM      2  C   LIG    1      -22.118  79.519  15.597  0.00  0.00    +0.038 A 
ATOM      3  C   LIG    1      -22.607  78.332  15.020  0.00  0.00    +0.052 A 
ATOM      4  C   LIG    1      -23.903  78.372  14.508  0.00  0.00    +0.134 A 
ATOM      5  N   LIG    1      -24.725  79.448  14.582  0.00  0.00    -0.261 NA
ATOM      6  C   LIG    1      -24.229  80.558  15.169  0.00  0.00    +0.122 A 
ENDROOT
BRANCH   3   7
ATOM      7  N   LIG    1      -21.786  77.174  15.002  0.00  0.00    -0.283 N 
ATOM      8  H   LIG    1      -21.940  76.498  15.744  0.00  0.00    +0.155 HD
ATOM      9  C   LIG    1      -20.916  76.802  13.979  0.00  0.00    +0.239 C 
ATOM     10  O   LIG    1      -20.695  77.450  12.957  0.00  0.00    -0.273 OA
BRANCH   9  11
ATOM     11  C   LIG    1      -20.189  75.495  14.211  0.00  0.00    +0.239 C 
BRANCH  11  12
ATOM     12  N   LIG    1      -21.034  74.535  14.894  0.00  0.00    -0.262 N 
ATOM     13  N   LIG    1      -21.118  74.552  16.240  0.00  0.00    -0.167 NA
ATOM     14  C   LIG    1      -21.971  73.546  16.534  0.00  0.00    +0.165 A 
ATOM     15  C   LIG    1      -22.363  72.859  15.352  0.00  0.00    +0.053 A 
ATOM     16  C   LIG    1      -21.730  73.511  14.322  0.00  0.00    +0.109 A 
BRANCH  14  17
ATOM     17  C   LIG    1      -22.413  73.218  17.938  0.00  0.00    +0.436 C 
ATOM     18  F   LIG    1      -23.240  74.163  18.458  0.00  0.00    -0.164 F 
ATOM     19  F   LIG    1      -21.365  73.092  18.795  0.00  0.00    -0.164 F 
ATOM     20  F   LIG    1      -23.096  72.040  17.991  0.00  0.00    -0.164 F 
ENDBRANCH  14  17
ENDBRANCH  11  12
ENDBRANCH   9  11
ENDBRANCH   3   7
BRANCH   1  21
ATOM     21  C   LIG    1      -22.443  81.962  16.204  0.00  0.00    +0.197 C 
ATOM     22  O   LIG    1      -22.505  82.160  17.427  0.00  0.00    -0.287 OA
BRANCH  21  30
ATOM     23  N   LIG    1      -21.543  84.899  14.176  0.00  0.00    -0.323 N 
ATOM     24  C   LIG    1      -20.481  84.082  13.845  0.00  0.00    +0.145 A 
ATOM     25  N   LIG    1      -19.461  84.366  13.007  0.00  0.00    -0.218 NA
ATOM     26  C   LIG    1      -18.598  83.346  12.884  0.00  0.00    +0.223 A 
ATOM     27  N   LIG    1      -18.609  82.174  13.539  0.00  0.00    -0.243 NA
ATOM     28  C   LIG    1      -19.620  81.945  14.409  0.00  0.00    +0.124 A 
ATOM     29  C   LIG    1      -20.633  82.892  14.566  0.00  0.00    +0.048 A 
ATOM     30  C   LIG    1      -21.861  82.962  15.304  0.00  0.00    +0.051 A 
ATOM     31  C   LIG    1      -22.392  84.211  15.021  0.00  0.00    +0.100 A 
BRANCH  23  32
ATOM     32  C   LIG    1      -21.756  86.323  13.804  0.00  0.00    +0.070 C 
ATOM     33  C   LIG    1      -21.773  86.740  12.324  0.00  0.00    +0.033 C 
ATOM     34  C   LIG    1      -23.065  86.639  13.052  0.00  0.00    +0.033 C 
BRANCH  32  35
ATOM     35  C   LIG    1      -21.343  87.416  14.781  0.00  0.00    +0.184 C 
BRANCH  35  36
ATOM     36  O   LIG    1      -19.959  87.384  15.089  0.00  0.00    -0.393 OA
ATOM     37  H   LIG    1      -19.528  87.048  14.279  0.00  0.00    +0.209 HD
ENDBRANCH  35  36
ENDBRANCH  32  35
ENDBRANCH  23  32
ENDBRANCH  21  30
ENDBRANCH   1  21
TORSDOF 9
ENDMDL
MODEL 6
REMARK VINA RESULT:      -5.3     14.369     18.403
REMARK  Name = pdb/CHEMBL3671403.pdb
REMARK                            x       y       z     vdW  Elec       q    Type
REMARK                         _______ _______ _______ _____ _____    ______ ____
ROOT
ATOM      1  C   LIG    1      -40.252  78.743  24.979  0.00  0.00    +0.042 A 
ATOM      2  C   LIG    1      -39.096  78.236  25.606  0.00  0.00    +0.038 A 
ATOM      3  C   LIG    1      -38.593  76.972  25.247  0.00  0.00    +0.052 A 
ATOM      4  C   LIG    1      -39.263  76.297  24.227  0.00  0.00    +0.134 A 
ATOM      5  N   LIG    1      -40.383  76.752  23.613  0.00  0.00    -0.261 NA
ATOM      6  C   LIG    1      -40.852  77.956  24.006  0.00  0.00    +0.122 A 
ENDROOT
BRANCH   3   7
ATOM      7  N   LIG    1      -37.465  76.447  25.933  0.00  0.00    -0.283 N 
ATOM      8  H   LIG    1      -36.554  76.754  25.607  0.00  0.00    +0.155 HD
ATOM      9  C   LIG    1      -37.497  75.695  27.105  0.00  0.00    +0.239 C 
ATOM     10  O   LIG    1      -38.513  75.332  27.695  0.00  0.00    -0.273 OA
BRANCH   9  11
ATOM     11  C   LIG    1      -36.137  75.296  27.637  0.00  0.00    +0.239 C 
BRANCH  11  12
ATOM     12  N   LIG    1      -35.289  76.454  27.838  0.00  0.00    -0.262 N 
ATOM     13  N   LIG    1      -34.166  76.600  27.105  0.00  0.00    -0.167 NA
ATOM     14  C   LIG    1      -33.630  77.761  27.544  0.00  0.00    +0.165 A 
ATOM     15  C   LIG    1      -34.402  78.300  28.608  0.00  0.00    +0.053 A 
ATOM     16  C   LIG    1      -35.449  77.427  28.781  0.00  0.00    +0.109 A 
BRANCH  14  17
ATOM     17  C   LIG    1      -32.374  78.364  26.966  0.00  0.00    +0.436 C 
ATOM     18  F   LIG    1      -31.691  77.490  26.180  0.00  0.00    -0.164 F 
ATOM     19  F   LIG    1      -31.513  78.790  27.928  0.00  0.00    -0.164 F 
ATOM     20  F   LIG    1      -32.646  79.449  26.187  0.00  0.00    -0.164 F 
ENDBRANCH  14  17
ENDBRANCH  11  12
ENDBRANCH   9  11
ENDBRANCH   3   7
BRANCH   1  21
ATOM     21  C   LIG    1      -40.773  80.110  25.265  0.00  0.00    +0.197 C 
ATOM     22  O   LIG    1      -41.565  80.246  26.210  0.00  0.00    -0.287 OA
BRANCH  21  30
ATOM     23  N   LIG    1      -40.271  82.865  22.877  0.00  0.00    -0.323 N 
ATOM     24  C   LIG    1      -39.208  83.121  23.719  0.00  0.00    +0.145 A 
ATOM     25  N   LIG    1      -38.299  84.114  23.611  0.00  0.00    -0.218 NA
ATOM     26  C   LIG    1      -37.376  84.073  24.583  0.00  0.00    +0.223 A 
ATOM     27  N   LIG    1      -37.323  83.240  25.636  0.00  0.00    -0.243 NA
ATOM     28  C   LIG    1      -38.279  82.288  25.737  0.00  0.00    +0.124 A 
ATOM     29  C   LIG    1      -39.251  82.167  24.743  0.00  0.00    +0.048 A 
ATOM     30  C   LIG    1      -40.333  81.264  24.476  0.00  0.00    +0.051 A 
ATOM     31  C   LIG    1      -40.923  81.727  23.309  0.00  0.00    +0.100 A 
BRANCH  23  32
ATOM     32  C   LIG    1      -40.755  83.686  21.735  0.00  0.00    +0.070 C 
ATOM     33  C   LIG    1      -42.244  84.053  21.624  0.00  0.00    +0.033 C 
ATOM     34  C   LIG    1      -41.285  85.090  22.086  0.00  0.00    +0.033 C 
BRANCH  32  35
ATOM     35  C   LIG    1      -39.998  83.640  20.414  0.00  0.00    +0.184 C 
BRANCH  35  36
ATOM     36  O   LIG    1      -38.621  83.947  20.559  0.00  0.00    -0.393 OA
ATOM     37  H   LIG    1      -38.307  83.365  21.278  0.00  0.00    +0.209 HD
ENDBRANCH  35  36
ENDBRANCH  32  35
ENDBRANCH  23  32
ENDBRANCH  21  30
ENDBRANCH   1  21
TORSDOF 9
ENDMDL
MODEL 7
REMARK VINA RESULT:      -5.3      6.769     10.332
REMARK  Name = pdb/CHEMBL3671403.pdb
REMARK                            x       y       z     vdW  Elec       q    Type
REMARK                         _______ _______ _______ _____ _____    ______ ____
ROOT
ATOM      1  C   LIG    1      -32.293  74.075  29.496  0.00  0.00    +0.042 A 
ATOM      2  C   LIG    1      -31.493  75.042  30.139  0.00  0.00    +0.038 A 
ATOM      3  C   LIG    1      -30.395  74.644  30.924  0.00  0.00    +0.052 A 
ATOM      4  C   LIG    1      -30.129  73.276  30.982  0.00  0.00    +0.134 A 
ATOM      5  N   LIG    1      -30.884  72.321  30.385  0.00  0.00    -0.261 NA
ATOM      6  C   LIG    1      -31.946  72.742  29.665  0.00  0.00    +0.122 A 
ENDROOT
BRANCH   3   7
ATOM      7  N   LIG    1      -29.638  75.626  31.617  0.00  0.00    -0.283 N 
ATOM      8  H   LIG    1      -29.032  76.211  31.052  0.00  0.00    +0.155 HD
ATOM      9  C   LIG    1      -29.777  75.969  32.960  0.00  0.00    +0.239 C 
ATOM     10  O   LIG    1      -30.546  75.437  33.759  0.00  0.00    -0.273 OA
BRANCH   9  11
ATOM     11  C   LIG    1      -28.860  77.079  33.427  0.00  0.00    +0.239 C 
BRANCH  11  12
ATOM     12  N   LIG    1      -27.496  76.857  32.986  0.00  0.00    -0.262 N 
ATOM     13  N   LIG    1      -27.015  77.537  31.925  0.00  0.00    -0.167 NA
ATOM     14  C   LIG    1      -25.744  77.094  31.794  0.00  0.00    +0.165 A 
ATOM     15  C   LIG    1      -25.466  76.078  32.749  0.00  0.00    +0.053 A 
ATOM     16  C   LIG    1      -26.618  75.940  33.485  0.00  0.00    +0.109 A 
BRANCH  14  17
ATOM     17  C   LIG    1      -24.786  77.621  30.756  0.00  0.00    +0.436 C 
ATOM     18  F   LIG    1      -23.577  77.952  31.282  0.00  0.00    -0.164 F 
ATOM     19  F   LIG    1      -25.262  78.729  30.126  0.00  0.00    -0.164 F 
ATOM     20  F   LIG    1      -24.542  76.701  29.781  0.00  0.00    -0.164 F 
ENDBRANCH  14  17
ENDBRANCH  11  12
ENDBRANCH   9  11
ENDBRANCH   3   7
BRANCH   1  21
ATOM     21  C   LIG    1      -33.412  74.451  28.587  0.00  0.00    +0.197 C 
ATOM     22  O   LIG    1      -33.990  73.543  27.969  0.00  0.00    -0.287 OA
BRANCH  21  30
ATOM     23  N   LIG    1      -34.973  77.777  28.797  0.00  0.00    -0.323 N 
ATOM     24  C   LIG    1      -34.002  78.060  27.858  0.00  0.00    +0.145 A 
ATOM     25  N   LIG    1      -33.775  79.243  27.248  0.00  0.00    -0.218 NA
ATOM     26  C   LIG    1      -32.765  79.180  26.366  0.00  0.00    +0.223 A 
ATOM     27  N   LIG    1      -31.956  78.138  26.112  0.00  0.00    -0.243 NA
ATOM     28  C   LIG    1      -32.184  76.983  26.780  0.00  0.00    +0.124 A 
ATOM     29  C   LIG    1      -33.260  76.889  27.663  0.00  0.00    +0.048 A 
ATOM     30  C   LIG    1      -33.842  75.846  28.458  0.00  0.00    +0.051 A 
ATOM     31  C   LIG    1      -34.902  76.438  29.127  0.00  0.00    +0.100 A 
BRANCH  23  32
ATOM     32  C   LIG    1      -35.911  78.722  29.461  0.00  0.00    +0.070 C 
ATOM     33  C   LIG    1      -36.166  78.620  30.974  0.00  0.00    +0.033 C 
ATOM     34  C   LIG    1      -35.282  79.703  30.470  0.00  0.00    +0.033 C 
BRANCH  32  35
ATOM     35  C   LIG    1      -37.045  79.335  28.651  0.00  0.00    +0.184 C 
BRANCH  35  36
ATOM     36  O   LIG    1      -36.936  79.068  27.262  0.00  0.00    -0.393 OA
ATOM     37  H   LIG    1      -37.662  78.443  27.068  0.00  0.00    +0.209 HD
ENDBRANCH  35  36
ENDBRANCH  32  35
ENDBRANCH  23  32
ENDBRANCH  21  30
ENDBRANCH   1  21
TORSDOF 9
ENDMDL
MODEL 8
REMARK VINA RESULT:      -5.3     13.604     17.039
REMARK  Name = pdb/CHEMBL3671403.pdb
REMARK                            x       y       z     vdW  Elec       q    Type
REMARK                         _______ _______ _______ _____ _____    ______ ____
ROOT
ATOM      1  C   LIG    1      -39.125  76.648  25.860  0.00  0.00    +0.042 A 
ATOM      2  C   LIG    1      -37.909  77.341  26.028  0.00  0.00    +0.038 A 
ATOM      3  C   LIG    1      -37.418  77.609  27.319  0.00  0.00    +0.052 A 
ATOM      4  C   LIG    1      -38.165  77.115  28.388  0.00  0.00    +0.134 A 
ATOM      5  N   LIG    1      -39.342  76.455  28.262  0.00  0.00    -0.261 NA
ATOM      6  C   LIG    1      -39.795  76.244  27.007  0.00  0.00    +0.122 A 
ENDROOT
BRANCH   3   7
ATOM      7  N   LIG    1      -36.225  78.364  27.471  0.00  0.00    -0.283 N 
ATOM      8  H   LIG    1      -35.368  77.925  27.152  0.00  0.00    +0.155 HD
ATOM      9  C   LIG    1      -36.146  79.701  27.855  0.00  0.00    +0.239 C 
ATOM     10  O   LIG    1      -37.098  80.414  28.166  0.00  0.00    -0.273 OA
BRANCH   9  11
ATOM     11  C   LIG    1      -34.741  80.263  27.901  0.00  0.00    +0.239 C 
BRANCH  11  12
ATOM     12  N   LIG    1      -33.749  79.216  27.758  0.00  0.00    -0.262 N 
ATOM     13  N   LIG    1      -33.611  78.285  28.724  0.00  0.00    -0.167 NA
ATOM     14  C   LIG    1      -32.618  77.483  28.276  0.00  0.00    +0.165 A 
ATOM     15  C   LIG    1      -32.096  77.971  27.047  0.00  0.00    +0.053 A 
ATOM     16  C   LIG    1      -32.834  79.092  26.753  0.00  0.00    +0.109 A 
BRANCH  14  17
ATOM     17  C   LIG    1      -32.149  76.255  29.014  0.00  0.00    +0.436 C 
ATOM     18  F   LIG    1      -30.804  76.077  28.927  0.00  0.00    -0.164 F 
ATOM     19  F   LIG    1      -32.731  75.116  28.550  0.00  0.00    -0.164 F 
ATOM     20  F   LIG    1      -32.443  76.321  30.343  0.00  0.00    -0.164 F 
ENDBRANCH  14  17
ENDBRANCH  11  12
ENDBRANCH   9  11
ENDBRANCH   3   7
BRANCH   1  21
ATOM     21  C   LIG    1      -39.641  76.267  24.516  0.00  0.00    +0.197 C 
ATOM     22  O   LIG    1      -39.621  77.125  23.619  0.00  0.00    -0.287 OA
BRANCH  21  30
ATOM     23  N   LIG    1      -41.466  73.199  23.619  0.00  0.00    -0.323 N 
ATOM     24  C   LIG    1      -40.266  72.628  23.994  0.00  0.00    +0.145 A 
ATOM     25  N   LIG    1      -39.953  71.314  24.001  0.00  0.00    -0.218 NA
ATOM     26  C   LIG    1      -38.707  71.086  24.442  0.00  0.00    +0.223 A 
ATOM     27  N   LIG    1      -37.772  71.991  24.777  0.00  0.00    -0.243 NA
ATOM     28  C   LIG    1      -38.108  73.300  24.711  0.00  0.00    +0.124 A 
ATOM     29  C   LIG    1      -39.404  73.671  24.348  0.00  0.00    +0.048 A 
ATOM     30  C   LIG    1      -40.123  74.909  24.251  0.00  0.00    +0.051 A 
ATOM     31  C   LIG    1      -41.393  74.564  23.811  0.00  0.00    +0.100 A 
BRANCH  23  32
ATOM     32  C   LIG    1      -42.649  72.533  23.011  0.00  0.00    +0.070 C 
ATOM     33  C   LIG    1      -43.326  73.143  21.773  0.00  0.00    +0.033 C 
ATOM     34  C   LIG    1      -42.448  71.957  21.594  0.00  0.00    +0.033 C 
BRANCH  32  35
ATOM     35  C   LIG    1      -43.552  71.675  23.887  0.00  0.00    +0.184 C 
BRANCH  35  36
ATOM     36  O   LIG    1      -42.843  70.659  24.578  0.00  0.00    -0.393 OA
ATOM     37  H   LIG    1      -43.123  70.745  25.510  0.00  0.00    +0.209 HD
ENDBRANCH  35  36
ENDBRANCH  32  35
ENDBRANCH  23  32
ENDBRANCH  21  30
ENDBRANCH   1  21
TORSDOF 9
ENDMDL
MODEL 9
REMARK VINA RESULT:      -5.2     13.108     16.495
REMARK  Name = pdb/CHEMBL3671403.pdb
REMARK                            x       y       z     vdW  Elec       q    Type
REMARK                         _______ _______ _______ _____ _____    ______ ____
ROOT
ATOM      1  C   LIG    1      -39.061  76.861  25.957  0.00  0.00    +0.042 A 
ATOM      2  C   LIG    1      -37.809  77.487  26.121  0.00  0.00    +0.038 A 
ATOM      3  C   LIG    1      -37.390  77.908  27.397  0.00  0.00    +0.052 A 
ATOM      4  C   LIG    1      -38.246  77.629  28.462  0.00  0.00    +0.134 A 
ATOM      5  N   LIG    1      -39.460  77.039  28.336  0.00  0.00    -0.261 NA
ATOM      6  C   LIG    1      -39.839  76.677  27.092  0.00  0.00    +0.122 A 
ENDROOT
BRANCH   3   7
ATOM      7  N   LIG    1      -36.154  78.594  27.535  0.00  0.00    -0.283 N 
ATOM      8  H   LIG    1      -35.322  78.091  27.246  0.00  0.00    +0.155 HD
ATOM      9  C   LIG    1      -35.997  79.938  27.867  0.00  0.00    +0.239 C 
ATOM     10  O   LIG    1      -36.907  80.720  28.136  0.00  0.00    -0.273 OA
BRANCH   9  11
ATOM     11  C   LIG    1      -34.561  80.414  27.910  0.00  0.00    +0.239 C 
BRANCH  11  12
ATOM     12  N   LIG    1      -33.634  79.311  27.752  0.00  0.00    -0.262 N 
ATOM     13  N   LIG    1      -33.522  78.382  28.724  0.00  0.00    -0.167 NA
ATOM     14  C   LIG    1      -32.590  77.521  28.257  0.00  0.00    +0.165 A 
ATOM     15  C   LIG    1      -32.075  77.967  27.009  0.00  0.00    +0.053 A 
ATOM     16  C   LIG    1      -32.755  79.126  26.724  0.00  0.00    +0.109 A 
BRANCH  14  17
ATOM     17  C   LIG    1      -32.171  76.275  28.995  0.00  0.00    +0.436 C 
ATOM     18  F   LIG    1      -32.479  76.325  30.318  0.00  0.00    -0.164 F 
ATOM     19  F   LIG    1      -30.832  76.046  28.908  0.00  0.00    -0.164 F 
ATOM     20  F   LIG    1      -32.783  75.163  28.499  0.00  0.00    -0.164 F 
ENDBRANCH  14  17
ENDBRANCH  11  12
ENDBRANCH   9  11
ENDBRANCH   3   7
BRANCH   1  21
ATOM     21  C   LIG    1      -39.512  76.323  24.642  0.00  0.00    +0.197 C 
ATOM     22  O   LIG    1      -39.748  77.132  23.732  0.00  0.00    -0.287 OA
BRANCH  21  30
ATOM     23  N   LIG    1      -39.193  72.660  24.480  0.00  0.00    -0.323 N 
ATOM     24  C   LIG    1      -40.400  72.795  23.823  0.00  0.00    +0.145 A 
ATOM     25  N   LIG    1      -41.162  71.809  23.303  0.00  0.00    -0.218 NA
ATOM     26  C   LIG    1      -42.270  72.277  22.708  0.00  0.00    +0.223 A 
ATOM     27  N   LIG    1      -42.705  73.547  22.658  0.00  0.00    -0.243 NA
ATOM     28  C   LIG    1      -41.938  74.501  23.234  0.00  0.00    +0.124 A 
ATOM     29  C   LIG    1      -40.716  74.158  23.813  0.00  0.00    +0.048 A 
ATOM     30  C   LIG    1      -39.635  74.880  24.422  0.00  0.00    +0.051 A 
ATOM     31  C   LIG    1      -38.716  73.914  24.804  0.00  0.00    +0.100 A 
BRANCH  23  32
ATOM     32  C   LIG    1      -38.508  71.405  24.892  0.00  0.00    +0.070 C 
ATOM     33  C   LIG    1      -37.973  70.433  23.829  0.00  0.00    +0.033 C 
ATOM     34  C   LIG    1      -37.009  71.307  24.547  0.00  0.00    +0.033 C 
BRANCH  32  35
ATOM     35  C   LIG    1      -38.862  70.772  26.232  0.00  0.00    +0.184 C 
BRANCH  35  36
ATOM     36  O   LIG    1      -39.944  69.860  26.141  0.00  0.00    -0.393 OA
ATOM     37  H   LIG    1      -40.745  70.420  26.135  0.00  0.00    +0.209 HD
ENDBRANCH  35  36
ENDBRANCH  32  35
ENDBRANCH  23  32
ENDBRANCH  21  30
ENDBRANCH   1  21
TORSDOF 9
ENDMDL
