MODEL 1
REMARK VINA RESULT:      -6.3      0.000      0.000
REMARK  Name = pdb/CHEMBL3910261.pdb
REMARK                            x       y       z     vdW  Elec       q    Type
REMARK                         _______ _______ _______ _____ _____    ______ ____
ROOT
ATOM      1  C   LIG    1      -41.297  73.797  23.435  0.00  0.00    +0.149 A 
ATOM      2  N   LIG    1      -41.444  75.114  23.637  0.00  0.00    -0.160 NA
ATOM      3  N   LIG    1      -40.284  75.531  24.207  0.00  0.00    -0.218 N 
ATOM      4  C   LIG    1      -39.438  74.447  24.501  0.00  0.00    +0.129 A 
ATOM      5  C   LIG    1      -40.074  73.344  23.981  0.00  0.00    +0.078 A 
ENDROOT
BRANCH   3   6
ATOM      6  C   LIG    1      -40.098  76.925  24.460  0.00  0.00    +0.067 A 
ATOM      7  C   LIG    1      -40.163  77.456  25.752  0.00  0.00    +0.028 A 
ATOM      8  C   LIG    1      -40.008  78.830  25.965  0.00  0.00    +0.002 A 
ATOM      9  C   LIG    1      -39.758  79.681  24.893  0.00  0.00    +0.000 A 
ATOM     10  C   LIG    1      -39.643  79.157  23.607  0.00  0.00    +0.002 A 
ATOM     11  C   LIG    1      -39.802  77.783  23.391  0.00  0.00    +0.028 A 
ENDBRANCH   3   6
BRANCH   4  12
ATOM     12  N   LIG    1      -38.239  74.447  25.227  0.00  0.00    -0.266 N 
ATOM     13  H   LIG    1      -37.374  74.503  24.703  0.00  0.00    +0.157 HD
ATOM     14  C   LIG    1      -38.157  74.415  26.667  0.00  0.00    +0.251 C 
ATOM     15  O   LIG    1      -39.162  74.427  27.362  0.00  0.00    -0.270 OA
BRANCH  14  16
ATOM     16  C   LIG    1      -36.806  74.423  27.293  0.00  0.00    +0.056 A 
ATOM     17  C   LIG    1      -36.284  73.372  28.034  0.00  0.00    +0.054 A 
ATOM     18 CL   LIG    1      -37.128  71.911  28.362  0.00  0.00    -0.083 Cl
ATOM     19  C   LIG    1      -35.025  73.489  28.622  0.00  0.00    +0.041 A 
ATOM     20  C   LIG    1      -34.272  74.663  28.494  0.00  0.00    +0.052 A 
ATOM     21 CL   LIG    1      -32.805  74.681  29.413  0.00  0.00    -0.083 Cl
ATOM     22  C   LIG    1      -34.744  75.746  27.730  0.00  0.00    +0.019 A 
ATOM     23  C   LIG    1      -36.036  75.598  27.154  0.00  0.00    +0.026 A 
BRANCH  22  24
ATOM     24  C   LIG    1      -34.018  77.025  27.511  0.00  0.00    +0.072 A 
ATOM     25  N   LIG    1      -32.945  76.928  26.684  0.00  0.00    -0.255 NA
ATOM     26  C   LIG    1      -32.219  78.044  26.437  0.00  0.00    +0.111 A 
ATOM     27  C   LIG    1      -32.511  79.284  26.971  0.00  0.00    +0.020 A 
ATOM     28  C   LIG    1      -33.594  79.378  27.830  0.00  0.00    +0.004 A 
ATOM     29  C   LIG    1      -34.338  78.236  28.124  0.00  0.00    +0.028 A 
ENDBRANCH  22  24
ENDBRANCH  14  16
ENDBRANCH   4  12
BRANCH   1  30
ATOM     30  C   LIG    1      -42.297  72.964  22.763  0.00  0.00    +0.236 C 
ATOM     31  N   LIG    1      -41.954  71.784  22.363  0.00  0.00    -0.241 NA
BRANCH  31  32
ATOM     32  C   LIG    1      -42.901  70.900  21.702  0.00  0.00    +0.160 C 
ATOM     33  C   LIG    1      -42.347  69.480  21.499  0.00  0.00    +0.189 C 
ATOM     34  O   LIG    1      -42.638  69.538  20.077  0.00  0.00    -0.375 OA
ATOM     35  C   LIG    1      -42.778  70.982  20.171  0.00  0.00    +0.189 C 
ENDBRANCH  31  32
BRANCH  30  36
ATOM     36  O   LIG    1      -43.513  73.523  22.611  0.00  0.00    -0.491 OA
ATOM     37  H   LIG    1      -43.548  74.174  21.903  0.00  0.00    +0.294 HD
ENDBRANCH  30  36
ENDBRANCH   1  30
TORSDOF 7
ENDMDL
MODEL 2
REMARK VINA RESULT:      -6.2     13.539     15.389
REMARK  Name = pdb/CHEMBL3910261.pdb
REMARK                            x       y       z     vdW  Elec       q    Type
REMARK                         _______ _______ _______ _____ _____    ______ ____
ROOT
ATOM      1  C   LIG    1      -30.771  66.045  19.188  0.00  0.00    +0.149 A 
ATOM      2  N   LIG    1      -29.722  65.214  19.099  0.00  0.00    -0.160 NA
ATOM      3  N   LIG    1      -28.676  65.982  18.701  0.00  0.00    -0.218 N 
ATOM      4  C   LIG    1      -29.087  67.292  18.397  0.00  0.00    +0.129 A 
ATOM      5  C   LIG    1      -30.419  67.338  18.736  0.00  0.00    +0.078 A 
ENDROOT
BRANCH   3   6
ATOM      6  C   LIG    1      -27.379  65.391  18.605  0.00  0.00    +0.067 A 
ATOM      7  C   LIG    1      -26.914  64.818  17.417  0.00  0.00    +0.028 A 
ATOM      8  C   LIG    1      -25.651  64.218  17.363  0.00  0.00    +0.002 A 
ATOM      9  C   LIG    1      -24.831  64.211  18.486  0.00  0.00    +0.000 A 
ATOM     10  C   LIG    1      -25.264  64.821  19.662  0.00  0.00    +0.002 A 
ATOM     11  C   LIG    1      -26.528  65.418  19.721  0.00  0.00    +0.028 A 
ENDBRANCH   3   6
BRANCH   4  12
ATOM     12  N   LIG    1      -28.345  68.326  17.809  0.00  0.00    -0.266 N 
ATOM     13  H   LIG    1      -28.220  68.300  16.804  0.00  0.00    +0.157 HD
ATOM     14  C   LIG    1      -27.788  69.443  18.532  0.00  0.00    +0.251 C 
ATOM     15  O   LIG    1      -27.969  69.579  19.732  0.00  0.00    -0.270 OA
BRANCH  14  16
ATOM     16  C   LIG    1      -27.026  70.465  17.763  0.00  0.00    +0.056 A 
ATOM     17  C   LIG    1      -27.579  71.270  16.777  0.00  0.00    +0.054 A 
ATOM     18 CL   LIG    1      -29.221  71.191  16.275  0.00  0.00    -0.083 Cl
ATOM     19  C   LIG    1      -26.775  72.170  16.076  0.00  0.00    +0.041 A 
ATOM     20  C   LIG    1      -25.403  72.271  16.337  0.00  0.00    +0.052 A 
ATOM     21 CL   LIG    1      -24.542  73.329  15.272  0.00  0.00    -0.083 Cl
ATOM     22  C   LIG    1      -24.800  71.497  17.347  0.00  0.00    +0.019 A 
ATOM     23  C   LIG    1      -25.646  70.583  18.033  0.00  0.00    +0.026 A 
BRANCH  22  24
ATOM     24  C   LIG    1      -23.362  71.543  17.721  0.00  0.00    +0.072 A 
ATOM     25  N   LIG    1      -22.576  70.666  17.045  0.00  0.00    -0.255 NA
ATOM     26  C   LIG    1      -21.253  70.633  17.330  0.00  0.00    +0.111 A 
ATOM     27  C   LIG    1      -20.649  71.450  18.266  0.00  0.00    +0.020 A 
ATOM     28  C   LIG    1      -21.454  72.330  18.970  0.00  0.00    +0.004 A 
ATOM     29  C   LIG    1      -22.824  72.360  18.715  0.00  0.00    +0.028 A 
ENDBRANCH  22  24
ENDBRANCH  14  16
ENDBRANCH   4  12
BRANCH   1  30
ATOM     30  C   LIG    1      -32.094  65.633  19.664  0.00  0.00    +0.236 C 
ATOM     31  N   LIG    1      -32.733  66.414  20.470  0.00  0.00    -0.241 NA
BRANCH  31  32
ATOM     32  C   LIG    1      -34.056  66.073  20.970  0.00  0.00    +0.160 C 
ATOM     33  C   LIG    1      -35.187  66.693  20.133  0.00  0.00    +0.189 C 
ATOM     34  O   LIG    1      -35.774  67.294  21.318  0.00  0.00    -0.375 OA
ATOM     35  C   LIG    1      -34.532  67.070  22.039  0.00  0.00    +0.189 C 
ENDBRANCH  31  32
BRANCH  30  36
ATOM     36  O   LIG    1      -32.530  64.442  19.211  0.00  0.00    -0.491 OA
ATOM     37  H   LIG    1      -33.250  64.516  18.576  0.00  0.00    +0.294 HD
ENDBRANCH  30  36
ENDBRANCH   1  30
TORSDOF 7
ENDMDL
MODEL 3
REMARK VINA RESULT:      -6.2     11.808     17.022
REMARK  Name = pdb/CHEMBL3910261.pdb
REMARK                            x       y       z     vdW  Elec       q    Type
REMARK                         _______ _______ _______ _____ _____    ______ ____
ROOT
ATOM      1  C   LIG    1      -26.614  76.150  32.041  0.00  0.00    +0.149 A 
ATOM      2  N   LIG    1      -25.543  75.891  31.278  0.00  0.00    -0.160 NA
ATOM      3  N   LIG    1      -24.550  76.685  31.755  0.00  0.00    -0.218 N 
ATOM      4  C   LIG    1      -25.026  77.563  32.744  0.00  0.00    +0.129 A 
ATOM      5  C   LIG    1      -26.337  77.201  32.946  0.00  0.00    +0.078 A 
ENDROOT
BRANCH   3   6
ATOM      6  C   LIG    1      -23.240  76.566  31.198  0.00  0.00    +0.067 A 
ATOM      7  C   LIG    1      -22.974  76.881  29.862  0.00  0.00    +0.028 A 
ATOM      8  C   LIG    1      -21.686  76.725  29.336  0.00  0.00    +0.002 A 
ATOM      9  C   LIG    1      -20.648  76.279  30.148  0.00  0.00    +0.000 A 
ATOM     10  C   LIG    1      -20.891  76.007  31.493  0.00  0.00    +0.002 A 
ATOM     11  C   LIG    1      -22.178  76.159  32.020  0.00  0.00    +0.028 A 
ENDBRANCH   3   6
BRANCH   4  12
ATOM     12  N   LIG    1      -24.357  78.632  33.358  0.00  0.00    -0.266 N 
ATOM     13  H   LIG    1      -24.489  79.556  32.963  0.00  0.00    +0.157 HD
ATOM     14  C   LIG    1      -23.531  78.510  34.534  0.00  0.00    +0.251 C 
ATOM     15  O   LIG    1      -23.394  77.440  35.108  0.00  0.00    -0.270 OA
BRANCH  14  16
ATOM     16  C   LIG    1      -22.890  79.741  35.071  0.00  0.00    +0.056 A 
ATOM     17  C   LIG    1      -21.553  80.066  34.889  0.00  0.00    +0.054 A 
ATOM     18 CL   LIG    1      -20.429  79.083  34.038  0.00  0.00    -0.083 Cl
ATOM     19  C   LIG    1      -21.028  81.220  35.470  0.00  0.00    +0.041 A 
ATOM     20  C   LIG    1      -21.825  82.063  36.256  0.00  0.00    +0.052 A 
ATOM     21 CL   LIG    1      -20.970  83.363  37.014  0.00  0.00    -0.083 Cl
ATOM     22  C   LIG    1      -23.193  81.793  36.447  0.00  0.00    +0.019 A 
ATOM     23  C   LIG    1      -23.692  80.603  35.850  0.00  0.00    +0.026 A 
BRANCH  22  24
ATOM     24  C   LIG    1      -24.131  82.631  37.239  0.00  0.00    +0.072 A 
ATOM     25  N   LIG    1      -25.284  82.949  36.595  0.00  0.00    -0.255 NA
ATOM     26  C   LIG    1      -26.191  83.718  37.240  0.00  0.00    +0.111 A 
ATOM     27  C   LIG    1      -26.020  84.194  38.525  0.00  0.00    +0.020 A 
ATOM     28  C   LIG    1      -24.835  83.886  39.175  0.00  0.00    +0.004 A 
ATOM     29  C   LIG    1      -23.872  83.121  38.519  0.00  0.00    +0.028 A 
ENDBRANCH  22  24
ENDBRANCH  14  16
ENDBRANCH   4  12
BRANCH   1  30
ATOM     30  C   LIG    1      -27.892  75.445  31.912  0.00  0.00    +0.236 C 
ATOM     31  N   LIG    1      -28.853  76.017  31.266  0.00  0.00    -0.241 NA
BRANCH  31  32
ATOM     32  C   LIG    1      -30.142  75.367  31.088  0.00  0.00    +0.160 C 
ATOM     33  C   LIG    1      -31.007  76.045  30.013  0.00  0.00    +0.189 C 
ATOM     34  O   LIG    1      -32.110  76.186  30.948  0.00  0.00    -0.375 OA
ATOM     35  C   LIG    1      -31.199  75.933  32.051  0.00  0.00    +0.189 C 
ENDBRANCH  31  32
BRANCH  30  36
ATOM     36  O   LIG    1      -27.951  74.236  32.502  0.00  0.00    -0.491 OA
ATOM     37  H   LIG    1      -27.461  73.556  32.029  0.00  0.00    +0.294 HD
ENDBRANCH  30  36
ENDBRANCH   1  30
TORSDOF 7
ENDMDL
MODEL 4
REMARK VINA RESULT:      -6.2      4.004      9.533
REMARK  Name = pdb/CHEMBL3910261.pdb
REMARK                            x       y       z     vdW  Elec       q    Type
REMARK                         _______ _______ _______ _____ _____    ______ ____
ROOT
ATOM      1  C   LIG    1      -31.593  74.262  29.689  0.00  0.00    +0.149 A 
ATOM      2  N   LIG    1      -31.518  75.554  29.338  0.00  0.00    -0.160 NA
ATOM      3  N   LIG    1      -32.649  75.811  28.633  0.00  0.00    -0.218 N 
ATOM      4  C   LIG    1      -33.393  74.639  28.411  0.00  0.00    +0.129 A 
ATOM      5  C   LIG    1      -32.732  73.656  29.110  0.00  0.00    +0.078 A 
ENDROOT
BRANCH   3   6
ATOM      6  C   LIG    1      -32.905  77.147  28.197  0.00  0.00    +0.067 A 
ATOM      7  C   LIG    1      -32.275  77.690  27.073  0.00  0.00    +0.028 A 
ATOM      8  C   LIG    1      -32.522  79.013  26.689  0.00  0.00    +0.002 A 
ATOM      9  C   LIG    1      -33.422  79.794  27.406  0.00  0.00    +0.000 A 
ATOM     10  C   LIG    1      -34.093  79.248  28.499  0.00  0.00    +0.002 A 
ATOM     11  C   LIG    1      -33.844  77.927  28.889  0.00  0.00    +0.028 A 
ENDBRANCH   3   6
BRANCH   4  12
ATOM     12  N   LIG    1      -34.523  74.462  27.600  0.00  0.00    -0.266 N 
ATOM     13  H   LIG    1      -34.370  74.181  26.639  0.00  0.00    +0.157 HD
ATOM     14  C   LIG    1      -35.884  74.612  28.054  0.00  0.00    +0.251 C 
ATOM     15  O   LIG    1      -36.141  74.870  29.220  0.00  0.00    -0.270 OA
BRANCH  14  16
ATOM     16  C   LIG    1      -36.979  74.386  27.071  0.00  0.00    +0.056 A 
ATOM     17  C   LIG    1      -37.376  73.135  26.620  0.00  0.00    +0.054 A 
ATOM     18 CL   LIG    1      -36.645  71.657  27.109  0.00  0.00    -0.083 Cl
ATOM     19  C   LIG    1      -38.383  73.023  25.662  0.00  0.00    +0.041 A 
ATOM     20  C   LIG    1      -39.001  74.160  25.125  0.00  0.00    +0.052 A 
ATOM     21 CL   LIG    1      -40.119  73.836  23.845  0.00  0.00    -0.083 Cl
ATOM     22  C   LIG    1      -38.655  75.450  25.570  0.00  0.00    +0.019 A 
ATOM     23  C   LIG    1      -37.617  75.527  26.539  0.00  0.00    +0.026 A 
BRANCH  22  24
ATOM     24  C   LIG    1      -39.263  76.717  25.087  0.00  0.00    +0.072 A 
ATOM     25  N   LIG    1      -40.162  77.272  25.940  0.00  0.00    -0.255 NA
ATOM     26  C   LIG    1      -40.772  78.424  25.574  0.00  0.00    +0.111 A 
ATOM     27  C   LIG    1      -40.527  79.078  24.382  0.00  0.00    +0.020 A 
ATOM     28  C   LIG    1      -39.624  78.501  23.503  0.00  0.00    +0.004 A 
ATOM     29  C   LIG    1      -39.006  77.299  23.845  0.00  0.00    +0.028 A 
ENDBRANCH  22  24
ENDBRANCH  14  16
ENDBRANCH   4  12
BRANCH   1  30
ATOM     30  C   LIG    1      -30.601  73.592  30.534  0.00  0.00    +0.236 C 
ATOM     31  N   LIG    1      -30.209  72.405  30.207  0.00  0.00    -0.241 NA
BRANCH  31  32
ATOM     32  C   LIG    1      -29.217  71.689  30.993  0.00  0.00    +0.160 C 
ATOM     33  C   LIG    1      -28.883  70.305  30.412  0.00  0.00    +0.189 C 
ATOM     34  O   LIG    1      -29.178  69.668  31.683  0.00  0.00    -0.375 OA
ATOM     35  C   LIG    1      -29.870  70.869  32.118  0.00  0.00    +0.189 C 
ENDBRANCH  31  32
BRANCH  30  36
ATOM     36  O   LIG    1      -30.185  74.290  31.607  0.00  0.00    -0.491 OA
ATOM     37  H   LIG    1      -29.749  73.745  32.271  0.00  0.00    +0.294 HD
ENDBRANCH  30  36
ENDBRANCH   1  30
TORSDOF 7
ENDMDL
MODEL 5
REMARK VINA RESULT:      -6.2      8.727     14.297
REMARK  Name = pdb/CHEMBL3910261.pdb
REMARK                            x       y       z     vdW  Elec       q    Type
REMARK                         _______ _______ _______ _____ _____    ______ ____
ROOT
ATOM      1  C   LIG    1      -31.339  87.057  30.386  0.00  0.00    +0.149 A 
ATOM      2  N   LIG    1      -32.166  87.867  29.710  0.00  0.00    -0.160 NA
ATOM      3  N   LIG    1      -33.165  87.073  29.248  0.00  0.00    -0.218 N 
ATOM      4  C   LIG    1      -32.906  85.716  29.512  0.00  0.00    +0.129 A 
ATOM      5  C   LIG    1      -31.755  85.710  30.264  0.00  0.00    +0.078 A 
ENDROOT
BRANCH   3   6
ATOM      6  C   LIG    1      -34.264  87.671  28.558  0.00  0.00    +0.067 A 
ATOM      7  C   LIG    1      -35.251  86.903  27.934  0.00  0.00    +0.028 A 
ATOM      8  C   LIG    1      -36.298  87.518  27.239  0.00  0.00    +0.002 A 
ATOM      9  C   LIG    1      -36.384  88.906  27.186  0.00  0.00    +0.000 A 
ATOM     10  C   LIG    1      -35.432  89.682  27.845  0.00  0.00    +0.002 A 
ATOM     11  C   LIG    1      -34.381  89.070  28.537  0.00  0.00    +0.028 A 
ENDBRANCH   3   6
BRANCH   4  12
ATOM     12  N   LIG    1      -33.607  84.589  29.061  0.00  0.00    -0.266 N 
ATOM     13  H   LIG    1      -33.405  84.255  28.127  0.00  0.00    +0.157 HD
ATOM     14  C   LIG    1      -34.562  83.852  29.852  0.00  0.00    +0.251 C 
ATOM     15  O   LIG    1      -34.794  84.153  31.013  0.00  0.00    -0.270 OA
BRANCH  14  16
ATOM     16  C   LIG    1      -35.224  82.672  29.232  0.00  0.00    +0.056 A 
ATOM     17  C   LIG    1      -36.595  82.549  29.057  0.00  0.00    +0.054 A 
ATOM     18 CL   LIG    1      -37.740  83.732  29.552  0.00  0.00    -0.083 Cl
ATOM     19  C   LIG    1      -37.129  81.384  28.507  0.00  0.00    +0.041 A 
ATOM     20  C   LIG    1      -36.304  80.313  28.137  0.00  0.00    +0.052 A 
ATOM     21 CL   LIG    1      -37.152  78.898  27.614  0.00  0.00    -0.083 Cl
ATOM     22  C   LIG    1      -34.905  80.399  28.268  0.00  0.00    +0.019 A 
ATOM     23  C   LIG    1      -34.396  81.597  28.842  0.00  0.00    +0.026 A 
BRANCH  22  24
ATOM     24  C   LIG    1      -33.940  79.335  27.886  0.00  0.00    +0.072 A 
ATOM     25  N   LIG    1      -33.269  79.572  26.729  0.00  0.00    -0.255 NA
ATOM     26  C   LIG    1      -32.377  78.649  26.301  0.00  0.00    +0.111 A 
ATOM     27  C   LIG    1      -32.098  77.478  26.978  0.00  0.00    +0.020 A 
ATOM     28  C   LIG    1      -32.797  77.227  28.148  0.00  0.00    +0.004 A 
ATOM     29  C   LIG    1      -33.743  78.149  28.593  0.00  0.00    +0.028 A 
ENDBRANCH  22  24
ENDBRANCH  14  16
ENDBRANCH   4  12
BRANCH   1  30
ATOM     30  C   LIG    1      -30.160  87.527  31.117  0.00  0.00    +0.236 C 
ATOM     31  N   LIG    1      -30.144  87.420  32.404  0.00  0.00    -0.241 NA
BRANCH  31  32
ATOM     32  C   LIG    1      -28.999  87.854  33.189  0.00  0.00    +0.160 C 
ATOM     33  C   LIG    1      -29.104  87.450  34.669  0.00  0.00    +0.189 C 
ATOM     34  O   LIG    1      -28.898  88.825  35.089  0.00  0.00    -0.375 OA
ATOM     35  C   LIG    1      -29.198  89.276  33.740  0.00  0.00    +0.189 C 
ENDBRANCH  31  32
BRANCH  30  36
ATOM     36  O   LIG    1      -29.177  88.051  30.359  0.00  0.00    -0.491 OA
ATOM     37  H   LIG    1      -29.504  88.552  29.604  0.00  0.00    +0.294 HD
ENDBRANCH  30  36
ENDBRANCH   1  30
TORSDOF 7
ENDMDL
MODEL 6
REMARK VINA RESULT:      -6.1     18.113     21.599
REMARK  Name = pdb/CHEMBL3910261.pdb
REMARK                            x       y       z     vdW  Elec       q    Type
REMARK                         _______ _______ _______ _____ _____    ______ ____
ROOT
ATOM      1  C   LIG    1      -24.439  78.991  14.409  0.00  0.00    +0.149 A 
ATOM      2  N   LIG    1      -23.450  78.208  14.862  0.00  0.00    -0.160 NA
ATOM      3  N   LIG    1      -22.325  78.966  14.805  0.00  0.00    -0.218 N 
ATOM      4  C   LIG    1      -22.569  80.201  14.179  0.00  0.00    +0.129 A 
ATOM      5  C   LIG    1      -23.925  80.227  13.953  0.00  0.00    +0.078 A 
ENDROOT
BRANCH   3   6
ATOM      6  C   LIG    1      -21.103  78.432  15.317  0.00  0.00    +0.067 A 
ATOM      7  C   LIG    1      -20.264  79.175  16.152  0.00  0.00    +0.028 A 
ATOM      8  C   LIG    1      -19.057  78.636  16.613  0.00  0.00    +0.002 A 
ATOM      9  C   LIG    1      -18.693  77.339  16.266  0.00  0.00    +0.000 A 
ATOM     10  C   LIG    1      -19.544  76.570  15.474  0.00  0.00    +0.002 A 
ATOM     11  C   LIG    1      -20.749  77.109  15.008  0.00  0.00    +0.028 A 
ENDBRANCH   3   6
BRANCH   4  12
ATOM     12  N   LIG    1      -21.645  81.181  13.791  0.00  0.00    -0.266 N 
ATOM     13  H   LIG    1      -21.304  81.153  12.838  0.00  0.00    +0.157 HD
ATOM     14  C   LIG    1      -21.181  82.248  14.644  0.00  0.00    +0.251 C 
ATOM     15  O   LIG    1      -21.611  82.389  15.779  0.00  0.00    -0.270 OA
BRANCH  14  16
ATOM     16  C   LIG    1      -20.199  83.217  14.084  0.00  0.00    +0.056 A 
ATOM     17  C   LIG    1      -18.852  82.940  13.896  0.00  0.00    +0.054 A 
ATOM     18 CL   LIG    1      -18.109  81.445  14.305  0.00  0.00    -0.083 Cl
ATOM     19  C   LIG    1      -17.996  83.927  13.407  0.00  0.00    +0.041 A 
ATOM     20  C   LIG    1      -18.468  85.213  13.112  0.00  0.00    +0.052 A 
ATOM     21 CL   LIG    1      -17.238  86.344  12.660  0.00  0.00    -0.083 Cl
ATOM     22  C   LIG    1      -19.830  85.536  13.259  0.00  0.00    +0.019 A 
ATOM     23  C   LIG    1      -20.671  84.509  13.769  0.00  0.00    +0.026 A 
BRANCH  22  24
ATOM     24  C   LIG    1      -20.437  86.857  12.953  0.00  0.00    +0.072 A 
ATOM     25  N   LIG    1      -21.072  86.922  11.755  0.00  0.00    -0.255 NA
ATOM     26  C   LIG    1      -21.646  88.093  11.391  0.00  0.00    +0.111 A 
ATOM     27  C   LIG    1      -21.632  89.230  12.174  0.00  0.00    +0.020 A 
ATOM     28  C   LIG    1      -20.966  89.171  13.388  0.00  0.00    +0.004 A 
ATOM     29  C   LIG    1      -20.342  87.984  13.770  0.00  0.00    +0.028 A 
ENDBRANCH  22  24
ENDBRANCH  14  16
ENDBRANCH   4  12
BRANCH   1  30
ATOM     30  C   LIG    1      -25.846  78.583  14.375  0.00  0.00    +0.236 C 
ATOM     31  N   LIG    1      -26.405  78.380  13.229  0.00  0.00    -0.241 NA
BRANCH  31  32
ATOM     32  C   LIG    1      -27.794  77.960  13.124  0.00  0.00    +0.160 C 
ATOM     33  C   LIG    1      -27.944  76.526  12.590  0.00  0.00    +0.189 C 
ATOM     34  O   LIG    1      -28.839  76.979  11.540  0.00  0.00    -0.375 OA
ATOM     35  C   LIG    1      -28.401  78.346  11.765  0.00  0.00    +0.189 C 
ENDBRANCH  31  32
BRANCH  30  36
ATOM     36  O   LIG    1      -26.445  78.462  15.575  0.00  0.00    -0.491 OA
ATOM     37  H   LIG    1      -27.376  78.223  15.515  0.00  0.00    +0.294 HD
ENDBRANCH  30  36
ENDBRANCH   1  30
TORSDOF 7
ENDMDL
MODEL 7
REMARK VINA RESULT:      -6.1      3.534      8.583
REMARK  Name = pdb/CHEMBL3910261.pdb
REMARK                            x       y       z     vdW  Elec       q    Type
REMARK                         _______ _______ _______ _____ _____    ______ ____
ROOT
ATOM      1  C   LIG    1      -38.009  76.980  26.196  0.00  0.00    +0.149 A 
ATOM      2  N   LIG    1      -39.104  76.786  25.446  0.00  0.00    -0.160 NA
ATOM      3  N   LIG    1      -39.067  75.482  25.071  0.00  0.00    -0.218 N 
ATOM      4  C   LIG    1      -37.866  74.868  25.467  0.00  0.00    +0.129 A 
ATOM      5  C   LIG    1      -37.205  75.817  26.210  0.00  0.00    +0.078 A 
ENDROOT
BRANCH   3   6
ATOM      6  C   LIG    1      -40.164  74.943  24.330  0.00  0.00    +0.067 A 
ATOM      7  C   LIG    1      -40.326  73.567  24.147  0.00  0.00    +0.028 A 
ATOM      8  C   LIG    1      -41.393  73.070  23.390  0.00  0.00    +0.002 A 
ATOM      9  C   LIG    1      -42.323  73.943  22.834  0.00  0.00    +0.000 A 
ATOM     10  C   LIG    1      -42.199  75.314  23.050  0.00  0.00    +0.002 A 
ATOM     11  C   LIG    1      -41.130  75.814  23.803  0.00  0.00    +0.028 A 
ENDBRANCH   3   6
BRANCH   4  12
ATOM     12  N   LIG    1      -37.386  73.593  25.133  0.00  0.00    -0.266 N 
ATOM     13  H   LIG    1      -36.884  73.496  24.259  0.00  0.00    +0.157 HD
ATOM     14  C   LIG    1      -37.521  72.426  25.970  0.00  0.00    +0.251 C 
ATOM     15  O   LIG    1      -38.044  72.490  27.072  0.00  0.00    -0.270 OA
BRANCH  14  16
ATOM     16  C   LIG    1      -36.953  71.141  25.477  0.00  0.00    +0.056 A 
ATOM     17  C   LIG    1      -35.845  70.516  26.032  0.00  0.00    +0.054 A 
ATOM     18 CL   LIG    1      -34.945  71.144  27.355  0.00  0.00    -0.083 Cl
ATOM     19  C   LIG    1      -35.355  69.336  25.473  0.00  0.00    +0.041 A 
ATOM     20  C   LIG    1      -35.954  68.767  24.342  0.00  0.00    +0.052 A 
ATOM     21 CL   LIG    1      -35.123  67.390  23.702  0.00  0.00    -0.083 Cl
ATOM     22  C   LIG    1      -37.097  69.346  23.759  0.00  0.00    +0.019 A 
ATOM     23  C   LIG    1      -37.562  70.555  24.347  0.00  0.00    +0.026 A 
BRANCH  22  24
ATOM     24  C   LIG    1      -37.822  68.814  22.576  0.00  0.00    +0.072 A 
ATOM     25  N   LIG    1      -38.985  68.177  22.868  0.00  0.00    -0.255 NA
ATOM     26  C   LIG    1      -39.706  67.652  21.850  0.00  0.00    +0.111 A 
ATOM     27  C   LIG    1      -39.332  67.733  20.523  0.00  0.00    +0.020 A 
ATOM     28  C   LIG    1      -38.135  68.365  20.226  0.00  0.00    +0.004 A 
ATOM     29  C   LIG    1      -37.361  68.887  21.262  0.00  0.00    +0.028 A 
ENDBRANCH  22  24
ENDBRANCH  14  16
ENDBRANCH   4  12
BRANCH   1  30
ATOM     30  C   LIG    1      -37.701  78.244  26.870  0.00  0.00    +0.236 C 
ATOM     31  N   LIG    1      -36.511  78.423  27.338  0.00  0.00    -0.241 NA
BRANCH  31  32
ATOM     32  C   LIG    1      -36.134  79.659  28.007  0.00  0.00    +0.160 C 
ATOM     33  C   LIG    1      -34.615  79.894  28.011  0.00  0.00    +0.189 C 
ATOM     34  O   LIG    1      -34.615  80.055  29.455  0.00  0.00    -0.375 OA
ATOM     35  C   LIG    1      -35.934  79.447  29.517  0.00  0.00    +0.189 C 
ENDBRANCH  31  32
BRANCH  30  36
ATOM     36  O   LIG    1      -38.719  79.123  26.950  0.00  0.00    -0.491 OA
ATOM     37  H   LIG    1      -39.515  78.827  26.497  0.00  0.00    +0.294 HD
ENDBRANCH  30  36
ENDBRANCH   1  30
TORSDOF 7
ENDMDL
MODEL 8
REMARK VINA RESULT:      -6.1      6.340      8.925
REMARK  Name = pdb/CHEMBL3910261.pdb
REMARK                            x       y       z     vdW  Elec       q    Type
REMARK                         _______ _______ _______ _____ _____    ______ ____
ROOT
ATOM      1  C   LIG    1      -34.916  66.935  22.274  0.00  0.00    +0.149 A 
ATOM      2  N   LIG    1      -34.501  67.138  23.533  0.00  0.00    -0.160 NA
ATOM      3  N   LIG    1      -35.337  68.076  24.049  0.00  0.00    -0.218 N 
ATOM      4  C   LIG    1      -36.210  68.580  23.069  0.00  0.00    +0.129 A 
ATOM      5  C   LIG    1      -35.959  67.831  21.944  0.00  0.00    +0.078 A 
ENDROOT
BRANCH   3   6
ATOM      6  C   LIG    1      -35.206  68.439  25.424  0.00  0.00    +0.067 A 
ATOM      7  C   LIG    1      -36.146  68.052  26.384  0.00  0.00    +0.028 A 
ATOM      8  C   LIG    1      -36.006  68.450  27.718  0.00  0.00    +0.002 A 
ATOM      9  C   LIG    1      -34.911  69.214  28.110  0.00  0.00    +0.000 A 
ATOM     10  C   LIG    1      -33.942  69.565  27.172  0.00  0.00    +0.002 A 
ATOM     11  C   LIG    1      -34.082  69.172  25.836  0.00  0.00    +0.028 A 
ENDBRANCH   3   6
BRANCH   4  12
ATOM     12  N   LIG    1      -37.102  69.658  23.165  0.00  0.00    -0.266 N 
ATOM     13  H   LIG    1      -36.814  70.541  22.761  0.00  0.00    +0.157 HD
ATOM     14  C   LIG    1      -38.413  69.582  23.762  0.00  0.00    +0.251 C 
ATOM     15  O   LIG    1      -38.854  68.529  24.196  0.00  0.00    -0.270 OA
BRANCH  14  16
ATOM     16  C   LIG    1      -39.245  70.816  23.785  0.00  0.00    +0.056 A 
ATOM     17  C   LIG    1      -40.487  70.929  23.175  0.00  0.00    +0.054 A 
ATOM     18 CL   LIG    1      -41.241  69.670  22.280  0.00  0.00    -0.083 Cl
ATOM     19  C   LIG    1      -41.175  72.142  23.210  0.00  0.00    +0.041 A 
ATOM     20  C   LIG    1      -40.629  73.267  23.841  0.00  0.00    +0.052 A 
ATOM     21 CL   LIG    1      -41.554  74.717  23.655  0.00  0.00    -0.083 Cl
ATOM     22  C   LIG    1      -39.386  73.196  24.497  0.00  0.00    +0.019 A 
ATOM     23  C   LIG    1      -38.707  71.948  24.433  0.00  0.00    +0.026 A 
BRANCH  22  24
ATOM     24  C   LIG    1      -38.728  74.319  25.215  0.00  0.00    +0.072 A 
ATOM     25  N   LIG    1      -38.827  74.258  26.568  0.00  0.00    -0.255 NA
ATOM     26  C   LIG    1      -38.264  75.248  27.301  0.00  0.00    +0.111 A 
ATOM     27  C   LIG    1      -37.584  76.317  26.752  0.00  0.00    +0.020 A 
ATOM     28  C   LIG    1      -37.501  76.390  25.371  0.00  0.00    +0.004 A 
ATOM     29  C   LIG    1      -38.099  75.399  24.595  0.00  0.00    +0.028 A 
ENDBRANCH  22  24
ENDBRANCH  14  16
ENDBRANCH   4  12
BRANCH   1  30
ATOM     30  C   LIG    1      -34.328  65.935  21.378  0.00  0.00    +0.236 C 
ATOM     31  N   LIG    1      -33.342  66.284  20.622  0.00  0.00    -0.241 NA
BRANCH  31  32
ATOM     32  C   LIG    1      -32.703  65.338  19.720  0.00  0.00    +0.160 C 
ATOM     33  C   LIG    1      -31.414  65.892  19.092  0.00  0.00    +0.189 C 
ATOM     34  O   LIG    1      -31.907  65.603  17.756  0.00  0.00    -0.375 OA
ATOM     35  C   LIG    1      -33.251  65.463  18.288  0.00  0.00    +0.189 C 
ENDBRANCH  31  32
BRANCH  30  36
ATOM     36  O   LIG    1      -34.893  64.714  21.421  0.00  0.00    -0.491 OA
ATOM     37  H   LIG    1      -35.380  64.490  20.620  0.00  0.00    +0.294 HD
ENDBRANCH  30  36
ENDBRANCH   1  30
TORSDOF 7
ENDMDL
MODEL 9
REMARK VINA RESULT:      -6.0      4.274      9.433
REMARK  Name = pdb/CHEMBL3910261.pdb
REMARK                            x       y       z     vdW  Elec       q    Type
REMARK                         _______ _______ _______ _____ _____    ______ ____
ROOT
ATOM      1  C   LIG    1      -37.468  80.046  27.632  0.00  0.00    +0.149 A 
ATOM      2  N   LIG    1      -36.506  79.302  28.197  0.00  0.00    -0.160 NA
ATOM      3  N   LIG    1      -36.672  78.048  27.704  0.00  0.00    -0.218 N 
ATOM      4  C   LIG    1      -37.837  77.955  26.922  0.00  0.00    +0.129 A 
ATOM      5  C   LIG    1      -38.328  79.237  26.854  0.00  0.00    +0.078 A 
ENDROOT
BRANCH   3   6
ATOM      6  C   LIG    1      -35.727  77.035  28.053  0.00  0.00    +0.067 A 
ATOM      7  C   LIG    1      -34.674  76.684  27.204  0.00  0.00    +0.028 A 
ATOM      8  C   LIG    1      -33.782  75.666  27.559  0.00  0.00    +0.002 A 
ATOM      9  C   LIG    1      -33.918  75.010  28.779  0.00  0.00    +0.000 A 
ATOM     10  C   LIG    1      -34.935  75.385  29.655  0.00  0.00    +0.002 A 
ATOM     11  C   LIG    1      -35.831  76.400  29.300  0.00  0.00    +0.028 A 
ENDBRANCH   3   6
BRANCH   4  12
ATOM     12  N   LIG    1      -38.434  76.809  26.378  0.00  0.00    -0.266 N 
ATOM     13  H   LIG    1      -39.224  76.413  26.872  0.00  0.00    +0.157 HD
ATOM     14  C   LIG    1      -38.025  76.184  25.143  0.00  0.00    +0.251 C 
ATOM     15  O   LIG    1      -37.132  76.656  24.456  0.00  0.00    -0.270 OA
BRANCH  14  16
ATOM     16  C   LIG    1      -38.762  74.972  24.694  0.00  0.00    +0.056 A 
ATOM     17  C   LIG    1      -40.027  74.996  24.122  0.00  0.00    +0.054 A 
ATOM     18 CL   LIG    1      -40.944  76.428  23.870  0.00  0.00    -0.083 Cl
ATOM     19  C   LIG    1      -40.660  73.803  23.773  0.00  0.00    +0.041 A 
ATOM     20  C   LIG    1      -40.048  72.564  24.004  0.00  0.00    +0.052 A 
ATOM     21 CL   LIG    1      -41.041  71.192  23.646  0.00  0.00    -0.083 Cl
ATOM     22  C   LIG    1      -38.755  72.487  24.555  0.00  0.00    +0.019 A 
ATOM     23  C   LIG    1      -38.144  73.721  24.909  0.00  0.00    +0.026 A 
BRANCH  22  24
ATOM     24  C   LIG    1      -38.007  71.230  24.818  0.00  0.00    +0.072 A 
ATOM     25  N   LIG    1      -37.683  71.030  26.122  0.00  0.00    -0.255 NA
ATOM     26  C   LIG    1      -36.992  69.913  26.450  0.00  0.00    +0.111 A 
ATOM     27  C   LIG    1      -36.602  68.954  25.535  0.00  0.00    +0.020 A 
ATOM     28  C   LIG    1      -36.915  69.168  24.203  0.00  0.00    +0.004 A 
ATOM     29  C   LIG    1      -37.600  70.326  23.837  0.00  0.00    +0.028 A 
ENDBRANCH  22  24
ENDBRANCH  14  16
ENDBRANCH   4  12
BRANCH   1  30
ATOM     30  C   LIG    1      -37.601  81.491  27.837  0.00  0.00    +0.236 C 
ATOM     31  N   LIG    1      -36.561  82.164  28.202  0.00  0.00    -0.241 NA
BRANCH  31  32
ATOM     32  C   LIG    1      -36.620  83.603  28.409  0.00  0.00    +0.160 C 
ATOM     33  C   LIG    1      -36.190  84.401  27.167  0.00  0.00    +0.189 C 
ATOM     34  O   LIG    1      -35.209  85.138  27.945  0.00  0.00    -0.375 OA
ATOM     35  C   LIG    1      -35.308  84.144  29.001  0.00  0.00    +0.189 C 
ENDBRANCH  31  32
BRANCH  30  36
ATOM     36  O   LIG    1      -38.832  81.996  27.627  0.00  0.00    -0.491 OA
ATOM     37  H   LIG    1      -38.826  82.816  27.122  0.00  0.00    +0.294 HD
ENDBRANCH  30  36
ENDBRANCH   1  30
TORSDOF 7
ENDMDL
