MODEL 1
REMARK VINA RESULT:      -6.2      0.000      0.000
REMARK  Name = pdb/CHEMBL3934726.pdb
REMARK                            x       y       z     vdW  Elec       q    Type
REMARK                         _______ _______ _______ _____ _____    ______ ____
ROOT
ATOM      1  C   LIG    1      -26.840  83.765  36.856  0.00  0.00    +0.323 A 
ATOM      2  N   LIG    1      -28.044  83.180  36.988  0.00  0.00    -0.201 NA
ATOM      3  C   LIG    1      -29.083  83.748  36.333  0.00  0.00    +0.145 A 
ATOM      4  C   LIG    1      -28.983  84.870  35.536  0.00  0.00    +0.105 A 
ATOM      5  C   LIG    1      -27.685  85.351  35.452  0.00  0.00    +0.145 A 
ATOM      6  N   LIG    1      -26.598  84.828  36.077  0.00  0.00    -0.201 NA
ENDROOT
BRANCH   4   7
ATOM      7  N   LIG    1      -30.030  85.598  34.937  0.00  0.00    -0.196 NA
ATOM      8  C   LIG    1      -30.660  85.210  33.879  0.00  0.00    +0.285 C 
BRANCH   8   9
ATOM      9  N   LIG    1      -31.664  85.939  33.295  0.00  0.00    -0.268 N 
ATOM     10  H   LIG    1      -32.341  86.275  33.984  0.00  0.00    +0.157 HD
BRANCH   9  11
ATOM     11  C   LIG    1      -32.258  85.697  32.036  0.00  0.00    +0.062 A 
ATOM     12  C   LIG    1      -31.982  86.463  30.885  0.00  0.00    +0.127 A 
ATOM     13  C   LIG    1      -32.562  86.131  29.651  0.00  0.00    +0.031 A 
ATOM     14  C   LIG    1      -33.410  85.030  29.543  0.00  0.00    +0.014 A 
ATOM     15  C   LIG    1      -33.724  84.265  30.670  0.00  0.00    +0.057 A 
ATOM     16  C   LIG    1      -33.167  84.625  31.905  0.00  0.00    +0.037 A 
BRANCH  15  17
ATOM     17  C   LIG    1      -34.617  83.056  30.531  0.00  0.00    +0.417 C 
ATOM     18  F   LIG    1      -34.144  82.185  29.596  0.00  0.00    -0.166 F 
ATOM     19  F   LIG    1      -35.877  83.381  30.142  0.00  0.00    -0.166 F 
ATOM     20  F   LIG    1      -34.743  82.338  31.680  0.00  0.00    -0.166 F 
ENDBRANCH  15  17
BRANCH  12  21
ATOM     21  S   LIG    1      -30.887  87.876  30.926  0.00  0.00    +0.062 S 
ATOM     22  O   LIG    1      -31.090  88.584  29.689  0.00  0.00    -0.153 OA
ATOM     23  O   LIG    1      -29.558  87.408  31.316  0.00  0.00    -0.153 OA
BRANCH  21  24
ATOM     24  N   LIG    1      -31.497  88.802  32.210  0.00  0.00    -0.183 NA
ATOM     25  C   LIG    1      -32.756  89.522  31.947  0.00  0.00    +0.131 C 
ATOM     26  C   LIG    1      -30.545  89.586  33.016  0.00  0.00    +0.131 C 
ENDBRANCH  21  24
ENDBRANCH  12  21
ENDBRANCH   9  11
ENDBRANCH   8   9
BRANCH   8  27
ATOM     27  O   LIG    1      -30.341  84.070  33.233  0.00  0.00    -0.481 OA
ATOM     28  H   LIG    1      -29.598  84.221  32.630  0.00  0.00    +0.295 HD
ENDBRANCH   8  27
ENDBRANCH   4   7
BRANCH   1  29
ATOM     29  O   LIG    1      -25.739  83.259  37.550  0.00  0.00    -0.424 OA
BRANCH  29  33
ATOM     30  C   LIG    1      -23.357  80.553  35.380  0.00  0.00    -0.010 A 
ATOM     31  C   LIG    1      -22.877  81.835  35.688  0.00  0.00    +0.012 A 
ATOM     32  C   LIG    1      -23.633  82.729  36.448  0.00  0.00    +0.047 A 
ATOM     33  C   LIG    1      -24.918  82.389  36.865  0.00  0.00    +0.132 A 
ATOM     34  C   LIG    1      -25.392  81.101  36.625  0.00  0.00    +0.047 A 
ATOM     35  C   LIG    1      -24.618  80.192  35.887  0.00  0.00    +0.012 A 
BRANCH  30  38
ATOM     36  C   LIG    1      -21.781  77.926  32.834  0.00  0.00    +0.156 A 
ATOM     37  S   LIG    1      -23.358  78.522  33.421  0.00  0.00    -0.053 S 
ATOM     38  C   LIG    1      -22.575  79.618  34.557  0.00  0.00    +0.038 A 
ATOM     39  C   LIG    1      -21.242  79.455  34.510  0.00  0.00    +0.100 A 
ATOM     40  N   LIG    1      -20.812  78.519  33.602  0.00  0.00    -0.342 N 
ATOM     41  H   LIG    1      -19.836  78.393  33.380  0.00  0.00    +0.167 HD
BRANCH  36  42
ATOM     42  N   LIG    1      -21.565  77.115  31.862  0.00  0.00    -0.228 NA
BRANCH  42  43
ATOM     43  C   LIG    1      -22.695  76.574  31.108  0.00  0.00    +0.130 C 
BRANCH  43  45
ATOM     44  C   LIG    1      -20.941  76.718  29.308  0.00  0.00    +0.005 C 
ATOM     45  C   LIG    1      -22.431  76.756  29.613  0.00  0.00    +0.017 C 
ENDBRANCH  43  45
ENDBRANCH  42  43
ENDBRANCH  36  42
ENDBRANCH  30  38
ENDBRANCH  29  33
ENDBRANCH   1  29
TORSDOF 13
ENDMDL
MODEL 2
REMARK VINA RESULT:      -6.1      1.978      2.735
REMARK  Name = pdb/CHEMBL3934726.pdb
REMARK                            x       y       z     vdW  Elec       q    Type
REMARK                         _______ _______ _______ _____ _____    ______ ____
ROOT
ATOM      1  C   LIG    1      -26.154  82.457  37.178  0.00  0.00    +0.323 A 
ATOM      2  N   LIG    1      -25.768  83.600  36.583  0.00  0.00    -0.201 NA
ATOM      3  C   LIG    1      -26.736  84.494  36.271  0.00  0.00    +0.145 A 
ATOM      4  C   LIG    1      -28.079  84.312  36.535  0.00  0.00    +0.105 A 
ATOM      5  C   LIG    1      -28.338  83.115  37.184  0.00  0.00    +0.145 A 
ATOM      6  N   LIG    1      -27.416  82.179  37.531  0.00  0.00    -0.201 NA
ENDROOT
BRANCH   4   7
ATOM      7  N   LIG    1      -29.155  85.122  36.123  0.00  0.00    -0.196 NA
ATOM      8  C   LIG    1      -29.693  85.061  34.951  0.00  0.00    +0.285 C 
BRANCH   8   9
ATOM      9  N   LIG    1      -30.728  85.871  34.559  0.00  0.00    -0.268 N 
ATOM     10  H   LIG    1      -31.607  85.612  35.013  0.00  0.00    +0.157 HD
BRANCH   9  11
ATOM     11  C   LIG    1      -30.931  86.412  33.269  0.00  0.00    +0.062 A 
ATOM     12  C   LIG    1      -30.313  87.595  32.816  0.00  0.00    +0.127 A 
ATOM     13  C   LIG    1      -30.513  88.045  31.501  0.00  0.00    +0.031 A 
ATOM     14  C   LIG    1      -31.315  87.321  30.620  0.00  0.00    +0.014 A 
ATOM     15  C   LIG    1      -31.961  86.158  31.047  0.00  0.00    +0.057 A 
ATOM     16  C   LIG    1      -31.784  85.734  32.371  0.00  0.00    +0.037 A 
BRANCH  15  17
ATOM     17  C   LIG    1      -32.799  85.365  30.072  0.00  0.00    +0.417 C 
ATOM     18  F   LIG    1      -33.017  84.095  30.512  0.00  0.00    -0.166 F 
ATOM     19  F   LIG    1      -32.210  85.249  28.854  0.00  0.00    -0.166 F 
ATOM     20  F   LIG    1      -34.031  85.901  29.852  0.00  0.00    -0.166 F 
ENDBRANCH  15  17
BRANCH  12  21
ATOM     21  S   LIG    1      -29.249  88.573  33.869  0.00  0.00    +0.062 S 
ATOM     22  O   LIG    1      -29.162  89.876  33.260  0.00  0.00    -0.153 OA
ATOM     23  O   LIG    1      -28.046  87.792  34.149  0.00  0.00    -0.153 OA
BRANCH  21  24
ATOM     24  N   LIG    1      -30.131  88.685  35.314  0.00  0.00    -0.183 NA
ATOM     25  C   LIG    1      -31.303  89.580  35.288  0.00  0.00    +0.131 C 
ATOM     26  C   LIG    1      -29.383  88.756  36.581  0.00  0.00    +0.131 C 
ENDBRANCH  21  24
ENDBRANCH  12  21
ENDBRANCH   9  11
ENDBRANCH   8   9
BRANCH   8  27
ATOM     27  O   LIG    1      -29.240  84.221  33.999  0.00  0.00    -0.481 OA
ATOM     28  H   LIG    1      -28.803  84.718  33.291  0.00  0.00    +0.295 HD
ENDBRANCH   8  27
ENDBRANCH   4   7
BRANCH   1  29
ATOM     29  O   LIG    1      -25.209  81.473  37.475  0.00  0.00    -0.424 OA
BRANCH  29  33
ATOM     30  C   LIG    1      -23.955  79.146  34.201  0.00  0.00    -0.010 A 
ATOM     31  C   LIG    1      -23.165  80.210  34.661  0.00  0.00    +0.012 A 
ATOM     32  C   LIG    1      -23.541  80.964  35.775  0.00  0.00    +0.047 A 
ATOM     33  C   LIG    1      -24.751  80.713  36.420  0.00  0.00    +0.132 A 
ATOM     34  C   LIG    1      -25.521  79.623  36.020  0.00  0.00    +0.047 A 
ATOM     35  C   LIG    1      -25.127  78.848  34.919  0.00  0.00    +0.012 A 
BRANCH  30  38
ATOM     36  C   LIG    1      -22.379  76.939  31.283  0.00  0.00    +0.156 A 
ATOM     37  S   LIG    1      -21.918  77.830  32.759  0.00  0.00    -0.053 S 
ATOM     38  C   LIG    1      -23.576  78.368  33.012  0.00  0.00    +0.038 A 
ATOM     39  C   LIG    1      -24.356  77.946  32.002  0.00  0.00    +0.100 A 
ATOM     40  N   LIG    1      -23.705  77.201  31.050  0.00  0.00    -0.342 N 
ATOM     41  H   LIG    1      -24.198  76.722  30.312  0.00  0.00    +0.167 HD
BRANCH  36  42
ATOM     42  N   LIG    1      -21.637  76.172  30.569  0.00  0.00    -0.228 NA
BRANCH  42  43
ATOM     43  C   LIG    1      -20.639  76.759  29.675  0.00  0.00    +0.130 C 
BRANCH  43  45
ATOM     44  C   LIG    1      -19.132  75.288  31.055  0.00  0.00    +0.005 C 
ATOM     45  C   LIG    1      -19.254  76.606  30.304  0.00  0.00    +0.017 C 
ENDBRANCH  43  45
ENDBRANCH  42  43
ENDBRANCH  36  42
ENDBRANCH  30  38
ENDBRANCH  29  33
ENDBRANCH   1  29
TORSDOF 13
ENDMDL
MODEL 3
REMARK VINA RESULT:      -6.1      2.972      3.839
REMARK  Name = pdb/CHEMBL3934726.pdb
REMARK                            x       y       z     vdW  Elec       q    Type
REMARK                         _______ _______ _______ _____ _____    ______ ____
ROOT
ATOM      1  C   LIG    1      -26.693  83.685  37.000  0.00  0.00    +0.323 A 
ATOM      2  N   LIG    1      -27.881  83.106  37.252  0.00  0.00    -0.201 NA
ATOM      3  C   LIG    1      -28.966  83.628  36.633  0.00  0.00    +0.145 A 
ATOM      4  C   LIG    1      -28.929  84.696  35.761  0.00  0.00    +0.105 A 
ATOM      5  C   LIG    1      -27.643  85.174  35.558  0.00  0.00    +0.145 A 
ATOM      6  N   LIG    1      -26.512  84.696  36.139  0.00  0.00    -0.201 NA
ENDROOT
BRANCH   4   7
ATOM      7  N   LIG    1      -30.019  85.380  35.188  0.00  0.00    -0.196 NA
ATOM      8  C   LIG    1      -30.609  85.009  34.101  0.00  0.00    +0.285 C 
BRANCH   8   9
ATOM      9  N   LIG    1      -31.657  85.697  33.545  0.00  0.00    -0.268 N 
ATOM     10  H   LIG    1      -32.433  85.078  33.304  0.00  0.00    +0.157 HD
BRANCH   9  11
ATOM     11  C   LIG    1      -31.567  86.808  32.677  0.00  0.00    +0.062 A 
ATOM     12  C   LIG    1      -32.059  86.805  31.356  0.00  0.00    +0.127 A 
ATOM     13  C   LIG    1      -31.989  87.963  30.565  0.00  0.00    +0.031 A 
ATOM     14  C   LIG    1      -31.445  89.139  31.081  0.00  0.00    +0.014 A 
ATOM     15  C   LIG    1      -30.926  89.167  32.379  0.00  0.00    +0.057 A 
ATOM     16  C   LIG    1      -30.968  87.997  33.148  0.00  0.00    +0.037 A 
BRANCH  15  17
ATOM     17  C   LIG    1      -30.371  90.457  32.936  0.00  0.00    +0.417 C 
ATOM     18  F   LIG    1      -30.799  90.681  34.209  0.00  0.00    -0.166 F 
ATOM     19  F   LIG    1      -30.750  91.542  32.212  0.00  0.00    -0.166 F 
ATOM     20  F   LIG    1      -29.012  90.486  32.987  0.00  0.00    -0.166 F 
ENDBRANCH  15  17
BRANCH  12  21
ATOM     21  S   LIG    1      -32.795  85.350  30.621  0.00  0.00    +0.062 S 
ATOM     22  O   LIG    1      -31.932  84.246  30.954  0.00  0.00    -0.153 OA
ATOM     23  O   LIG    1      -33.118  85.660  29.230  0.00  0.00    -0.153 OA
BRANCH  21  24
ATOM     24  N   LIG    1      -34.261  85.191  31.460  0.00  0.00    -0.183 NA
ATOM     25  C   LIG    1      -35.031  83.963  31.188  0.00  0.00    +0.131 C 
ATOM     26  C   LIG    1      -35.114  86.384  31.604  0.00  0.00    +0.131 C 
ENDBRANCH  21  24
ENDBRANCH  12  21
ENDBRANCH   9  11
ENDBRANCH   8   9
BRANCH   8  27
ATOM     27  O   LIG    1      -30.204  83.932  33.398  0.00  0.00    -0.481 OA
ATOM     28  H   LIG    1      -30.710  83.856  32.576  0.00  0.00    +0.295 HD
ENDBRANCH   8  27
ENDBRANCH   4   7
BRANCH   1  29
ATOM     29  O   LIG    1      -25.544  83.228  37.650  0.00  0.00    -0.424 OA
BRANCH  29  33
ATOM     30  C   LIG    1      -23.202  80.530  35.427  0.00  0.00    -0.010 A 
ATOM     31  C   LIG    1      -22.724  81.817  35.714  0.00  0.00    +0.012 A 
ATOM     32  C   LIG    1      -23.466  82.710  36.491  0.00  0.00    +0.047 A 
ATOM     33  C   LIG    1      -24.736  82.361  36.946  0.00  0.00    +0.132 A 
ATOM     34  C   LIG    1      -25.205  81.067  36.727  0.00  0.00    +0.047 A 
ATOM     35  C   LIG    1      -24.445  80.161  35.972  0.00  0.00    +0.012 A 
BRANCH  30  38
ATOM     36  C   LIG    1      -21.651  77.972  32.796  0.00  0.00    +0.156 A 
ATOM     37  S   LIG    1      -23.216  78.647  33.326  0.00  0.00    -0.053 S 
ATOM     38  C   LIG    1      -22.436  79.597  34.588  0.00  0.00    +0.038 A 
ATOM     39  C   LIG    1      -21.118  79.334  34.613  0.00  0.00    +0.100 A 
ATOM     40  N   LIG    1      -20.696  78.434  33.666  0.00  0.00    -0.342 N 
ATOM     41  H   LIG    1      -19.719  78.247  33.498  0.00  0.00    +0.167 HD
BRANCH  36  42
ATOM     42  N   LIG    1      -21.428  77.217  31.782  0.00  0.00    -0.228 NA
BRANCH  42  43
ATOM     43  C   LIG    1      -20.242  77.446  30.957  0.00  0.00    +0.130 C 
BRANCH  43  45
ATOM     44  C   LIG    1      -21.894  76.325  29.424  0.00  0.00    +0.005 C 
ATOM     45  C   LIG    1      -20.542  77.016  29.521  0.00  0.00    +0.017 C 
ENDBRANCH  43  45
ENDBRANCH  42  43
ENDBRANCH  36  42
ENDBRANCH  30  38
ENDBRANCH  29  33
ENDBRANCH   1  29
TORSDOF 13
ENDMDL
MODEL 4
REMARK VINA RESULT:      -6.0      2.715      3.713
REMARK  Name = pdb/CHEMBL3934726.pdb
REMARK                            x       y       z     vdW  Elec       q    Type
REMARK                         _______ _______ _______ _____ _____    ______ ____
ROOT
ATOM      1  C   LIG    1      -26.664  83.999  37.096  0.00  0.00    +0.323 A 
ATOM      2  N   LIG    1      -26.644  84.725  35.963  0.00  0.00    -0.201 NA
ATOM      3  C   LIG    1      -27.839  85.071  35.430  0.00  0.00    +0.145 A 
ATOM      4  C   LIG    1      -29.063  84.741  35.976  0.00  0.00    +0.105 A 
ATOM      5  C   LIG    1      -28.943  84.028  37.159  0.00  0.00    +0.145 A 
ATOM      6  N   LIG    1      -27.780  83.653  37.752  0.00  0.00    -0.201 NA
ENDROOT
BRANCH   4   7
ATOM      7  N   LIG    1      -30.339  84.942  35.415  0.00  0.00    -0.196 NA
ATOM      8  C   LIG    1      -30.762  84.339  34.355  0.00  0.00    +0.285 C 
BRANCH   8   9
ATOM      9  N   LIG    1      -32.001  84.560  33.811  0.00  0.00    -0.268 N 
ATOM     10  H   LIG    1      -32.633  83.774  33.972  0.00  0.00    +0.157 HD
BRANCH   9  11
ATOM     11  C   LIG    1      -32.279  85.231  32.599  0.00  0.00    +0.062 A 
ATOM     12  C   LIG    1      -33.470  85.053  31.866  0.00  0.00    +0.127 A 
ATOM     13  C   LIG    1      -33.707  85.795  30.698  0.00  0.00    +0.031 A 
ATOM     14  C   LIG    1      -32.774  86.731  30.254  0.00  0.00    +0.014 A 
ATOM     15  C   LIG    1      -31.573  86.914  30.945  0.00  0.00    +0.057 A 
ATOM     16  C   LIG    1      -31.329  86.143  32.089  0.00  0.00    +0.037 A 
BRANCH  15  17
ATOM     17  C   LIG    1      -30.587  87.955  30.471  0.00  0.00    +0.417 C 
ATOM     18  F   LIG    1      -29.617  87.410  29.687  0.00  0.00    -0.166 F 
ATOM     19  F   LIG    1      -29.943  88.567  31.499  0.00  0.00    -0.166 F 
ATOM     20  F   LIG    1      -31.155  88.945  29.731  0.00  0.00    -0.166 F 
ENDBRANCH  15  17
BRANCH  12  21
ATOM     21  S   LIG    1      -34.732  83.893  32.374  0.00  0.00    +0.062 S 
ATOM     22  O   LIG    1      -35.722  84.657  33.088  0.00  0.00    -0.153 OA
ATOM     23  O   LIG    1      -34.070  82.749  32.999  0.00  0.00    -0.153 OA
BRANCH  21  24
ATOM     24  N   LIG    1      -35.386  83.360  30.902  0.00  0.00    -0.183 NA
ATOM     25  C   LIG    1      -36.840  83.543  30.737  0.00  0.00    +0.131 C 
ATOM     26  C   LIG    1      -34.901  82.084  30.347  0.00  0.00    +0.131 C 
ENDBRANCH  21  24
ENDBRANCH  12  21
ENDBRANCH   9  11
ENDBRANCH   8   9
BRANCH   8  27
ATOM     27  O   LIG    1      -29.990  83.472  33.669  0.00  0.00    -0.481 OA
ATOM     28  H   LIG    1      -29.194  83.254  34.177  0.00  0.00    +0.295 HD
ENDBRANCH   8  27
ENDBRANCH   4   7
BRANCH   1  29
ATOM     29  O   LIG    1      -25.465  83.564  37.666  0.00  0.00    -0.424 OA
BRANCH  29  33
ATOM     30  C   LIG    1      -23.399  80.657  35.434  0.00  0.00    -0.010 A 
ATOM     31  C   LIG    1      -22.811  81.904  35.694  0.00  0.00    +0.012 A 
ATOM     32  C   LIG    1      -23.462  82.863  36.473  0.00  0.00    +0.047 A 
ATOM     33  C   LIG    1      -24.746  82.625  36.958  0.00  0.00    +0.132 A 
ATOM     34  C   LIG    1      -25.324  81.372  36.765  0.00  0.00    +0.047 A 
ATOM     35  C   LIG    1      -24.656  80.398  36.008  0.00  0.00    +0.012 A 
BRANCH  30  38
ATOM     36  C   LIG    1      -22.158  77.845  32.899  0.00  0.00    +0.156 A 
ATOM     37  S   LIG    1      -23.651  78.521  33.608  0.00  0.00    -0.053 S 
ATOM     38  C   LIG    1      -22.729  79.654  34.592  0.00  0.00    +0.038 A 
ATOM     39  C   LIG    1      -21.412  79.448  34.420  0.00  0.00    +0.100 A 
ATOM     40  N   LIG    1      -21.101  78.450  33.529  0.00  0.00    -0.342 N 
ATOM     41  H   LIG    1      -20.157  78.282  33.218  0.00  0.00    +0.167 HD
BRANCH  36  42
ATOM     42  N   LIG    1      -22.064  76.975  31.960  0.00  0.00    -0.228 NA
BRANCH  42  43
ATOM     43  C   LIG    1      -23.211  76.725  31.088  0.00  0.00    +0.130 C 
BRANCH  43  45
ATOM     44  C   LIG    1      -21.437  76.579  29.308  0.00  0.00    +0.005 C 
ATOM     45  C   LIG    1      -22.833  77.080  29.650  0.00  0.00    +0.017 C 
ENDBRANCH  43  45
ENDBRANCH  42  43
ENDBRANCH  36  42
ENDBRANCH  30  38
ENDBRANCH  29  33
ENDBRANCH   1  29
TORSDOF 13
ENDMDL
MODEL 5
REMARK VINA RESULT:      -6.0      8.200     13.381
REMARK  Name = pdb/CHEMBL3934726.pdb
REMARK                            x       y       z     vdW  Elec       q    Type
REMARK                         _______ _______ _______ _____ _____    ______ ____
ROOT
ATOM      1  C   LIG    1      -29.529  74.871  32.394  0.00  0.00    +0.323 A 
ATOM      2  N   LIG    1      -28.322  74.362  32.086  0.00  0.00    -0.201 NA
ATOM      3  C   LIG    1      -27.262  75.202  32.145  0.00  0.00    +0.145 A 
ATOM      4  C   LIG    1      -27.340  76.531  32.510  0.00  0.00    +0.105 A 
ATOM      5  C   LIG    1      -28.630  76.919  32.840  0.00  0.00    +0.145 A 
ATOM      6  N   LIG    1      -29.734  76.128  32.809  0.00  0.00    -0.201 NA
ENDROOT
BRANCH   4   7
ATOM      7  N   LIG    1      -26.317  77.498  32.465  0.00  0.00    -0.196 NA
ATOM      8  C   LIG    1      -25.379  77.594  33.345  0.00  0.00    +0.285 C 
BRANCH   8   9
ATOM      9  N   LIG    1      -24.401  78.554  33.298  0.00  0.00    -0.268 N 
ATOM     10  H   LIG    1      -24.766  79.454  32.981  0.00  0.00    +0.157 HD
BRANCH   9  11
ATOM     11  C   LIG    1      -23.051  78.362  32.925  0.00  0.00    +0.062 A 
ATOM     12  C   LIG    1      -21.959  78.754  33.726  0.00  0.00    +0.127 A 
ATOM     13  C   LIG    1      -20.643  78.482  33.321  0.00  0.00    +0.031 A 
ATOM     14  C   LIG    1      -20.397  77.806  32.126  0.00  0.00    +0.014 A 
ATOM     15  C   LIG    1      -21.457  77.427  31.298  0.00  0.00    +0.057 A 
ATOM     16  C   LIG    1      -22.766  77.734  31.693  0.00  0.00    +0.037 A 
BRANCH  15  17
ATOM     17  C   LIG    1      -21.177  76.666  30.024  0.00  0.00    +0.417 C 
ATOM     18  F   LIG    1      -20.789  75.385  30.277  0.00  0.00    -0.166 F 
ATOM     19  F   LIG    1      -20.179  77.226  29.292  0.00  0.00    -0.166 F 
ATOM     20  F   LIG    1      -22.254  76.574  29.197  0.00  0.00    -0.166 F 
ENDBRANCH  15  17
BRANCH  12  21
ATOM     21  S   LIG    1      -22.182  79.603  35.284  0.00  0.00    +0.062 S 
ATOM     22  O   LIG    1      -22.889  80.822  34.986  0.00  0.00    -0.153 OA
ATOM     23  O   LIG    1      -20.894  79.630  35.974  0.00  0.00    -0.153 OA
BRANCH  21  24
ATOM     24  N   LIG    1      -23.201  78.560  36.152  0.00  0.00    -0.183 NA
ATOM     25  C   LIG    1      -24.155  79.206  37.073  0.00  0.00    +0.131 C 
ATOM     26  C   LIG    1      -22.624  77.320  36.700  0.00  0.00    +0.131 C 
ENDBRANCH  21  24
ENDBRANCH  12  21
ENDBRANCH   9  11
ENDBRANCH   8   9
BRANCH   8  27
ATOM     27  O   LIG    1      -25.317  76.777  34.417  0.00  0.00    -0.481 OA
ATOM     28  H   LIG    1      -26.197  76.432  34.629  0.00  0.00    +0.295 HD
ENDBRANCH   8  27
ENDBRANCH   4   7
BRANCH   1  29
ATOM     29  O   LIG    1      -30.668  74.069  32.299  0.00  0.00    -0.424 OA
BRANCH  29  33
ATOM     30  C   LIG    1      -33.462  75.008  29.296  0.00  0.00    -0.010 A 
ATOM     31  C   LIG    1      -32.097  75.270  29.104  0.00  0.00    +0.012 A 
ATOM     32  C   LIG    1      -31.150  74.922  30.070  0.00  0.00    +0.047 A 
ATOM     33  C   LIG    1      -31.550  74.361  31.281  0.00  0.00    +0.132 A 
ATOM     34  C   LIG    1      -32.892  74.035  31.468  0.00  0.00    +0.047 A 
ATOM     35  C   LIG    1      -33.839  74.358  30.485  0.00  0.00    +0.012 A 
BRANCH  30  38
ATOM     36  C   LIG    1      -36.582  75.704  26.919  0.00  0.00    +0.156 A 
ATOM     37  S   LIG    1      -36.036  74.602  28.213  0.00  0.00    -0.053 S 
ATOM     38  C   LIG    1      -34.466  75.397  28.294  0.00  0.00    +0.038 A 
ATOM     39  C   LIG    1      -34.385  76.356  27.355  0.00  0.00    +0.100 A 
ATOM     40  N   LIG    1      -35.516  76.502  26.590  0.00  0.00    -0.342 N 
ATOM     41  H   LIG    1      -35.631  77.264  25.939  0.00  0.00    +0.167 HD
BRANCH  36  42
ATOM     42  N   LIG    1      -37.752  75.775  26.395  0.00  0.00    -0.228 NA
BRANCH  42  43
ATOM     43  C   LIG    1      -37.919  75.524  24.964  0.00  0.00    +0.130 C 
BRANCH  43  45
ATOM     44  C   LIG    1      -40.056  74.415  24.226  0.00  0.00    +0.005 C 
ATOM     45  C   LIG    1      -38.652  74.196  24.772  0.00  0.00    +0.017 C 
ENDBRANCH  43  45
ENDBRANCH  42  43
ENDBRANCH  36  42
ENDBRANCH  30  38
ENDBRANCH  29  33
ENDBRANCH   1  29
TORSDOF 13
ENDMDL
MODEL 6
REMARK VINA RESULT:      -5.8     17.339     20.536
REMARK  Name = pdb/CHEMBL3934726.pdb
REMARK                            x       y       z     vdW  Elec       q    Type
REMARK                         _______ _______ _______ _____ _____    ______ ____
ROOT
ATOM      1  C   LIG    1      -36.353  66.483  19.262  0.00  0.00    +0.323 A 
ATOM      2  N   LIG    1      -36.444  65.774  20.401  0.00  0.00    -0.201 NA
ATOM      3  C   LIG    1      -37.242  66.268  21.376  0.00  0.00    +0.145 A 
ATOM      4  C   LIG    1      -37.971  67.435  21.271  0.00  0.00    +0.105 A 
ATOM      5  C   LIG    1      -37.820  68.048  20.036  0.00  0.00    +0.145 A 
ATOM      6  N   LIG    1      -37.042  67.605  19.014  0.00  0.00    -0.201 NA
ENDROOT
BRANCH   4   7
ATOM      7  N   LIG    1      -38.710  68.084  22.279  0.00  0.00    -0.196 NA
ATOM      8  C   LIG    1      -38.237  69.029  23.021  0.00  0.00    +0.285 C 
BRANCH   8   9
ATOM      9  N   LIG    1      -38.963  69.638  24.013  0.00  0.00    -0.268 N 
ATOM     10  H   LIG    1      -39.535  68.968  24.532  0.00  0.00    +0.157 HD
BRANCH   9  11
ATOM     11  C   LIG    1      -39.559  70.918  23.954  0.00  0.00    +0.062 A 
ATOM     12  C   LIG    1      -39.006  72.062  24.563  0.00  0.00    +0.127 A 
ATOM     13  C   LIG    1      -39.620  73.316  24.417  0.00  0.00    +0.031 A 
ATOM     14  C   LIG    1      -40.779  73.450  23.654  0.00  0.00    +0.014 A 
ATOM     15  C   LIG    1      -41.366  72.331  23.058  0.00  0.00    +0.057 A 
ATOM     16  C   LIG    1      -40.766  71.077  23.238  0.00  0.00    +0.037 A 
BRANCH  15  17
ATOM     17  C   LIG    1      -42.602  72.496  22.206  0.00  0.00    +0.417 C 
ATOM     18  F   LIG    1      -43.075  73.773  22.248  0.00  0.00    -0.166 F 
ATOM     19  F   LIG    1      -43.625  71.700  22.612  0.00  0.00    -0.166 F 
ATOM     20  F   LIG    1      -42.398  72.217  20.890  0.00  0.00    -0.166 F 
ENDBRANCH  15  17
BRANCH  12  21
ATOM     21  S   LIG    1      -37.509  71.987  25.539  0.00  0.00    +0.062 S 
ATOM     22  O   LIG    1      -37.352  73.286  26.143  0.00  0.00    -0.153 OA
ATOM     23  O   LIG    1      -36.454  71.413  24.706  0.00  0.00    -0.153 OA
BRANCH  21  24
ATOM     24  N   LIG    1      -37.885  70.850  26.740  0.00  0.00    -0.183 NA
ATOM     25  C   LIG    1      -39.067  71.152  27.569  0.00  0.00    +0.131 C 
ATOM     26  C   LIG    1      -36.777  70.263  27.514  0.00  0.00    +0.131 C 
ENDBRANCH  21  24
ENDBRANCH  12  21
ENDBRANCH   9  11
ENDBRANCH   8   9
BRANCH   8  27
ATOM     27  O   LIG    1      -36.964  69.459  22.908  0.00  0.00    -0.481 OA
ATOM     28  H   LIG    1      -36.838  70.277  23.412  0.00  0.00    +0.295 HD
ENDBRANCH   8  27
ENDBRANCH   4   7
BRANCH   1  29
ATOM     29  O   LIG    1      -35.503  66.055  18.240  0.00  0.00    -0.424 OA
BRANCH  29  33
ATOM     30  C   LIG    1      -31.540  67.451  18.447  0.00  0.00    -0.010 A 
ATOM     31  C   LIG    1      -31.957  66.374  19.243  0.00  0.00    +0.012 A 
ATOM     32  C   LIG    1      -33.255  65.866  19.154  0.00  0.00    +0.047 A 
ATOM     33  C   LIG    1      -34.190  66.464  18.311  0.00  0.00    +0.132 A 
ATOM     34  C   LIG    1      -33.782  67.494  17.466  0.00  0.00    +0.047 A 
ATOM     35  C   LIG    1      -32.469  67.984  17.535  0.00  0.00    +0.012 A 
BRANCH  30  38
ATOM     36  C   LIG    1      -28.150  69.522  18.751  0.00  0.00    +0.156 A 
ATOM     37  S   LIG    1      -29.878  69.730  18.355  0.00  0.00    -0.053 S 
ATOM     38  C   LIG    1      -30.182  68.006  18.557  0.00  0.00    +0.038 A 
ATOM     39  C   LIG    1      -29.033  67.364  18.826  0.00  0.00    +0.100 A 
ATOM     40  N   LIG    1      -27.928  68.176  18.901  0.00  0.00    -0.342 N 
ATOM     41  H   LIG    1      -27.032  67.839  19.219  0.00  0.00    +0.167 HD
BRANCH  36  42
ATOM     42  N   LIG    1      -27.266  70.441  18.899  0.00  0.00    -0.228 NA
BRANCH  42  43
ATOM     43  C   LIG    1      -26.047  70.407  18.092  0.00  0.00    +0.130 C 
BRANCH  43  45
ATOM     44  C   LIG    1      -26.882  72.059  16.385  0.00  0.00    +0.005 C 
ATOM     45  C   LIG    1      -26.413  70.631  16.625  0.00  0.00    +0.017 C 
ENDBRANCH  43  45
ENDBRANCH  42  43
ENDBRANCH  36  42
ENDBRANCH  30  38
ENDBRANCH  29  33
ENDBRANCH   1  29
TORSDOF 13
ENDMDL
MODEL 7
REMARK VINA RESULT:      -5.8      8.051     13.500
REMARK  Name = pdb/CHEMBL3934726.pdb
REMARK                            x       y       z     vdW  Elec       q    Type
REMARK                         _______ _______ _______ _____ _____    ______ ____
ROOT
ATOM      1  C   LIG    1      -30.001  74.816  32.351  0.00  0.00    +0.323 A 
ATOM      2  N   LIG    1      -28.822  74.183  32.218  0.00  0.00    -0.201 NA
ATOM      3  C   LIG    1      -27.717  74.954  32.085  0.00  0.00    +0.145 A 
ATOM      4  C   LIG    1      -27.723  76.333  32.090  0.00  0.00    +0.105 A 
ATOM      5  C   LIG    1      -28.993  76.860  32.273  0.00  0.00    +0.145 A 
ATOM      6  N   LIG    1      -30.140  76.147  32.419  0.00  0.00    -0.201 NA
ENDROOT
BRANCH   4   7
ATOM      7  N   LIG    1      -26.647  77.202  31.821  0.00  0.00    -0.196 NA
ATOM      8  C   LIG    1      -25.561  77.237  32.519  0.00  0.00    +0.285 C 
BRANCH   8   9
ATOM      9  N   LIG    1      -24.530  78.101  32.257  0.00  0.00    -0.268 N 
ATOM     10  H   LIG    1      -24.165  77.983  31.310  0.00  0.00    +0.157 HD
BRANCH   9  11
ATOM     11  C   LIG    1      -23.533  78.522  33.166  0.00  0.00    +0.062 A 
ATOM     12  C   LIG    1      -22.234  77.975  33.204  0.00  0.00    +0.127 A 
ATOM     13  C   LIG    1      -21.273  78.479  34.095  0.00  0.00    +0.031 A 
ATOM     14  C   LIG    1      -21.586  79.538  34.946  0.00  0.00    +0.014 A 
ATOM     15  C   LIG    1      -22.872  80.085  34.951  0.00  0.00    +0.057 A 
ATOM     16  C   LIG    1      -23.835  79.552  34.083  0.00  0.00    +0.037 A 
BRANCH  15  17
ATOM     17  C   LIG    1      -23.187  81.253  35.854  0.00  0.00    +0.417 C 
ATOM     18  F   LIG    1      -24.529  81.426  36.005  0.00  0.00    -0.166 F 
ATOM     19  F   LIG    1      -22.706  82.429  35.372  0.00  0.00    -0.166 F 
ATOM     20  F   LIG    1      -22.683  81.121  37.111  0.00  0.00    -0.166 F 
ENDBRANCH  15  17
BRANCH  12  21
ATOM     21  S   LIG    1      -21.738  76.633  32.131  0.00  0.00    +0.062 S 
ATOM     22  O   LIG    1      -22.785  75.646  32.205  0.00  0.00    -0.153 OA
ATOM     23  O   LIG    1      -20.354  76.287  32.449  0.00  0.00    -0.153 OA
BRANCH  21  24
ATOM     24  N   LIG    1      -21.743  77.345  30.591  0.00  0.00    -0.183 NA
ATOM     25  C   LIG    1      -22.738  76.817  29.639  0.00  0.00    +0.131 C 
ATOM     26  C   LIG    1      -20.446  77.645  29.959  0.00  0.00    +0.131 C 
ENDBRANCH  21  24
ENDBRANCH  12  21
ENDBRANCH   9  11
ENDBRANCH   8   9
BRANCH   8  27
ATOM     27  O   LIG    1      -25.379  76.450  33.599  0.00  0.00    -0.481 OA
ATOM     28  H   LIG    1      -25.813  75.594  33.470  0.00  0.00    +0.295 HD
ENDBRANCH   8  27
ENDBRANCH   4   7
BRANCH   1  29
ATOM     29  O   LIG    1      -31.183  74.077  32.437  0.00  0.00    -0.424 OA
BRANCH  29  33
ATOM     30  C   LIG    1      -34.044  74.748  29.426  0.00  0.00    -0.010 A 
ATOM     31  C   LIG    1      -32.751  74.319  29.095  0.00  0.00    +0.012 A 
ATOM     32  C   LIG    1      -31.802  74.046  30.083  0.00  0.00    +0.047 A 
ATOM     33  C   LIG    1      -32.103  74.257  31.427  0.00  0.00    +0.132 A 
ATOM     34  C   LIG    1      -33.399  74.622  31.784  0.00  0.00    +0.047 A 
ATOM     35  C   LIG    1      -34.360  74.868  30.791  0.00  0.00    +0.012 A 
BRANCH  30  38
ATOM     36  C   LIG    1      -36.400  76.136  26.528  0.00  0.00    +0.156 A 
ATOM     37  S   LIG    1      -35.121  76.664  27.656  0.00  0.00    -0.053 S 
ATOM     38  C   LIG    1      -35.037  75.064  28.388  0.00  0.00    +0.038 A 
ATOM     39  C   LIG    1      -35.966  74.259  27.843  0.00  0.00    +0.100 A 
ATOM     40  N   LIG    1      -36.724  74.845  26.860  0.00  0.00    -0.342 N 
ATOM     41  H   LIG    1      -37.365  74.316  26.288  0.00  0.00    +0.167 HD
BRANCH  36  42
ATOM     42  N   LIG    1      -36.918  76.807  25.564  0.00  0.00    -0.228 NA
BRANCH  42  43
ATOM     43  C   LIG    1      -37.923  76.180  24.706  0.00  0.00    +0.130 C 
BRANCH  43  45
ATOM     44  C   LIG    1      -39.998  77.073  23.594  0.00  0.00    +0.005 C 
ATOM     45  C   LIG    1      -39.265  76.883  24.914  0.00  0.00    +0.017 C 
ENDBRANCH  43  45
ENDBRANCH  42  43
ENDBRANCH  36  42
ENDBRANCH  30  38
ENDBRANCH  29  33
ENDBRANCH   1  29
TORSDOF 13
ENDMDL
MODEL 8
REMARK VINA RESULT:      -5.7     16.367     19.590
REMARK  Name = pdb/CHEMBL3934726.pdb
REMARK                            x       y       z     vdW  Elec       q    Type
REMARK                         _______ _______ _______ _____ _____    ______ ____
ROOT
ATOM      1  C   LIG    1      -37.292  67.037  21.191  0.00  0.00    +0.323 A 
ATOM      2  N   LIG    1      -37.349  66.796  22.513  0.00  0.00    -0.201 NA
ATOM      3  C   LIG    1      -37.904  67.753  23.293  0.00  0.00    +0.145 A 
ATOM      4  C   LIG    1      -38.421  68.942  22.820  0.00  0.00    +0.105 A 
ATOM      5  C   LIG    1      -38.336  69.049  21.440  0.00  0.00    +0.145 A 
ATOM      6  N   LIG    1      -37.798  68.127  20.599  0.00  0.00    -0.201 NA
ENDROOT
BRANCH   4   7
ATOM      7  N   LIG    1      -38.886  70.040  23.571  0.00  0.00    -0.196 NA
ATOM      8  C   LIG    1      -38.122  70.976  24.025  0.00  0.00    +0.285 C 
BRANCH   8   9
ATOM      9  N   LIG    1      -38.587  72.027  24.771  0.00  0.00    -0.268 N 
ATOM     10  H   LIG    1      -38.656  71.790  25.762  0.00  0.00    +0.157 HD
BRANCH   9  11
ATOM     11  C   LIG    1      -39.562  72.972  24.378  0.00  0.00    +0.062 A 
ATOM     12  C   LIG    1      -39.456  74.353  24.638  0.00  0.00    +0.127 A 
ATOM     13  C   LIG    1      -40.434  75.245  24.168  0.00  0.00    +0.031 A 
ATOM     14  C   LIG    1      -41.517  74.777  23.425  0.00  0.00    +0.014 A 
ATOM     15  C   LIG    1      -41.663  73.411  23.171  0.00  0.00    +0.057 A 
ATOM     16  C   LIG    1      -40.701  72.525  23.674  0.00  0.00    +0.037 A 
BRANCH  15  17
ATOM     17  C   LIG    1      -42.823  72.924  22.335  0.00  0.00    +0.417 C 
ATOM     18  F   LIG    1      -43.534  73.958  21.809  0.00  0.00    -0.166 F 
ATOM     19  F   LIG    1      -43.706  72.183  23.054  0.00  0.00    -0.166 F 
ATOM     20  F   LIG    1      -42.446  72.153  21.279  0.00  0.00    -0.166 F 
ENDBRANCH  15  17
BRANCH  12  21
ATOM     21  S   LIG    1      -38.089  75.043  25.562  0.00  0.00    +0.062 S 
ATOM     22  O   LIG    1      -37.268  75.745  24.609  0.00  0.00    -0.153 OA
ATOM     23  O   LIG    1      -37.530  73.985  26.401  0.00  0.00    -0.153 OA
BRANCH  21  24
ATOM     24  N   LIG    1      -38.842  76.164  26.590  0.00  0.00    -0.183 NA
ATOM     25  C   LIG    1      -38.428  77.570  26.426  0.00  0.00    +0.131 C 
ATOM     26  C   LIG    1      -39.047  75.787  27.999  0.00  0.00    +0.131 C 
ENDBRANCH  21  24
ENDBRANCH  12  21
ENDBRANCH   9  11
ENDBRANCH   8   9
BRANCH   8  27
ATOM     27  O   LIG    1      -36.786  70.963  23.837  0.00  0.00    -0.481 OA
ATOM     28  H   LIG    1      -36.337  71.388  24.582  0.00  0.00    +0.295 HD
ENDBRANCH   8  27
ENDBRANCH   4   7
BRANCH   1  29
ATOM     29  O   LIG    1      -36.682  66.113  20.340  0.00  0.00    -0.424 OA
BRANCH  29  33
ATOM     30  C   LIG    1      -32.698  66.847  19.203  0.00  0.00    -0.010 A 
ATOM     31  C   LIG    1      -33.742  67.015  18.282  0.00  0.00    +0.012 A 
ATOM     32  C   LIG    1      -35.075  66.822  18.654  0.00  0.00    +0.047 A 
ATOM     33  C   LIG    1      -35.393  66.393  19.941  0.00  0.00    +0.132 A 
ATOM     34  C   LIG    1      -34.378  66.279  20.889  0.00  0.00    +0.047 A 
ATOM     35  C   LIG    1      -33.043  66.503  20.522  0.00  0.00    +0.012 A 
BRANCH  30  38
ATOM     36  C   LIG    1      -29.085  67.864  17.868  0.00  0.00    +0.156 A 
ATOM     37  S   LIG    1      -30.811  68.270  17.662  0.00  0.00    -0.053 S 
ATOM     38  C   LIG    1      -31.292  67.022  18.808  0.00  0.00    +0.038 A 
ATOM     39  C   LIG    1      -30.212  66.338  19.225  0.00  0.00    +0.100 A 
ATOM     40  N   LIG    1      -29.022  66.771  18.695  0.00  0.00    -0.342 N 
ATOM     41  H   LIG    1      -28.131  66.428  19.020  0.00  0.00    +0.167 HD
BRANCH  36  42
ATOM     42  N   LIG    1      -28.073  68.478  17.371  0.00  0.00    -0.228 NA
BRANCH  42  43
ATOM     43  C   LIG    1      -26.937  68.813  18.229  0.00  0.00    +0.130 C 
BRANCH  43  45
ATOM     44  C   LIG    1      -27.473  69.984  20.393  0.00  0.00    +0.005 C 
ATOM     45  C   LIG    1      -27.202  70.158  18.905  0.00  0.00    +0.017 C 
ENDBRANCH  43  45
ENDBRANCH  42  43
ENDBRANCH  36  42
ENDBRANCH  30  38
ENDBRANCH  29  33
ENDBRANCH   1  29
TORSDOF 13
ENDMDL
MODEL 9
REMARK VINA RESULT:      -5.7     19.808     22.389
REMARK  Name = pdb/CHEMBL3934726.pdb
REMARK                            x       y       z     vdW  Elec       q    Type
REMARK                         _______ _______ _______ _____ _____    ______ ____
ROOT
ATOM      1  C   LIG    1      -22.452  80.524  14.791  0.00  0.00    +0.323 A 
ATOM      2  N   LIG    1      -21.520  81.090  14.001  0.00  0.00    -0.201 NA
ATOM      3  C   LIG    1      -21.320  82.422  14.138  0.00  0.00    +0.145 A 
ATOM      4  C   LIG    1      -21.995  83.225  15.034  0.00  0.00    +0.105 A 
ATOM      5  C   LIG    1      -22.896  82.514  15.812  0.00  0.00    +0.145 A 
ATOM      6  N   LIG    1      -23.142  81.180  15.733  0.00  0.00    -0.201 NA
ENDROOT
BRANCH   4   7
ATOM      7  N   LIG    1      -21.945  84.628  15.142  0.00  0.00    -0.196 NA
ATOM      8  C   LIG    1      -22.564  85.433  14.344  0.00  0.00    +0.285 C 
BRANCH   8   9
ATOM      9  N   LIG    1      -22.490  86.798  14.450  0.00  0.00    -0.268 N 
ATOM     10  H   LIG    1      -23.098  87.156  15.189  0.00  0.00    +0.157 HD
BRANCH   9  11
ATOM     11  C   LIG    1      -22.339  87.717  13.387  0.00  0.00    +0.062 A 
ATOM     12  C   LIG    1      -21.097  88.029  12.798  0.00  0.00    +0.127 A 
ATOM     13  C   LIG    1      -21.026  88.908  11.706  0.00  0.00    +0.031 A 
ATOM     14  C   LIG    1      -22.185  89.475  11.179  0.00  0.00    +0.014 A 
ATOM     15  C   LIG    1      -23.429  89.206  11.756  0.00  0.00    +0.057 A 
ATOM     16  C   LIG    1      -23.487  88.354  12.868  0.00  0.00    +0.037 A 
BRANCH  15  17
ATOM     17  C   LIG    1      -24.680  89.800  11.154  0.00  0.00    +0.417 C 
ATOM     18  F   LIG    1      -24.421  90.426   9.972  0.00  0.00    -0.166 F 
ATOM     19  F   LIG    1      -25.253  90.732  11.958  0.00  0.00    -0.166 F 
ATOM     20  F   LIG    1      -25.645  88.879  10.886  0.00  0.00    -0.166 F 
ENDBRANCH  15  17
BRANCH  12  21
ATOM     21  S   LIG    1      -19.563  87.329  13.393  0.00  0.00    +0.062 S 
ATOM     22  O   LIG    1      -19.621  87.385  14.831  0.00  0.00    -0.153 OA
ATOM     23  O   LIG    1      -18.465  87.957  12.661  0.00  0.00    -0.153 OA
BRANCH  21  24
ATOM     24  N   LIG    1      -19.652  85.712  12.889  0.00  0.00    -0.183 NA
ATOM     25  C   LIG    1      -18.586  84.821  13.383  0.00  0.00    +0.131 C 
ATOM     26  C   LIG    1      -20.026  85.439  11.490  0.00  0.00    +0.131 C 
ENDBRANCH  21  24
ENDBRANCH  12  21
ENDBRANCH   9  11
ENDBRANCH   8   9
BRANCH   8  27
ATOM     27  O   LIG    1      -23.299  84.986  13.306  0.00  0.00    -0.481 OA
ATOM     28  H   LIG    1      -23.247  84.020  13.247  0.00  0.00    +0.295 HD
ENDBRANCH   8  27
ENDBRANCH   4   7
BRANCH   1  29
ATOM     29  O   LIG    1      -22.743  79.165  14.660  0.00  0.00    -0.424 OA
BRANCH  29  33
ATOM     30  C   LIG    1      -26.484  78.119  13.042  0.00  0.00    -0.010 A 
ATOM     31  C   LIG    1      -26.238  77.975  14.416  0.00  0.00    +0.012 A 
ATOM     32  C   LIG    1      -25.019  78.361  14.979  0.00  0.00    +0.047 A 
ATOM     33  C   LIG    1      -23.991  78.842  14.171  0.00  0.00    +0.132 A 
ATOM     34  C   LIG    1      -24.232  79.051  12.815  0.00  0.00    +0.047 A 
ATOM     35  C   LIG    1      -25.468  78.691  12.256  0.00  0.00    +0.012 A 
BRANCH  30  38
ATOM     36  C   LIG    1      -29.811  77.394  10.974  0.00  0.00    +0.156 A 
ATOM     37  S   LIG    1      -28.520  78.613  11.152  0.00  0.00    -0.053 S 
ATOM     38  C   LIG    1      -27.755  77.688  12.441  0.00  0.00    +0.038 A 
ATOM     39  C   LIG    1      -28.491  76.599  12.725  0.00  0.00    +0.100 A 
ATOM     40  N   LIG    1      -29.619  76.455  11.955  0.00  0.00    -0.342 N 
ATOM     41  H   LIG    1      -30.185  75.621  11.982  0.00  0.00    +0.167 HD
BRANCH  36  42
ATOM     42  N   LIG    1      -30.740  77.363  10.089  0.00  0.00    -0.228 NA
BRANCH  42  43
ATOM     43  C   LIG    1      -31.972  76.623  10.360  0.00  0.00    +0.130 C 
BRANCH  43  45
ATOM     44  C   LIG    1      -33.042  78.882  10.062  0.00  0.00    +0.005 C 
ATOM     45  C   LIG    1      -33.036  77.594  10.872  0.00  0.00    +0.017 C 
ENDBRANCH  43  45
ENDBRANCH  42  43
ENDBRANCH  36  42
ENDBRANCH  30  38
ENDBRANCH  29  33
ENDBRANCH   1  29
TORSDOF 13
ENDMDL
